@<TRIPOS>MOLECULE
tmp/3zbnB00.pdb
 224 215 0 0 0
SMALL
GASTEIGER

@<TRIPOS>ATOM
      1  N        -22.2080  -28.0590  -34.1340 N.3    17  LYS17      -0.1245
      2  CA       -22.8190  -29.1080  -33.3200 C.3    17  LYS17       0.1561
      3  C        -24.2330  -28.6660  -32.9200 C.2    17  LYS17       0.2260
      4  O        -24.4170  -27.5690  -32.3930 O.2    17  LYS17      -0.2867
      5  CB       -22.0580  -29.3530  -32.0260 C.3    17  LYS17       0.0271
      6  CG       -20.7040  -29.9890  -32.1530 C.3    17  LYS17       0.0035
      7  CD       -20.0720  -30.0650  -30.7770 C.3    17  LYS17       0.0206
      8  CE       -18.9540  -31.0880  -30.7020 C.3    17  LYS17       0.1093
      9  NZ       -18.9500  -31.6000  -29.2790 N.3    17  LYS17      -0.1314
     10  N        -11.6800  -13.2120  -38.5540 N.3    70  PHE70      -0.1241
     11  CA       -10.8620  -13.0330  -37.3750 C.3    70  PHE70       0.1605
     12  C         -9.7560  -14.0690  -37.2830 C.2    70  PHE70       0.2264
     13  O         -8.6040  -13.6940  -37.1170 O.2    70  PHE70      -0.2867
     14  CB       -11.7400  -13.0280  -36.1140 C.3    70  PHE70       0.0534
     15  CG       -10.9820  -12.8200  -34.8080 C.ar   70  PHE70      -0.0203
     16  CD1       -9.8550  -12.0550  -34.7550 C.ar   70  PHE70      -0.0042
     17  CD2      -11.4210  -13.4380  -33.6370 C.ar   70  PHE70      -0.0042
     18  CE1       -9.1820  -11.8800  -33.5670 C.ar   70  PHE70      -0.0003
     19  CE2      -10.7550  -13.2560  -32.4410 C.ar   70  PHE70      -0.0003
     20  CZ        -9.6280  -12.4820  -32.4030 C.ar   70  PHE70      -0.0000
     21  N        -11.3720   -8.6650  -34.1220 N.3   111  ALA111     -0.1231
     22  CA       -12.0630   -9.6500  -33.3750 C.3   111  ALA111      0.1694
     23  C        -13.4740   -9.8520  -33.9090 C.2   111  ALA111      0.2591
     24  O        -13.6880   -9.8730  -35.1250 O.2   111  ALA111     -0.2718
     25  CB       -12.0460   -9.2580  -31.8970 C.3   111  ALA111      0.0304
     26  N        -14.4410  -10.0160  -33.0230 N.am  112  ALA112     -0.1980
     27  CA       -15.8140  -10.1990  -33.4450 C.3   112  ALA112      0.1597
     28  C        -16.3960   -8.9670  -34.1410 C.2   112  ALA112      0.2287
     29  O        -17.5680   -8.9920  -34.5890 O.2   112  ALA112     -0.2864
     30  CB       -16.6780  -10.6040  -32.2630 C.3   112  ALA112      0.0319
     31  N        -15.1540  -22.2160  -37.4390 N.3   142  GLN142     -0.1196
     32  CA       -14.6810  -22.4350  -36.0690 C.3   142  GLN142      0.1782
     33  C        -14.8810  -23.8640  -35.5990 C.2   142  GLN142      0.2306
     34  O        -14.3820  -24.2440  -34.5250 O.2   142  GLN142     -0.2863
     35  CB       -15.4320  -21.5540  -35.1020 C.2   142  GLN142      0.0051
     36  CG       -15.0100  -20.0910  -35.0590 C.2   142  GLN142      0.0584
     37  CD       -15.8220  -19.1470  -34.1430 C.2   142  GLN142      0.2840
     38  OE1      -16.3910  -18.1140  -34.5880 O.2   142  GLN142     -0.2667
     39  NE2      -15.8730  -19.4870  -32.8460 N.am  142  GLN142     -0.0837
     40  N        -12.1790  -28.2580  -30.9830 N.3   146  SER146     -0.1202
     41  CA       -13.0660  -28.2790  -29.8280 C.3   146  SER146      0.2020
     42  C        -13.3340  -26.8410  -29.3610 C.2   146  SER146      0.2619
     43  O        -12.5640  -25.9280  -29.6510 O.2   146  SER146     -0.2717
     44  CB       -12.4460  -29.1190  -28.6870 C.3   146  SER146      0.2103
     45  OG       -11.2300  -28.5330  -28.1840 O.3   146  SER146     -0.2182
     46  N        -14.3670  -26.6940  -28.5600 N.am  147  ALA147     -0.1965
     47  CA       -14.6490  -25.4620  -27.8590 C.3   147  ALA147      0.1728
     48  C        -13.4440  -24.9930  -27.0150 C.2   147  ALA147      0.2616
     49  O        -13.1790  -23.8010  -26.9550 O.2   147  ALA147     -0.2715
     50  CB       -15.8890  -25.5750  -27.0250 C.3   147  ALA147      0.0334
     51  N        -12.6780  -25.9300  -26.4380 N.am  148  ARG148     -0.1977
     52  CA       -11.5440  -25.5710  -25.5930 C.3   148  ARG148      0.1597
     53  C        -10.3720  -25.0380  -26.3770 C.2   148  ARG148      0.2287
     54  O         -9.7740  -24.0530  -25.9960 O.2   148  ARG148     -0.2864
     55  CB       -11.0660  -26.7600  -24.7490 C.3   148  ARG148      0.0334
     56  CG       -10.0970  -26.4370  -23.6260 C.3   148  ARG148      0.0492
     57  CD        -9.8750  -27.6650  -22.6830 C.3   148  ARG148      0.2205
     58  NE       -11.0380  -27.9380  -21.8630 N.pl3 148  ARG148     -0.0865
     59  CZ       -11.3750  -27.2660  -20.7760 C.cat 148  ARG148      0.5346
     60  NH1      -10.6200  -26.2870  -20.3190 N.pl3 148  ARG148      0.1354
     61  NH2      -12.4830  -27.5690  -20.1570 N.pl3 148  ARG148      0.1354
     62  N         -9.7190  -17.8340  -29.7390 N.3   154  LEU154     -0.1245
     63  CA       -10.5300  -16.6660  -29.4990 C.3   154  LEU154      0.1561
     64  C         -9.8880  -15.7440  -28.4600 C.2   154  LEU154      0.2260
     65  O        -10.0800  -14.5540  -28.5120 O.2   154  LEU154     -0.2867
     66  CB       -11.9030  -17.0840  -29.0250 C.3   154  LEU154      0.0270
     67  CG       -12.8910  -17.7070  -30.0280 C.3   154  LEU154      0.0019
     68  CD1      -14.0820  -18.1370  -29.1860 C.3   154  LEU154      0.0001
     69  CD2      -13.3090  -16.7860  -31.1530 C.3   154  LEU154      0.0001
     70  N        -11.2750  -21.0330  -21.4300 N.3   169  PHE169     -0.1241
     71  CA       -12.3670  -20.3360  -22.0650 C.3   169  PHE169      0.1605
     72  C        -12.2960  -18.8730  -21.6900 C.2   169  PHE169      0.2264
     73  O        -13.0190  -18.4200  -20.8240 O.2   169  PHE169     -0.2867
     74  CB       -13.6890  -20.9430  -21.6380 C.3   169  PHE169      0.0534
     75  CG       -13.9200  -22.3420  -22.1220 C.ar  169  PHE169     -0.0203
     76  CD1      -14.3820  -22.5680  -23.3910 C.ar  169  PHE169     -0.0042
     77  CD2      -13.7370  -23.4190  -21.2640 C.ar  169  PHE169     -0.0042
     78  CE1      -14.6340  -23.8550  -23.8340 C.ar  169  PHE169     -0.0003
     79  CE2      -13.9860  -24.7120  -21.6990 C.ar  169  PHE169     -0.0003
     80  CZ       -14.4390  -24.9300  -22.9960 C.ar  169  PHE169     -0.0000
     81  N        -12.8070  -15.9320  -22.9720 N.3   171  PHE171     -0.1228
     82  CA       -13.8640  -14.9950  -23.1250 C.3   171  PHE171      0.1721
     83  C        -15.0950  -15.2450  -22.2930 C.2   171  PHE171      0.2437
     84  O        -15.6410  -14.3080  -21.7210 O.2   171  PHE171     -0.2733
     85  CB       -14.1910  -14.7040  -24.6180 C.3   171  PHE171      0.0547
     86  CG       -13.4510  -13.5200  -25.0980 C.ar  171  PHE171     -0.0202
     87  CD1      -13.8860  -12.2580  -24.7670 C.ar  171  PHE171     -0.0042
     88  CD2      -12.2010  -13.6620  -25.6580 C.ar  171  PHE171     -0.0042
     89  CE1      -13.1350  -11.1410  -25.1150 C.ar  171  PHE171     -0.0003
     90  CE2      -11.4220  -12.5600  -25.9990 C.ar  171  PHE171     -0.0003
     91  CZ       -11.8990  -11.2890  -25.7200 C.ar  171  PHE171     -0.0000
     92  N        -15.5850  -16.4770  -22.2990 N.am  172  PRO172     -0.2729
     93  CA       -16.6640  -16.7980  -21.3820 C.3   172  PRO172      0.1401
     94  C        -16.3040  -16.3550  -19.9770 C.2   172  PRO172      0.2269
     95  O        -17.1610  -15.8410  -19.2580 O.2   172  PRO172     -0.2865
     96  CB       -16.7630  -18.3030  -21.4960 C.3   172  PRO172      0.0296
     97  CG       -16.4290  -18.5580  -22.9170 C.3   172  PRO172      0.0237
     98  CD       -15.3440  -17.5750  -23.2500 C.3   172  PRO172      0.0939
     99  N        -29.8560  -30.0200  -15.2540 N.3   227  PRO227     -0.2116
    100  CA       -28.4620  -30.3290  -14.8820 C.3   227  PRO227      0.1372
    101  C        -27.5090  -30.4120  -16.0660 C.2   227  PRO227      0.2244
    102  O        -26.3080  -30.2380  -15.8750 O.2   227  PRO227     -0.2868
    103  CB       -28.5630  -31.6930  -14.1790 C.3   227  PRO227      0.0268
    104  CG       -29.9940  -31.8030  -13.7600 C.3   227  PRO227      0.0207
    105  CD       -30.7770  -31.0900  -14.8310 C.3   227  PRO227      0.0892
    106  N        -24.6610  -26.8420  -17.7980 N.3   230  VAL230     -0.1231
    107  CA       -23.6530  -26.8410  -16.7360 C.3   230  VAL230      0.1692
    108  C        -22.9180  -25.5300  -16.6110 C.2   230  VAL230      0.2592
    109  O        -22.7940  -24.7460  -17.5680 O.2   230  VAL230     -0.2718
    110  CB       -22.6380  -28.0350  -16.8420 C.3   230  VAL230      0.0266
    111  CG1      -23.1790  -29.1420  -17.7710 C.3   230  VAL230      0.0020
    112  CG2      -21.2320  -27.5940  -17.2240 C.3   230  VAL230      0.0020
    113  N        -22.4070  -25.3110  -15.4120 N.am  231  LYS231     -0.1966
    114  CA       -21.5100  -24.2180  -15.1630 C.3   231  LYS231      0.1728
    115  C        -20.0970  -24.7540  -15.3520 C.2   231  LYS231      0.2616
    116  O        -19.4710  -25.3060  -14.4300 O.2   231  LYS231     -0.2715
    117  CB       -21.7720  -23.6570  -13.7680 C.3   231  LYS231      0.0311
    118  CG       -23.2360  -23.3040  -13.5770 C.3   231  LYS231      0.0038
    119  CD       -23.4930  -22.4970  -12.3050 C.3   231  LYS231      0.0206
    120  CE       -24.8490  -21.7910  -12.3000 C.3   231  LYS231      0.1093
    121  NZ       -24.9140  -20.7510  -11.2050 N.3   231  LYS231     -0.1314
    122  N        -19.5710  -24.5000  -16.5440 N.am  232  PHE232     -0.1974
    123  CA       -18.4790  -25.2850  -17.1100 C.3   232  PHE232      0.1639
    124  C        -17.0730  -24.6960  -17.0040 C.2   232  PHE232      0.2290
    125  O        -16.0810  -25.3690  -17.2920 O.2   232  PHE232     -0.2864
    126  CB       -18.7800  -25.5540  -18.5740 C.3   232  PHE232      0.0560
    127  CG       -18.8030  -24.3220  -19.4230 C.ar  232  PHE232     -0.0200
    128  CD1      -19.9380  -23.5770  -19.5440 C.ar  232  PHE232     -0.0042
    129  CD2      -17.6550  -23.8930  -20.0830 C.ar  232  PHE232     -0.0042
    130  CE1      -19.9650  -22.4370  -20.3330 C.ar  232  PHE232     -0.0003
    131  CE2      -17.6670  -22.7420  -20.8780 C.ar  232  PHE232     -0.0003
    132  CZ       -18.8370  -22.0210  -21.0010 C.ar  232  PHE232     -0.0000
    133  N        -23.9330  -22.8520  -19.8850 N.3   244  MET244     -0.1245
    134  CA       -23.7540  -23.1120  -21.3060 C.3   244  MET244      0.1570
    135  C        -24.7250  -22.3130  -22.1500 C.2   244  MET244      0.2261
    136  O        -24.3270  -21.7120  -23.1540 O.2   244  MET244     -0.2867
    137  CB       -23.8820  -24.6090  -21.6310 C.3   244  MET244      0.0387
    138  CG       -22.7700  -25.4440  -20.9970 C.3   244  MET244      0.0595
    139  SD       -22.4120  -27.0690  -21.6770 S.3   244  MET244     -0.1393
    140  CE       -24.0910  -27.7290  -21.6260 C.3   244  MET244      0.0692
    141  N        -24.0810  -18.7480  -23.4850 N.3   247  CYS247     -0.1221
    142  CA       -23.0000  -18.5630  -24.4190 C.3   247  CYS247      0.1808
    143  C        -23.4790  -18.6000  -25.8570 C.2   247  CYS247      0.2602
    144  O        -24.3370  -19.3950  -26.2020 O.2   247  CYS247     -0.2717
    145  CB       -21.9310  -19.6370  -24.1890 C.3   247  CYS247      0.0970
    146  SG       -21.2310  -19.5330  -22.5400 S.3   247  CYS247     -0.0800
    147  N        -22.8450  -17.7730  -26.6920 N.am  248  SER248     -0.1938
    148  CA       -22.9730  -17.8370  -28.1350 C.3   248  SER248      0.2055
    149  C        -22.3240  -19.0970  -28.7250 C.2   248  SER248      0.2643
    150  O        -21.4860  -19.7580  -28.0960 O.2   248  SER248     -0.2714
    151  CB       -22.3170  -16.6000  -28.7390 C.3   248  SER248      0.2130
    152  OG       -20.9190  -16.5710  -28.4590 O.3   248  SER248     -0.2179
    153  N        -22.7010  -19.4320  -29.9420 N.am  249  GLN249     -0.1963
    154  CA       -22.3070  -20.7280  -30.5190 C.3   249  GLN249      0.1733
    155  C        -20.9760  -20.7000  -31.2670 C.2   249  GLN249      0.2616
    156  O        -20.5750  -19.6830  -31.8410 O.2   249  GLN249     -0.2715
    157  CB       -23.4190  -21.2370  -31.4450 C.3   249  GLN249      0.0408
    158  CG       -24.8100  -21.3340  -30.8020 C.3   249  GLN249      0.0908
    159  CD       -24.8540  -22.2420  -29.5850 C.2   249  GLN249      0.2608
    160  OE1      -24.0750  -23.1510  -29.4800 O.2   249  GLN249     -0.2717
    161  NE2      -25.7840  -22.0060  -28.6810 N.am  249  GLN249     -0.0878
    162  N        -20.3040  -21.8460  -31.2460 N.am  250  VAL250     -0.1977
    163  CA       -19.1940  -22.1560  -32.1240 C.3   250  VAL250      0.1596
    164  C        -19.7880  -22.5450  -33.4860 C.2   250  VAL250      0.2287
    165  O        -20.2990  -23.6590  -33.6440 O.2   250  VAL250     -0.2864
    166  CB       -18.3640  -23.3170  -31.5370 C.3   250  VAL250      0.0276
    167  CG1      -17.2050  -23.6770  -32.4240 C.3   250  VAL250      0.0022
    168  CG2      -17.8440  -22.9010  -30.1610 C.3   250  VAL250      0.0022
    169  N        -24.8250   -7.2590  -30.1000 N.3   327  HIS327     -0.1241
    170  CA       -23.7520   -8.2580  -30.0880 C.3   327  HIS327      0.1621
    171  C        -23.8800   -9.0970  -28.8510 C.2   327  HIS327      0.2264
    172  O        -23.1580   -8.9090  -27.8610 O.2   327  HIS327     -0.2867
    173  CB       -22.3950   -7.5740  -30.1530 C.3   327  HIS327      0.0745
    174  CG       -21.2850   -8.4970  -30.5640 C.ar  327  HIS327      0.0817
    175  ND1      -20.8400   -8.5740  -31.8260 N.ar  327  HIS327     -0.2268
    176  CD2      -20.5670   -9.4340  -29.8320 C.ar  327  HIS327      0.1154
    177  CE1      -19.8990   -9.4890  -31.8990 C.ar  327  HIS327      0.1986
    178  NE2      -19.7320  -10.0230  -30.6800 N.ar  327  HIS327     -0.2212
    179  N        -22.8420  -11.8320  -27.4790 N.3   329  CYS329     -0.1221
    180  CA       -21.9180  -12.9530  -27.4630 C.3   329  CYS329      0.1808
    181  C        -22.1100  -13.7810  -26.2020 C.2   329  CYS329      0.2601
    182  O        -21.6880  -14.9310  -26.1210 O.2   329  CYS329     -0.2717
    183  CB       -20.4800  -12.4890  -27.5610 C.3   329  CYS329      0.0970
    184  SG       -20.1070  -11.1000  -26.5130 S.3   329  CYS329     -0.0800
    185  N        -22.7280  -13.1550  -25.2040 N.am  330  PHE330     -0.1976
    186  CA       -23.2820  -13.8580  -24.0760 C.3   330  PHE330      0.1639
    187  C        -24.5710  -13.1850  -23.7610 C.2   330  PHE330      0.2290
    188  O        -24.8510  -12.0980  -24.2880 O.2   330  PHE330     -0.2864
    189  CB       -22.3410  -13.8310  -22.8980 C.3   330  PHE330      0.0560
    190  CG       -21.0020  -14.3960  -23.2090 C.ar  330  PHE330     -0.0200
    191  CD1      -20.0040  -13.5920  -23.7240 C.ar  330  PHE330     -0.0042
    192  CD2      -20.7650  -15.7370  -23.0560 C.ar  330  PHE330     -0.0042
    193  CE1      -18.7900  -14.1050  -24.0660 C.ar  330  PHE330     -0.0003
    194  CE2      -19.5550  -16.2710  -23.3740 C.ar  330  PHE330     -0.0003
    195  CZ       -18.5630  -15.4590  -23.9020 C.ar  330  PHE330     -0.0000
    196  N        -22.6790  -17.7320  -34.2310 N.3   377  HIS377     -0.1241
    197  CA       -21.6110  -16.7270  -34.1530 C.3   377  HIS377      0.1621
    198  C        -20.3180  -17.1480  -34.8350 C.2   377  HIS377      0.2264
    199  O        -19.3080  -17.4480  -34.1830 O.2   377  HIS377     -0.2867
    200  CB       -21.3560  -16.3580  -32.6980 C.3   377  HIS377      0.0745
    201  CG       -20.4910  -15.1610  -32.5300 C.ar  377  HIS377      0.0817
    202  ND1      -20.4030  -14.1760  -33.4680 N.ar  377  HIS377     -0.2268
    203  CD2      -19.6670  -14.7870  -31.4870 C.ar  377  HIS377      0.1154
    204  CE1      -19.5460  -13.2450  -33.0230 C.ar  377  HIS377      0.1986
    205  NE2      -19.1060  -13.6180  -31.8190 N.ar  377  HIS377     -0.2212
    206  N        -17.4760  -15.7360  -36.1380 N.3   379  VAL379     -0.1245
    207  CA       -17.2060  -14.4000  -35.5900 C.3   379  VAL379      0.1561
    208  C        -17.1010  -13.3260  -36.6920 C.2   379  VAL379      0.2260
    209  O        -17.7720  -12.3160  -36.6020 O.2   379  VAL379     -0.2867
    210  CB       -16.0480  -14.3550  -34.5800 C.3   379  VAL379      0.0252
    211  CG1      -16.4620  -15.0650  -33.3050 C.3   379  VAL379      0.0019
    212  CG2      -14.7600  -14.9100  -35.1550 C.3   379  VAL379      0.0019
    213  N        -19.4250   -5.8090  -31.7160 N.3   415  MET415     -0.1245
    214  CA       -18.3800   -5.6570  -30.7110 C.3   415  MET415      0.1570
    215  C        -17.2100   -6.6060  -30.8970 C.2   415  MET415      0.2261
    216  O        -17.3790   -7.7840  -31.1520 O.2   415  MET415     -0.2867
    217  CB       -18.9770   -5.8740  -29.3270 C.3   415  MET415      0.0387
    218  CG       -17.9960   -5.5800  -28.1990 C.3   415  MET415      0.0595
    219  SD       -18.6840   -5.9010  -26.5820 S.3   415  MET415     -0.1393
    220  CE       -18.5010   -7.6660  -26.5650 C.3   415  MET415      0.0692
    221  N        -13.8710   -8.2550  -28.9910 N.3   417  GLY417     -0.1225
    222  CA       -13.2850   -8.5020  -27.6980 C.3   417  GLY417      0.1811
    223  C        -14.1690   -8.0590  -26.5330 C.2   417  GLY417      0.2280
    224  O        -15.3860   -8.0970  -26.6340 O.2   417  GLY417     -0.2866
@<TRIPOS>BOND
     1    10    11    1
     2    31    32    1
     3    11    12    1
     4    11    14    1
     5    12    13    2
     6   208   209    2
     7   208   207    1
     8   206   207    1
     9    14    15    1
    10    32    33    1
    11    32    35    1
    12    33    34    2
    13   207   210    1
    14   212   210    1
    15    24    23    2
    16    35    36    2
    17    36    37    1
    18   198   199    2
    19   198   197    1
    20    15    16   ar
    21    15    17   ar
    22    16    18   ar
    23    29    28    2
    24    38    37    2
    25   210   211    1
    26   196   197    1
    27   197   200    1
    28    37    39   am
    29    28    27    1
    30     1     2    1
    31    21    22    1
    32    23    22    1
    33    23    26   am
    34   165   164    2
    35    17    19   ar
    36    18    20   ar
    37   164   163    1
    38   202   204   ar
    39   202   201   ar
    40    27    26    1
    41    27    30    1
    42    22    25    1
    43     2     3    1
    44     2     5    1
    45   204   205   ar
    46     3     4    2
    47   200   201    1
    48   201   203   ar
    49    19    20   ar
    50   167   166    1
    51     6     5    1
    52     6     7    1
    53   163   166    1
    54   163   162    1
    55   177   175   ar
    56   177   178   ar
    57   156   155    2
    58   175   174   ar
    59   205   203   ar
    60   213   214    1
    61   166   168    1
    62   157   158    1
    63   157   154    1
    64   155   162   am
    65   155   154    1
    66    69    67    1
    67   216   215    2
    68    40    41    1
    69   215   214    1
    70   158   159    1
    71     7     8    1
    72   214   217    1
    73     8     9    1
    74   178   176   ar
    75   174   173    1
    76   174   176   ar
    77   154   153    1
    78   173   170    1
    79   169   170    1
    80   170   171    1
    81    67    68    1
    82    67    66    1
    83   153   149   am
    84    41    42    1
    85    41    44    1
    86    62    63    1
    87    43    42    2
    88   159   160    2
    89   159   161   am
    90    63    66    1
    91    63    64    1
    92    42    46   am
    93   217   218    1
    94   221   222    1
    95   171   172    2
    96   151   152    1
    97   151   148    1
    98   149   148    1
    99   149   150    2
   100    44    45    1
   101    46    47    1
   102    65    64    2
   103   218   219    1
   104   148   147    1
   105    47    50    1
   106    47    48    1
   107   222   223    1
   108   183   180    1
   109   183   184    1
   110   179   180    1
   111   180   181    1
   112    48    49    2
   113    48    51   am
   114   147   143   am
   115   224   223    2
   116   219   220    1
   117    51    52    1
   118    53    54    2
   119    53    52    1
   120   144   143    2
   121   181   182    2
   122   181   185   am
   123    90    91   ar
   124    90    88   ar
   125   143   142    1
   126    91    89   ar
   127    88    86   ar
   128    52    55    1
   129   185   186    1
   130    89    87   ar
   131    86    87   ar
   132    86    85    1
   133    55    56    1
   134    85    82    1
   135   142   145    1
   136   142   141    1
   137   188   187    2
   138   145   146    1
   139   186   187    1
   140   186   189    1
   141   193   195   ar
   142   193   191   ar
   143   195   194   ar
   144    78    76   ar
   145    78    80   ar
   146   191   190   ar
   147    56    57    1
   148    76    75   ar
   149   194   192   ar
   150    98    97    1
   151    98    92    1
   152   190   192   ar
   153   190   189    1
   154   136   135    2
   155    82    81    1
   156    82    83    1
   157    80    79   ar
   158    97    96    1
   159    57    58    1
   160    92    83   am
   161    92    93    1
   162    83    84    2
   163   135   134    1
   164    75    74    1
   165    75    77   ar
   166    71    72    1
   167    71    74    1
   168    71    70    1
   169    58    59    2
   170    79    77   ar
   171    72    73    2
   172   139   140    1
   173   139   138    1
   174   137   134    1
   175   137   138    1
   176    96    93    1
   177    93    94    1
   178   134   133    1
   179   132   131   ar
   180   132   130   ar
   181   131   129   ar
   182    59    60    1
   183    59    61    1
   184   130   128   ar
   185   129   127   ar
   186    94    95    2
   187   128   127   ar
   188   127   126    1
   189   126   123    1
   190   106   107    1
   191   111   110    1
   192   109   108    2
   193   125   124    2
   194   112   110    1
   195   123   124    1
   196   123   122    1
   197   110   107    1
   198   107   108    1
   199   108   113   am
   200   122   115   am
   201   101   102    2
   202   101   100    1
   203   113   114    1
   204   115   114    1
   205   115   116    2
   206    99   100    1
   207    99   105    1
   208   114   117    1
   209   100   103    1
   210   105   104    1
   211   103   104    1
   212   117   118    1
   213   118   119    1
   214   119   120    1
   215   120   121    1
