@<TRIPOS>MOLECULE
tmp/3zbqA00.pdb
 158 144 0 0 0
SMALL
GASTEIGER

@<TRIPOS>ATOM
      1  N          4.0790   -5.2590  -15.1100 N.3    10  GLY10      -0.1210
      2  CA         5.3520   -5.7540  -14.6090 C.3    10  GLY10       0.1956
      3  C          5.6590   -7.1460  -15.1290 C.2    10  GLY10       0.2612
      4  O          4.8900   -7.6910  -15.9140 O.2    10  GLY10      -0.2717
      5  N          6.7670   -7.7280  -14.6780 N.am   11  GLY11      -0.1942
      6  CA         7.2070   -9.0260  -15.1680 C.3    11  GLY11       0.2014
      7  C          6.2040  -10.1520  -14.9880 C.2    11  GLY11       0.2638
      8  O          5.8740  -10.8540  -15.9450 O.2    11  GLY11      -0.2714
      9  N          5.7080  -10.3210  -13.7670 N.am   12  ALA12      -0.1977
     10  CA         4.7790  -11.4000  -13.4840 C.3    12  ALA12       0.1597
     11  C          3.5430  -11.2340  -14.3590 C.2    12  ALA12       0.2287
     12  O          3.0080  -12.2120  -14.8620 O.2    12  ALA12      -0.2864
     13  CB         4.3920  -11.4230  -12.0110 C.3    12  ALA12       0.0319
     14  N          4.3390  -12.3470  -17.9130 N.3    15  ARG15      -0.1231
     15  CA         4.4650  -13.7990  -18.0180 C.3    15  ARG15       0.1694
     16  C          3.1060  -14.4880  -17.9620 C.2    15  ARG15       0.2591
     17  O          2.8340  -15.4090  -18.7350 O.2    15  ARG15      -0.2718
     18  CB         5.4020  -14.3380  -16.9330 C.3    15  ARG15       0.0321
     19  CG         6.8810  -14.0570  -17.2320 C.3    15  ARG15       0.0489
     20  CD         7.7040  -13.8060  -15.9670 C.3    15  ARG15       0.2205
     21  NE         8.7660  -12.8180  -16.1930 N.pl3  15  ARG15      -0.0865
     22  CZ         9.2300  -11.9930  -15.2570 C.cat  15  ARG15       0.5346
     23  NH1        8.7420  -12.0480  -14.0210 N.pl3  15  ARG15       0.1354
     24  NH2       10.1900  -11.1190  -15.5530 N.pl3  15  ARG15       0.1354
     25  N          2.2580  -14.0400  -17.0460 N.am   16  ILE16      -0.1980
     26  CA         0.8980  -14.5660  -16.9700 C.3    16  ILE16       0.1595
     27  C          0.1510  -14.2630  -18.2740 C.2    16  ILE16       0.2287
     28  O         -0.5570  -15.1160  -18.8160 O.2    16  ILE16      -0.2864
     29  CB         0.1340  -13.9640  -15.7860 C.3    16  ILE16       0.0276
     30  CG1        0.7410  -14.4220  -14.4530 C.3    16  ILE16       0.0022
     31  CG2       -1.3510  -14.3160  -15.8810 C.3    16  ILE16       0.0022
     32  CD1        0.7280  -15.9290  -14.2590 C.3    16  ILE16       0.0001
     33  N          4.8680   -1.9200  -18.4970 N.3    31  ASP31      -0.1239
     34  CA         6.0650   -2.2710  -17.7370 C.3    31  ASP31       0.1674
     35  C          7.0860   -1.1520  -17.8340 C.2    31  ASP31       0.2266
     36  O          6.8680   -0.1460  -18.5200 O.2    31  ASP31      -0.2867
     37  CB         6.6700   -3.5660  -18.2810 C.3    31  ASP31       0.1410
     38  CG         7.5290   -4.2990  -17.2600 C.2    31  ASP31       0.3668
     39  OD1        7.8770   -3.7100  -16.2060 O.co2  31  ASP31      -0.2456
     40  OD2        7.8530   -5.4790  -17.5200 O.co2  31  ASP31      -0.2456
     41  N         11.1180   -7.8950  -20.7220 N.3    36  ASN36      -0.1240
     42  CA         9.9920   -8.7610  -20.3930 C.3    36  ASN36       0.1653
     43  C          9.0430   -8.9770  -21.5580 C.2    36  ASN36       0.2266
     44  O          8.1480   -9.8260  -21.4910 O.2    36  ASN36      -0.2867
     45  CB         9.2140   -8.2020  -19.1990 C.3    36  ASN36       0.1155
     46  CG         9.9410   -8.4030  -17.8860 C.2    36  ASN36       0.2627
     47  OD1       10.6850   -9.3750  -17.7130 O.2    36  ASN36      -0.2716
     48  ND2        9.7270   -7.4880  -16.9490 N.am   36  ASN36      -0.0877
     49  N         13.0980   -2.0250  -12.7510 N.3    58  MET58      -0.1230
     50  CA        13.3130   -1.2730  -11.5230 C.3    58  MET58       0.1702
     51  C         13.9880   -2.1130  -10.4310 C.2    58  MET58       0.2593
     52  O         14.2350   -1.6230   -9.3310 O.2    58  MET58      -0.2718
     53  CB        11.9830   -0.6810  -11.0370 C.3    58  MET58       0.0401
     54  CG        11.5040    0.4810  -11.8920 C.3    58  MET58       0.0596
     55  SD        12.4160    1.9980  -11.5870 S.3    58  MET58      -0.1393
     56  CE        13.0300    2.3270  -13.2330 C.3    58  MET58       0.0692
     57  N         14.2930   -3.3710  -10.7520 N.am   59  GLY59      -0.1942
     58  CA        14.9700   -4.2660   -9.8280 C.3    59  GLY59       0.2014
     59  C         14.4810   -4.2460   -8.3890 C.2    59  GLY59       0.2638
     60  O         15.2670   -4.0460   -7.4680 O.2    59  GLY59      -0.2714
     61  N         13.1770   -4.4500   -8.2030 N.am   60  LYS60      -0.1977
     62  CA        12.5410   -4.5120   -6.8810 C.3    60  LYS60       0.1596
     63  C         12.6110   -3.2310   -6.0420 C.2    60  LYS60       0.2287
     64  O         12.3440   -3.2580   -4.8370 O.2    60  LYS60      -0.2864
     65  CB        13.0240   -5.7370   -6.0900 C.3    60  LYS60       0.0298
     66  CG        12.6970   -7.0400   -6.7830 C.3    60  LYS60       0.0038
     67  CD        13.0400   -8.2190   -5.8900 C.3    60  LYS60       0.0206
     68  CE        12.6860   -9.5420   -6.5630 C.3    60  LYS60       0.1093
     69  NZ        13.5170   -9.8060   -7.7680 N.3    60  LYS60      -0.1314
     70  N          2.5970   -8.8480   -9.5780 N.3    91  SER91      -0.1217
     71  CA         3.1520   -9.3900   -8.3500 C.3    91  SER91       0.1889
     72  C          3.1660   -8.3140   -7.2700 C.2    91  SER91       0.2288
     73  O          3.1780   -7.1210   -7.5710 O.2    91  SER91      -0.2866
     74  CB         4.5790   -9.8720   -8.5920 C.3    91  SER91       0.2089
     75  OG         5.3940   -8.7900   -9.0000 O.3    91  SER91      -0.2183
     76  N          5.6380   -8.5260   -4.7780 N.3    93  GLY93      -0.1210
     77  CA         7.0070   -8.4700   -4.2730 C.3    93  GLY93       0.1956
     78  C          7.9980   -7.7800   -5.1850 C.2    93  GLY93       0.2612
     79  O          9.1660   -7.5860   -4.8240 O.2    93  GLY93      -0.2717
     80  N          7.5360   -7.4250   -6.3790 N.am   94  GLY94      -0.1942
     81  CA         8.3500   -6.7020   -7.3310 C.3    94  GLY94       0.2014
     82  C          8.1960   -5.1980   -7.1850 C.2    94  GLY94       0.2639
     83  O          7.6890   -4.7160   -6.1710 O.2    94  GLY94      -0.2714
     84  N          8.6440   -4.4530   -8.1940 N.am   95  ALA95      -0.1963
     85  CA         8.6470   -2.9910   -8.1390 C.3    95  ALA95       0.1728
     86  C          7.6480   -2.3430   -9.0950 C.2    95  ALA95       0.2617
     87  O          6.9960   -1.3590   -8.7510 O.2    95  ALA95      -0.2715
     88  CB        10.0490   -2.4590   -8.4300 C.3    95  ALA95       0.0334
     89  N          7.5480   -2.8850  -10.3050 N.am   96  SER96      -0.1936
     90  CA         6.7880   -2.2320  -11.3610 C.3    96  SER96       0.2055
     91  C          5.3340   -2.6550  -11.3480 C.2    96  SER96       0.2643
     92  O          4.4370   -1.8110  -11.3930 O.2    96  SER96      -0.2714
     93  CB         7.4190   -2.5110  -12.7220 C.3    96  SER96       0.2130
     94  OG         8.7200   -1.9560  -12.7660 O.3    96  SER96      -0.2179
     95  N          5.0890   -3.9610  -11.2620 N.am   97  GLY97      -0.1954
     96  CA         3.7090   -4.4190  -11.2100 C.3    97  GLY97       0.1869
     97  C          3.0240   -3.9240   -9.9550 C.2    97  GLY97       0.2309
     98  O          1.8420   -3.5700   -9.9850 O.2    97  GLY97      -0.2863
     99  N          0.1760  -11.6640   -6.6770 N.3   120  ILE120     -0.1245
    100  CA         1.0730  -12.7180   -6.1860 C.3   120  ILE120      0.1561
    101  C          1.9430  -12.2250   -5.0310 C.2   120  ILE120      0.2260
    102  O          2.7360  -11.2890   -5.1940 O.2   120  ILE120     -0.2867
    103  CB         2.0070  -13.2430   -7.3110 C.3   120  ILE120      0.0252
    104  CG1        1.1870  -13.7080   -8.5190 C.3   120  ILE120      0.0019
    105  CG2        2.9000  -14.3790   -6.8020 C.3   120  ILE120      0.0019
    106  CD1        2.0000  -13.8840   -9.7970 C.3   120  ILE120      0.0001
    107  N          5.0330  -12.6440   -2.3240 N.3   122  SER122     -0.1217
    108  CA         6.3150  -13.3480   -2.2360 C.3   122  SER122      0.1889
    109  C          7.1740  -12.7700   -1.1230 C.2   122  SER122      0.2288
    110  O          6.9320  -11.6580   -0.6400 O.2   122  SER122     -0.2866
    111  CB         7.0620  -13.3380   -3.5800 C.3   122  SER122      0.2089
    112  OG         7.4710  -12.0290   -3.9580 O.3   122  SER122     -0.2183
    113  N         10.8820  -14.0310   -0.7800 N.3   124  ASP124     -0.1239
    114  CA        12.1460  -14.7730   -0.9230 C.3   124  ASP124      0.1674
    115  C         13.3680  -13.9880   -0.4680 C.2   124  ASP124      0.2266
    116  O         14.4810  -14.5220   -0.4490 O.2   124  ASP124     -0.2867
    117  CB        12.3390  -15.3120   -2.3570 C.3   124  ASP124      0.1410
    118  CG        12.5910  -14.2120   -3.3860 C.2   124  ASP124      0.3668
    119  OD1       12.1920  -13.0550   -3.1460 O.co2 124  ASP124     -0.2456
    120  OD2       13.1900  -14.5060   -4.4510 O.co2 124  ASP124     -0.2456
    121  N         11.9030   -8.2300   -1.1100 N.3   128  SER128     -0.1217
    122  CA        10.6310   -8.6610   -1.7010 C.3   128  SER128      0.1889
    123  C          9.5360   -8.7970   -0.6400 C.2   128  SER128      0.2288
    124  O          8.3510   -8.5650   -0.9160 O.2   128  SER128     -0.2866
    125  CB        10.7960   -9.9600   -2.4890 C.3   128  SER128      0.2089
    126  OG        11.1200  -11.0380   -1.6380 O.3   128  SER128     -0.2183
    127  N          3.3130  -17.1490   -3.6310 N.3   157  ASN157     -0.1240
    128  CA         4.4480  -17.9510   -4.0540 C.3   157  ASN157      0.1653
    129  C          5.0140  -18.5950   -2.7970 C.2   157  ASN157      0.2266
    130  O          5.9330  -18.0590   -2.1690 O.2   157  ASN157     -0.2867
    131  CB         5.5270  -17.0890   -4.7260 C.3   157  ASN157      0.1155
    132  CG         5.2810  -16.8800   -6.2200 C.2   157  ASN157      0.2627
    133  OD1        4.3950  -17.4970   -6.8160 O.2   157  ASN157     -0.2716
    134  ND2        6.0930  -16.0180   -6.8390 N.am  157  ASN157     -0.0877
    135  N          6.6040  -22.0650   -9.3090 N.3   163  GLN163     -0.1245
    136  CA         5.7320  -20.9620   -9.6980 C.3   163  GLN163      0.1566
    137  C          4.7600  -21.3800  -10.7970 C.2   163  GLN163      0.2260
    138  O          3.6760  -20.8040  -10.9260 O.2   163  GLN163     -0.2867
    139  CB         6.5490  -19.7400  -10.1130 C.3   163  GLN163      0.0367
    140  CG         7.2780  -19.0870   -8.9450 C.3   163  GLN163      0.0905
    141  CD         8.1440  -17.9270   -9.3740 C.2   163  GLN163      0.2608
    142  OE1        8.0860  -17.4840  -10.5230 O.2   163  GLN163     -0.2717
    143  NE2        8.9640  -17.4310   -8.4520 N.am  163  GLN163     -0.0878
    144  N          1.3730  -21.9830   -9.3390 N.3   166  VAL166     -0.1231
    145  CA         0.6970  -20.7240   -9.0700 C.3   166  VAL166      0.1692
    146  C          0.1780  -20.1170  -10.3740 C.2   166  VAL166      0.2592
    147  O         -0.9480  -19.6350  -10.4300 O.2   166  VAL166     -0.2718
    148  CB         1.6250  -19.7340   -8.3250 C.3   166  VAL166      0.0266
    149  CG1        0.9430  -18.3750   -8.1460 C.3   166  VAL166      0.0020
    150  CG2        2.0130  -20.3120   -6.9770 C.3   166  VAL166      0.0020
    151  N          0.9780  -20.1750  -11.4340 N.am  167  ASN167     -0.1974
    152  CA         0.5490  -19.6320  -12.7200 C.3   167  ASN167      0.1688
    153  C         -0.6890  -20.3330  -13.2450 C.2   167  ASN167      0.2292
    154  O         -1.6070  -19.6980  -13.7680 O.2   167  ASN167     -0.2864
    155  CB         1.6730  -19.7220  -13.7510 C.3   167  ASN167      0.1181
    156  CG         2.8550  -18.8820  -13.3770 C.2   167  ASN167      0.2629
    157  OD1        2.7660  -18.0540  -12.4770 O.2   167  ASN167     -0.2716
    158  ND2        3.9760  -19.0820  -14.0630 N.am  167  ASN167     -0.0877
@<TRIPOS>BOND
     1    43    44    2
     2    43    42    1
     3    41    42    1
     4    42    45    1
     5    45    46    1
     6    28    27    2
     7    17    16    2
     8    36    35    2
     9    33    34    1
    10    37    34    1
    11    37    38    1
    12    27    26    1
    13    15    16    1
    14    15    14    1
    15    15    18    1
    16    16    25   am
    17    46    47    2
    18    46    48   am
    19    35    34    1
    20    40    38   ar
    21    38    39   ar
    22    19    18    1
    23    19    20    1
    24    25    26    1
    25    26    29    1
    26    21    20    1
    27    21    22    2
    28     8     7    2
    29     4     3    2
    30    31    29    1
    31    29    30    1
    32    24    22    1
    33    22    23    1
    34     6     7    1
    35     6     5    1
    36     3     5   am
    37     3     2    1
    38     1     2    1
    39     7     9   am
    40    12    11    2
    41    30    32    1
    42    11    10    1
    43   158   156   am
    44   154   153    2
    45     9    10    1
    46   155   156    1
    47   155   152    1
    48    10    13    1
    49   156   157    2
    50   153   152    1
    51    56    55    1
    52    94    93    1
    53    49    50    1
    54    93    90    1
    55   152   151    1
    56    54    55    1
    57    54    53    1
    58    50    53    1
    59    50    51    1
    60   151   146   am
    61    92    91    2
    62    90    91    1
    63    90    89    1
    64    91    95   am
    65    95    96    1
    66    96    97    1
    67   138   137    2
    68   137   136    1
    69    57    51   am
    70    57    58    1
    71   142   141    2
    72    51    52    2
    73   147   146    2
    74   146   145    1
    75    89    86   am
    76   139   136    1
    77   139   140    1
    78    98    97    2
    79    58    59    1
    80   106   104    1
    81   136   135    1
    82    70    71    1
    83   141   140    1
    84   141   143   am
    85   144   145    1
    86    86    87    2
    87    86    85    1
    88   145   148    1
    89    75    74    1
    90    74    71    1
    91   104   103    1
    92    88    85    1
    93    59    61   am
    94    59    60    2
    95    71    72    1
    96   148   149    1
    97   148   150    1
    98    61    62    1
    99    84    85    1
   100    84    82   am
   101    69    68    1
   102    73    72    2
   103    81    82    1
   104    81    80    1
   105   103   105    1
   106   103   100    1
   107    82    83    2
   108    62    65    1
   109    62    63    1
   110   134   132   am
   111   133   132    2
   112    66    65    1
   113    66    67    1
   114    99   100    1
   115    68    67    1
   116    80    78   am
   117   132   131    1
   118   100   101    1
   119    63    64    2
   120   102   101    2
   121    78    79    2
   122    78    77    1
   123    76    77    1
   124   131   128    1
   125   120   118   ar
   126   128   127    1
   127   128   129    1
   128   112   111    1
   129   111   108    1
   130   118   119   ar
   131   118   117    1
   132   129   130    2
   133   125   122    1
   134   125   126    1
   135   117   114    1
   136   107   108    1
   137   108   109    1
   138   122   121    1
   139   122   123    1
   140   109   110    2
   141   114   113    1
   142   114   115    1
   143   124   123    2
   144   115   116    2
