@<TRIPOS>MOLECULE
tmp/3zbrB00.pdb
 137 133 0 0 0
SMALL
GASTEIGER

@<TRIPOS>ATOM
      1  N         31.0950  -17.4320   -4.9740 N.3     7  LEU7       -0.1231
      2  CA        31.3430  -18.7030   -4.3120 C.3     7  LEU7        0.1693
      3  C         30.9920  -18.5860   -2.8340 C.2     7  LEU7        0.2592
      4  O         30.3890  -19.4940   -2.2680 O.2     7  LEU7       -0.2718
      5  CB        32.8090  -19.1050   -4.4690 C.3     7  LEU7        0.0284
      6  CG        33.2320  -20.4110   -3.7940 C.3     7  LEU7        0.0019
      7  CD1       32.4300  -21.5880   -4.3320 C.3     7  LEU7        0.0001
      8  CD2       34.7250  -20.6460   -3.9820 C.3     7  LEU7        0.0001
      9  N         31.3850  -17.4810   -2.2010 N.am    8  TYR8       -0.1976
     10  CA        30.9970  -17.2420   -0.8120 C.3     8  TYR8        0.1639
     11  C         31.1370  -15.7710   -0.4220 C.2     8  TYR8        0.2290
     12  O         31.8800  -15.0200   -1.0510 O.2     8  TYR8       -0.2864
     13  CB        31.8370  -18.0950    0.1400 C.3     8  TYR8        0.0560
     14  CG        33.2310  -17.5590    0.3880 C.ar    8  TYR8       -0.0198
     15  CD1       34.2820  -17.8390   -0.4750 C.ar    8  TYR8       -0.0009
     16  CD2       33.4940  -16.7760    1.5040 C.ar    8  TYR8       -0.0009
     17  CE1       35.5550  -17.3440   -0.2310 C.ar    8  TYR8        0.0417
     18  CE2       34.7520  -16.2820    1.7560 C.ar    8  TYR8        0.0417
     19  CZ        35.7790  -16.5670    0.8880 C.ar    8  TYR8        0.1957
     20  OH        37.0340  -16.0690    1.1460 O.3     8  TYR8       -0.2866
     21  N         45.4110  -21.5430    3.1980 N.3    61  PRO61      -0.2103
     22  CA        44.9330  -20.4910    2.2930 C.3    61  PRO61       0.1489
     23  C         46.1200  -19.7590    1.6620 C.2    61  PRO61       0.2418
     24  O         46.9560  -19.2260    2.3930 O.2    61  PRO61      -0.2734
     25  CB        44.1390  -19.5660    3.2180 C.3    61  PRO61       0.0282
     26  CG        43.6980  -20.4440    4.3350 C.3    61  PRO61       0.0208
     27  CD        44.8140  -21.4300    4.5400 C.3    61  PRO61       0.0893
     28  N         46.1920  -19.7360    0.3200 N.am   62  PRO62      -0.2718
     29  CA        47.3350  -19.2120   -0.4410 C.3    62  PRO62       0.1535
     30  C         47.8790  -17.8530    0.0120 C.2    62  PRO62       0.2599
     31  O         49.0530  -17.7660    0.3780 O.2    62  PRO62      -0.2715
     32  CB        46.7720  -19.0950   -1.8600 C.3    62  PRO62       0.0310
     33  CG        45.7630  -20.1680   -1.9430 C.3    62  PRO62       0.0237
     34  CD        45.1420  -20.2600   -0.5730 C.3    62  PRO62       0.0939
     35  N         47.0440  -16.8180   -0.0080 N.am   63  GLY63      -0.1941
     36  CA        47.5030  -15.4670    0.2640 C.3    63  GLY63       0.2014
     37  C         46.7710  -14.8080    1.4150 C.2    63  GLY63       0.2638
     38  O         47.0710  -15.0740    2.5800 O.2    63  GLY63      -0.2714
     39  N         45.8120  -13.9430    1.0970 N.am   64  VAL64      -0.1977
     40  CA        45.1000  -13.2070    2.1330 C.3    64  VAL64       0.1596
     41  C         43.9940  -14.0720    2.7350 C.2    64  VAL64       0.2287
     42  O         43.3090  -14.8010    2.0220 O.2    64  VAL64      -0.2864
     43  CB        44.5160  -11.8810    1.5910 C.3    64  VAL64       0.0276
     44  CG1       45.6020  -11.0580    0.9080 C.3    64  VAL64       0.0022
     45  CG2       43.3490  -12.1330    0.6390 C.3    64  VAL64       0.0022
     46  N         40.5110  -15.0210    5.2090 N.3    66  SER66      -0.1217
     47  CA        39.1290  -14.5630    5.1860 C.3    66  SER66       0.1889
     48  C         38.2570  -15.2780    6.2110 C.2    66  SER66       0.2288
     49  O         38.4750  -16.4470    6.5220 O.2    66  SER66      -0.2866
     50  CB        38.5370  -14.7910    3.7960 C.3    66  SER66       0.2089
     51  OG        38.4270  -16.1790    3.5280 O.3    66  SER66      -0.2183
     52  N         34.4750  -16.4970    6.5890 N.3    68  THR68      -0.1203
     53  CA        33.2980  -16.7650    5.7760 C.3    68  THR68       0.1994
     54  C         32.0030  -16.5880    6.5620 C.2    68  THR68       0.2618
     55  O         31.9140  -16.9840    7.7240 O.2    68  THR68      -0.2717
     56  CB        33.3450  -18.2050    5.2400 C.3    68  THR68       0.1784
     57  OG1       34.5410  -18.3920    4.4690 O.3    68  THR68      -0.2211
     58  CG2       32.1340  -18.5050    4.3800 C.3    68  THR68       0.0376
     59  N         31.0070  -15.9780    5.9240 N.am   69  THR69      -0.1952
     60  CA        29.6560  -15.9060    6.4810 C.3    69  THR69       0.1897
     61  C         28.7380  -16.8950    5.7760 C.2    69  THR69       0.2313
     62  O         28.1640  -17.7810    6.4110 O.2    69  THR69      -0.2863
     63  CB        29.0330  -14.5020    6.3420 C.3    69  THR69       0.1794
     64  OG1       29.0350  -14.1140    4.9620 O.3    69  THR69      -0.2208
     65  CG2       29.8050  -13.4800    7.1530 C.3    69  THR69       0.0378
     66  N         28.4380  -19.5200    2.4300 N.3    71  PHE71      -0.1241
     67  CA        28.8440  -20.2570    1.2420 C.3    71  PHE71       0.1605
     68  C         27.6400  -20.3970    0.3170 C.2    71  PHE71       0.2264
     69  O         26.6420  -21.0230    0.6760 O.2    71  PHE71      -0.2867
     70  CB        29.3780  -21.6370    1.6320 C.3    71  PHE71       0.0534
     71  CG        29.7780  -22.4900    0.4610 C.ar   71  PHE71      -0.0203
     72  CD1       30.9560  -22.2420   -0.2240 C.ar   71  PHE71      -0.0042
     73  CD2       28.9780  -23.5420    0.0490 C.ar   71  PHE71      -0.0042
     74  CE1       31.3250  -23.0240   -1.3010 C.ar   71  PHE71      -0.0003
     75  CE2       29.3440  -24.3280   -1.0260 C.ar   71  PHE71      -0.0003
     76  CZ        30.5200  -24.0690   -1.7020 C.ar   71  PHE71      -0.0000
     77  N         30.5330  -20.7120   14.5790 N.3   140  ARG140     -0.1245
     78  CA        31.3560  -21.2330   13.4920 C.3   140  ARG140      0.1563
     79  C         32.3910  -20.2420   12.9780 C.2   140  ARG140      0.2260
     80  O         33.4180  -20.6450   12.4320 O.2   140  ARG140     -0.2867
     81  CB        30.4650  -21.6420   12.3230 C.3   140  ARG140      0.0307
     82  CG        31.2350  -22.2220   11.1540 C.3   140  ARG140      0.0489
     83  CD        30.3310  -22.5330    9.9780 C.3   140  ARG140      0.2205
     84  NE        30.7860  -23.7190    9.2600 N.pl3 140  ARG140     -0.0865
     85  CZ        30.0670  -24.8140    9.0400 C.cat 140  ARG140      0.5346
     86  NH1       28.8160  -24.9200    9.4690 N.pl3 140  ARG140      0.1354
     87  NH2       30.6140  -25.8150    8.3710 N.pl3 140  ARG140      0.1354
     88  N         35.2740  -18.3060   11.8460 N.3   142  HIS142     -0.1241
     89  CA        36.6700  -18.6790   11.9880 C.3   142  HIS142      0.1621
     90  C         37.4840  -18.1500   10.8180 C.2   142  HIS142      0.2264
     91  O         36.9540  -17.5080    9.9130 O.2   142  HIS142     -0.2867
     92  CB        36.8040  -20.2050   12.0450 C.3   142  HIS142      0.0745
     93  CG        36.4900  -20.8870   10.7500 C.ar  142  HIS142      0.0817
     94  ND1       35.2300  -21.3650   10.4400 N.ar  142  HIS142     -0.2268
     95  CD2       37.2690  -21.1720    9.6810 C.ar  142  HIS142      0.1154
     96  CE1       35.2520  -21.9100    9.2400 C.ar  142  HIS142      0.1986
     97  NE2       36.4780  -21.8080    8.7550 N.ar  142  HIS142     -0.2212
     98  N         40.5260  -20.0520    8.3760 N.3   144  THR144     -0.1218
     99  CA        41.2860  -21.2700    8.1420 C.3   144  THR144      0.1862
    100  C         42.7600  -20.9350    7.9350 C.2   144  THR144      0.2287
    101  O         43.1000  -20.0230    7.1860 O.2   144  THR144     -0.2866
    102  CB        40.7410  -22.0370    6.9200 C.3   144  THR144      0.1770
    103  OG1       39.3680  -22.3900    7.1460 O.3   144  THR144     -0.2211
    104  CG2       41.5560  -23.2960    6.6620 C.3   144  THR144      0.0375
    105  N         37.1410  -28.9250    2.8830 N.3   153  PRO153     -0.2102
    106  CA        37.2080  -27.4670    3.0560 C.3   153  PRO153      0.1504
    107  C         36.3610  -26.9570    4.2140 C.2   153  PRO153      0.2575
    108  O         36.7760  -26.0610    4.9480 O.2   153  PRO153     -0.2718
    109  CB        36.6560  -26.9360    1.7310 C.3   153  PRO153      0.0282
    110  CG        36.9700  -28.0000    0.7440 C.3   153  PRO153      0.0208
    111  CD        36.8760  -29.3020    1.4830 C.3   153  PRO153      0.0893
    112  N         35.1780  -27.5400    4.3620 N.am  154  VAL154     -0.1980
    113  CA        34.2030  -27.0940    5.3470 C.3   154  VAL154      0.1595
    114  C         34.5950  -27.5120    6.7590 C.2   154  VAL154      0.2287
    115  O         34.2040  -26.8750    7.7390 O.2   154  VAL154     -0.2864
    116  CB        32.8020  -27.6560    5.0320 C.3   154  VAL154      0.0276
    117  CG1       32.7880  -29.1710    5.1710 C.3   154  VAL154      0.0022
    118  CG2       31.7610  -27.0350    5.9410 C.3   154  VAL154      0.0022
    119  N         36.8660  -27.2360    8.8190 N.3   156  THR156     -0.1218
    120  CA        37.4560  -26.3140    9.7870 C.3   156  THR156      0.1862
    121  C         36.4030  -25.7450   10.7390 C.2   156  THR156      0.2287
    122  O         36.6410  -25.6440   11.9430 O.2   156  THR156     -0.2866
    123  CB        38.1940  -25.1460    9.0990 C.3   156  THR156      0.1770
    124  OG1       39.1640  -25.6570    8.1770 O.3   156  THR156     -0.2211
    125  CG2       38.9040  -24.2780   10.1330 C.3   156  THR156      0.0375
    126  N         33.4900  -13.6130   -3.1080 N.3   209  TYR209     -0.1241
    127  CA        34.5300  -14.2540   -3.9030 C.3   209  TYR209      0.1605
    128  C         33.9100  -15.1710   -4.9560 C.2   209  TYR209      0.2264
    129  O         33.0080  -15.9480   -4.6510 O.2   209  TYR209     -0.2867
    130  CB        35.4830  -15.0420   -3.0000 C.3   209  TYR209      0.0534
    131  CG        36.5660  -15.7890   -3.7480 C.ar  209  TYR209     -0.0201
    132  CD1       37.7470  -15.1560   -4.1010 C.ar  209  TYR209     -0.0009
    133  CD2       36.4100  -17.1200   -4.0970 C.ar  209  TYR209     -0.0009
    134  CE1       38.7390  -15.8240   -4.7830 C.ar  209  TYR209      0.0417
    135  CE2       37.4010  -17.7990   -4.7820 C.ar  209  TYR209      0.0417
    136  CZ        38.5650  -17.1460   -5.1210 C.ar  209  TYR209      0.1957
    137  OH        39.5570  -17.8160   -5.8050 O.3   209  TYR209     -0.2866
@<TRIPOS>BOND
     1   137   136    1
     2   136   134   ar
     3   136   135   ar
     4     1     2    1
     5   128   129    2
     6   128   127    1
     7   134   132   ar
     8   135   133   ar
     9     5     2    1
    10     5     6    1
    11     7     6    1
    12     2     3    1
    13   132   131   ar
    14   133   131   ar
    15     8     6    1
    16   127   126    1
    17   127   130    1
    18   131   130    1
    19     3     4    2
    20     3     9   am
    21     9    10    1
    22    33    32    1
    23    33    34    1
    24    32    29    1
    25    76    74   ar
    26    76    75   ar
    27    74    72   ar
    28    12    11    2
    29    75    73   ar
    30    10    11    1
    31    10    13    1
    32    34    28    1
    33    15    17   ar
    34    15    14   ar
    35    29    30    1
    36    29    28    1
    37    17    19   ar
    38    72    71   ar
    39    35    30   am
    40    35    36    1
    41    30    31    2
    42    73    71   ar
    43    13    14    1
    44    36    37    1
    45    68    69    2
    46    68    67    1
    47    28    23   am
    48    14    16   ar
    49    71    70    1
    50    45    43    1
    51   110   111    1
    52   110   109    1
    53    19    20    1
    54    19    18   ar
    55    44    43    1
    56    39    37   am
    57    39    40    1
    58    67    70    1
    59    67    66    1
    60    37    38    2
    61   111   105    1
    62    16    18   ar
    63    43    40    1
    64    23    22    1
    65    23    24    2
    66   109   106    1
    67    42    41    2
    68    40    41    1
    69    22    21    1
    70    22    25    1
    71   105   106    1
    72   106   107    1
    73    21    27    1
    74    25    26    1
    75    51    50    1
    76    50    47    1
    77   107   112   am
    78   107   108    2
    79    26    27    1
    80   112   113    1
    81    58    56    1
    82    57    56    1
    83    64    63    1
    84   116   117    1
    85   116   113    1
    86   116   118    1
    87    47    46    1
    88    47    48    1
    89    56    53    1
    90   113   114    1
    91    61    62    2
    92    61    60    1
    93    53    54    1
    94    53    52    1
    95    59    60    1
    96    59    54   am
    97    48    49    2
    98    63    60    1
    99    63    65    1
   100    54    55    2
   101   104   102    1
   102   114   115    2
   103   102   103    1
   104   102    99    1
   105   101   100    2
   106   100    99    1
   107    99    98    1
   108   124   123    1
   109    87    85    1
   110    97    96   ar
   111    97    95   ar
   112   119   120    1
   113    85    84    2
   114    85    86    1
   115   123   120    1
   116   123   125    1
   117    96    94   ar
   118    84    83    1
   119    95    93   ar
   120   120   121    1
   121    91    90    2
   122    83    82    1
   123    94    93   ar
   124   121   122    2
   125    93    92    1
   126    90    89    1
   127    82    81    1
   128    88    89    1
   129    89    92    1
   130    81    78    1
   131    80    79    2
   132    79    78    1
   133    78    77    1
