@<TRIPOS>MOLECULE
tmp/3zbyB01.pdb
 108 102 0 0 0
SMALL
GASTEIGER

@<TRIPOS>ATOM
      1  N        -51.6790   25.9430 -122.9240 N.3    72  PRO72      -0.2116
      2  CA       -50.2270   25.8110 -123.0960 C.3    72  PRO72       0.1372
      3  C        -49.4990   26.9530 -122.3900 C.2    72  PRO72       0.2244
      4  O        -50.1630   27.8430 -121.8370 O.2    72  PRO72      -0.2868
      5  CB       -50.0340   25.8870 -124.6460 C.3    72  PRO72       0.0268
      6  CG       -51.0940   26.8650 -125.0780 C.3    72  PRO72       0.0207
      7  CD       -52.3210   26.5360 -124.1230 C.3    72  PRO72       0.0892
      8  N        -45.0870   33.0100 -122.9340 N.3    75  PRO75      -0.2116
      9  CA       -43.6490   33.3120 -122.9080 C.3    75  PRO75       0.1372
     10  C        -43.2420   34.2710 -121.7950 C.2    75  PRO75       0.2244
     11  O        -42.7570   35.3550 -122.0690 O.2    75  PRO75      -0.2868
     12  CB       -43.3970   33.8750 -124.2830 C.3    75  PRO75       0.0268
     13  CG       -44.7050   34.3020 -124.7740 C.3    75  PRO75       0.0207
     14  CD       -45.7320   33.4910 -124.1760 C.3    75  PRO75       0.0892
     15  N        -34.2400   34.8250 -116.8310 N.3    88  ARG88      -0.1245
     16  CA       -35.3690   35.7310 -116.9600 C.3    88  ARG88       0.1563
     17  C        -35.7460   36.2510 -115.5410 C.2    88  ARG88       0.2260
     18  O        -35.9130   37.4580 -115.3270 O.2    88  ARG88      -0.2867
     19  CB       -36.5380   35.0040 -117.6090 C.3    88  ARG88       0.0307
     20  CG       -37.7990   35.9290 -117.7530 C.3    88  ARG88       0.0489
     21  CD       -37.4710   37.1330 -118.6690 C.3    88  ARG88       0.2205
     22  NE       -37.1720   36.7260 -120.0160 N.pl3  88  ARG88      -0.0865
     23  CZ       -38.0810   36.3760 -120.9310 C.cat  88  ARG88       0.5346
     24  NH1      -39.3880   36.3890 -120.6720 N.pl3  88  ARG88       0.1354
     25  NH2      -37.6540   35.9400 -122.1100 N.pl3  88  ARG88       0.1354
     26  N        -61.7930   34.1940 -130.2720 N.3   174  ILE174     -0.1245
     27  CA       -60.3790   34.1750 -130.6740 C.3   174  ILE174      0.1561
     28  C        -60.0610   35.6100 -131.0620 C.2   174  ILE174      0.2260
     29  O        -59.0980   36.1870 -130.5840 O.2   174  ILE174     -0.2867
     30  CB       -60.1060   33.2980 -131.9860 C.3   174  ILE174      0.0252
     31  CG1      -60.3550   31.7860 -131.7730 C.3   174  ILE174      0.0019
     32  CG2      -58.6530   33.5980 -132.6310 C.3   174  ILE174      0.0019
     33  CD1      -59.7740   31.2640 -130.5040 C.3   174  ILE174      0.0001
     34  N        -57.3510   38.2700 -129.4280 N.3   178  MET178     -0.1245
     35  CA       -56.2750   38.8340 -130.2610 C.3   178  MET178      0.1570
     36  C        -56.2970   40.3750 -130.2630 C.2   178  MET178      0.2261
     37  O        -55.2380   41.0030 -130.1880 O.2   178  MET178     -0.2867
     38  CB       -56.2810   38.3040 -131.7360 C.3   178  MET178      0.0387
     39  CG       -55.6870   36.8650 -131.9740 C.3   178  MET178      0.0595
     40  SD       -54.5760   35.9870 -130.8180 S.3   178  MET178     -0.1393
     41  CE       -53.2300   37.1330 -130.4410 C.3   178  MET178      0.0692
     42  N        -54.9540   41.6010 -126.9120 N.3   181  PHE181     -0.1227
     43  CA       -53.5560   41.4210 -126.8460 C.3   181  PHE181      0.1736
     44  C        -52.8510   42.5080 -127.6650 C.2   181  PHE181      0.2595
     45  O        -51.8660   43.0780 -127.1720 O.2   181  PHE181     -0.2718
     46  CB       -53.1430   40.0350 -127.3020 C.3   181  PHE181      0.0547
     47  CG       -51.6990   39.8490 -127.2330 C.ar  181  PHE181     -0.0202
     48  CD1      -51.0770   39.7750 -125.9650 C.ar  181  PHE181     -0.0042
     49  CD2      -50.9220   39.8450 -128.4170 C.ar  181  PHE181     -0.0042
     50  CE1      -49.7080   39.6660 -125.8500 C.ar  181  PHE181     -0.0003
     51  CE2      -49.5330   39.7180 -128.3360 C.ar  181  PHE181     -0.0003
     52  CZ       -48.9200   39.6000 -127.0320 C.ar  181  PHE181     -0.0000
     53  N        -53.3460   42.8010 -128.8690 N.am  182  ALA182     -0.1980
     54  CA       -52.7730   43.8400 -129.6850 C.3   182  ALA182      0.1597
     55  C        -52.8410   45.2170 -128.9480 C.2   182  ALA182      0.2287
     56  O        -51.8780   46.0000 -128.9680 O.2   182  ALA182     -0.2864
     57  CB       -53.4870   43.9390 -131.0840 C.3   182  ALA182      0.0319
     58  N        -50.3430   45.2980 -125.9740 N.3   185  THR185     -0.1218
     59  CA       -48.9860   45.3340 -126.4340 C.3   185  THR185      0.1862
     60  C        -48.6160   46.7040 -127.0030 C.2   185  THR185      0.2287
     61  O        -47.5600   47.2280 -126.7190 O.2   185  THR185     -0.2866
     62  CB       -48.7560   44.2530 -127.5920 C.3   185  THR185      0.1770
     63  OG1      -48.8570   42.9590 -127.0090 O.3   185  THR185     -0.2211
     64  CG2      -47.3850   44.4060 -128.1430 C.3   185  THR185      0.0375
     65  N        -45.7020   48.8730 -125.2780 N.3   189  LYS189     -0.1245
     66  CA       -44.5330   49.1580 -126.0600 C.3   189  LYS189      0.1561
     67  C        -44.3200   50.6580 -126.1770 C.2   189  LYS189      0.2260
     68  O        -43.1770   51.1090 -126.1730 O.2   189  LYS189     -0.2867
     69  CB       -44.6540   48.5480 -127.4800 C.3   189  LYS189      0.0271
     70  CG       -44.3270   47.0520 -127.5230 C.3   189  LYS189      0.0035
     71  CD       -44.3060   46.5180 -128.9790 C.3   189  LYS189      0.0206
     72  CE       -43.6820   45.0960 -128.9540 C.3   189  LYS189      0.1093
     73  NZ       -43.5840   44.3120 -130.2730 N.3   189  LYS189     -0.1314
     74  N        -40.2960   43.0790 -126.1680 N.3   220  ASP220     -0.1225
     75  CA       -41.3310   42.0420 -126.1770 C.3   220  ASP220      0.1805
     76  C        -41.2930   41.2910 -124.8820 C.2   220  ASP220      0.2597
     77  O        -42.3560   40.8730 -124.3300 O.2   220  ASP220     -0.2718
     78  CB       -41.1270   41.0670 -127.3430 C.3   220  ASP220      0.1424
     79  CG       -41.4490   41.6950 -128.6630 C.2   220  ASP220      0.3668
     80  OD1      -42.3480   42.5750 -128.6940 O.co2 220  ASP220     -0.2456
     81  OD2      -40.7810   41.3460 -129.6980 O.co2 220  ASP220     -0.2456
     82  N        -40.0670   41.0530 -124.3960 N.am  221  GLU221     -0.1979
     83  CA       -39.9280   40.3690 -123.0770 C.3   221  GLU221      0.1602
     84  C        -40.4800   41.1920 -121.9470 C.2   221  GLU221      0.2287
     85  O        -41.0750   40.6720 -121.0620 O.2   221  GLU221     -0.2864
     86  CB       -38.4690   39.9520 -122.8090 C.3   221  GLU221      0.0415
     87  CG       -38.0150   38.8820 -123.8090 C.3   221  GLU221      0.1163
     88  CD       -36.4990   38.7460 -123.9120 C.2   221  GLU221      0.3649
     89  OE1      -35.7220   39.5990 -123.3860 O.co2 221  GLU221     -0.2457
     90  OE2      -36.0920   37.8030 -124.6130 O.co2 221  GLU221     -0.2457
     91  N        -42.9020   43.3760 -122.1680 N.3   223  VAL223     -0.1231
     92  CA       -44.3350   43.3230 -122.3700 C.3   223  VAL223      0.1692
     93  C        -44.9180   42.0890 -121.6970 C.2   223  VAL223      0.2592
     94  O        -45.8840   42.1960 -120.9370 O.2   223  VAL223     -0.2718
     95  CB       -44.6370   43.3460 -123.8830 C.3   223  VAL223      0.0266
     96  CG1      -46.0380   42.8400 -124.1220 C.3   223  VAL223      0.0020
     97  CG2      -44.4280   44.7990 -124.4410 C.3   223  VAL223      0.0020
     98  N        -44.2990   40.9110 -121.9440 N.am  224  PHE224     -0.1976
     99  CA       -44.7930   39.6910 -121.2880 C.3   224  PHE224      0.1639
    100  C        -44.6040   39.6230 -119.7830 C.2   224  PHE224      0.2290
    101  O        -45.5060   39.1670 -119.0550 O.2   224  PHE224     -0.2864
    102  CB       -44.2290   38.4300 -121.9780 C.3   224  PHE224      0.0560
    103  CG       -44.9300   38.1160 -123.2530 C.ar  224  PHE224     -0.0200
    104  CD1      -46.2470   37.6050 -123.2410 C.ar  224  PHE224     -0.0042
    105  CD2      -44.3070   38.3150 -124.4570 C.ar  224  PHE224     -0.0042
    106  CE1      -46.9050   37.3920 -124.4560 C.ar  224  PHE224     -0.0003
    107  CE2      -44.9550   37.9990 -125.6890 C.ar  224  PHE224     -0.0003
    108  CZ       -46.2370   37.5500 -125.6650 C.ar  224  PHE224     -0.0000
@<TRIPOS>BOND
     1    32    30    1
     2    30    31    1
     3    30    27    1
     4    39    38    1
     5    39    40    1
     6    31    33    1
     7    38    35    1
     8    57    54    1
     9    28    27    1
    10    28    29    2
    11    40    41    1
    12    27    26    1
    13    73    72    1
    14    36    35    1
    15    36    37    2
    16    35    34    1
    17    81    79   ar
    18    54    55    1
    19    54    53    1
    20    71    72    1
    21    71    70    1
    22    56    55    2
    23    53    44   am
    24    80    79   ar
    25    79    78    1
    26    49    51   ar
    27    49    47   ar
    28    51    52   ar
    29    64    62    1
    30    44    45    2
    31    44    43    1
    32    62    63    1
    33    62    59    1
    34    70    69    1
    35    69    66    1
    36    78    75    1
    37    46    47    1
    38    46    43    1
    39    47    48   ar
    40    52    50   ar
    41    60    61    2
    42    60    59    1
    43    42    43    1
    44    59    58    1
    45    75    74    1
    46    75    76    1
    47    67    68    2
    48    67    66    1
    49    66    65    1
    50    48    50   ar
    51   107   108   ar
    52   107   105   ar
    53   108   106   ar
    54     6     5    1
    55     6     7    1
    56    76    82   am
    57    76    77    2
    58    13    12    1
    59    13    14    1
    60     5     2    1
    61    90    88   ar
    62   105   103   ar
    63   106   104   ar
    64    97    95    1
    65    82    83    1
    66    12     9    1
    67    14     8    1
    68     7     1    1
    69    96    95    1
    70    88    87    1
    71    88    89   ar
    72    95    92    1
    73    87    86    1
    74   103   104   ar
    75   103   102    1
    76     2     1    1
    77     2     3    1
    78    83    86    1
    79    83    84    1
    80     8     9    1
    81     9    10    1
    82     3     4    2
    83    92    91    1
    84    92    93    1
    85    25    23    1
    86    11    10    2
    87   102    99    1
    88    84    85    2
    89    98    93   am
    90    98    99    1
    91    93    94    2
    92    99   100    1
    93    23    24    1
    94    23    22    2
    95    22    21    1
    96   100   101    2
    97    21    20    1
    98    20    19    1
    99    19    16    1
   100    16    15    1
   101    16    17    1
   102    17    18    2
