@<TRIPOS>MOLECULE
tmp/3zbyE01.pdb
 90 85 0 0 0
SMALL
GASTEIGER

@<TRIPOS>ATOM
      1  N        -64.2970   -0.3800  -54.5700 N.3    75  PRO75      -0.2116
      2  CA       -63.8980   -1.7810  -54.6450 C.3    75  PRO75       0.1372
      3  C        -64.4920   -2.5770  -55.8170 C.2    75  PRO75       0.2244
      4  O        -65.1670   -3.5810  -55.5960 O.2    75  PRO75      -0.2868
      5  CB       -64.3960   -2.3460  -53.3310 C.3    75  PRO75       0.0268
      6  CG       -65.2500   -1.2550  -52.6570 C.3    75  PRO75       0.0207
      7  CD       -65.2620   -0.0950  -53.4810 C.3    75  PRO75       0.0892
      8  N        -73.7190   13.5250  -47.4280 N.3   174  ILE174     -0.1245
      9  CA       -73.0250   12.2820  -47.0280 C.3   174  ILE174      0.1561
     10  C        -74.1100   11.2810  -46.6120 C.2   174  ILE174      0.2260
     11  O        -74.1460   10.1370  -47.0750 O.2   174  ILE174     -0.2867
     12  CB       -72.0610   12.4940  -45.7650 C.3   174  ILE174      0.0252
     13  CG1      -70.7150   13.1560  -46.1000 C.3   174  ILE174      0.0019
     14  CG2      -71.7570   11.1470  -45.0260 C.3   174  ILE174      0.0019
     15  CD1      -70.5810   13.6110  -47.5180 C.3   174  ILE174      0.0001
     16  N        -75.0390    7.5800  -48.1600 N.3   178  MET178     -0.1245
     17  CA       -75.0010    6.3410  -47.3630 C.3   178  MET178      0.1570
     18  C        -76.3910    5.6920  -47.3480 C.2   178  MET178      0.2261
     19  O        -76.4970    4.4690  -47.4360 O.2   178  MET178     -0.2867
     20  CB       -74.4940    6.5640  -45.9010 C.3   178  MET178      0.0387
     21  CG       -73.0200    7.0350  -45.7640 C.3   178  MET178      0.0595
     22  SD       -71.6610    6.1470  -46.6330 S.3   178  MET178     -0.1393
     23  CE       -71.3050    6.9090  -48.1840 C.3   178  MET178      0.0692
     24  N        -76.7300    3.8830  -50.6690 N.3   181  PHE181     -0.1227
     25  CA       -75.8760    2.7480  -50.8320 C.3   181  PHE181      0.1736
     26  C        -76.4630    1.6110  -49.9820 C.2   181  PHE181      0.2595
     27  O        -76.4500    0.4660  -50.4240 O.2   181  PHE181     -0.2718
     28  CB       -74.4630    3.0460  -50.4510 C.3   181  PHE181      0.0547
     29  CG       -73.6060    1.8570  -50.5130 C.ar  181  PHE181     -0.0202
     30  CD1      -73.2990    1.2860  -51.7490 C.ar  181  PHE181     -0.0042
     31  CD2      -73.1330    1.2570  -49.3200 C.ar  181  PHE181     -0.0042
     32  CE1      -72.5330    0.1220  -51.8310 C.ar  181  PHE181     -0.0003
     33  CE2      -72.3220    0.0940  -49.3770 C.ar  181  PHE181     -0.0003
     34  CZ       -72.0070   -0.4580  -50.6600 C.ar  181  PHE181     -0.0000
     35  N        -77.0020    1.9240  -48.8170 N.am  182  ALA182     -0.1980
     36  CA       -77.6230    0.8950  -47.9780 C.3   182  ALA182      0.1597
     37  C        -78.8180    0.2640  -48.7390 C.2   182  ALA182      0.2287
     38  O        -78.9680   -0.9780  -48.7840 O.2   182  ALA182     -0.2864
     39  CB       -78.0870    1.4680  -46.6200 C.3   182  ALA182      0.0319
     40  N        -77.5790   -1.9510  -51.6780 N.3   185  THR185     -0.1218
     41  CA       -76.9400   -3.1420  -51.1970 C.3   185  THR185      0.1862
     42  C        -77.9320   -4.0990  -50.6970 C.2   185  THR185      0.2287
     43  O        -77.8310   -5.2910  -50.9470 O.2   185  THR185     -0.2866
     44  CB       -75.9070   -2.8110  -50.0390 C.3   185  THR185      0.1770
     45  OG1      -74.8990   -1.9840  -50.6330 O.3   185  THR185     -0.2211
     46  CG2      -75.2590   -4.0580  -49.5500 C.3   185  THR185      0.0375
     47  N        -78.3760   -7.7300  -52.2760 N.3   189  LYS189     -0.1245
     48  CA       -78.0050   -8.8920  -51.5000 C.3   189  LYS189      0.1561
     49  C        -79.2440   -9.7900  -51.4210 C.2   189  LYS189      0.2260
     50  O        -79.1220  -10.9960  -51.4900 O.2   189  LYS189     -0.2867
     51  CB       -77.5370   -8.5070  -50.0760 C.3   189  LYS189      0.0271
     52  CG       -76.0960   -7.9510  -50.0170 C.3   189  LYS189      0.0035
     53  CD       -75.5760   -7.8780  -48.5240 C.3   189  LYS189      0.0206
     54  CE       -74.0330   -7.6280  -48.6250 C.3   189  LYS189      0.1093
     55  NZ       -73.2330   -7.4310  -47.3500 N.3   189  LYS189     -0.1314
     56  N        -70.6640   -9.4780  -51.4090 N.3   220  ASP220     -0.1225
     57  CA       -70.2860   -8.0550  -51.4310 C.3   220  ASP220      0.1805
     58  C        -69.5810   -7.7030  -52.7280 C.2   220  ASP220      0.2597
     59  O        -69.7700   -6.6060  -53.3100 O.2   220  ASP220     -0.2718
     60  CB       -69.4140   -7.7230  -50.2140 C.3   220  ASP220      0.1424
     61  CG       -70.1840   -7.8540  -48.9280 C.2   220  ASP220      0.3668
     62  OD1      -71.4360   -7.8560  -49.0010 O.co2 220  ASP220     -0.2456
     63  OD2      -69.5590   -8.0250  -47.8510 O.co2 220  ASP220     -0.2456
     64  N        -68.7830   -8.6390  -53.2300 N.am  221  GLU221     -0.1979
     65  CA       -68.1350   -8.4110  -54.5470 C.3   221  GLU221      0.1602
     66  C        -69.1240   -8.3790  -55.6860 C.2   221  GLU221      0.2287
     67  O        -69.0100   -7.5560  -56.5950 O.2   221  GLU221     -0.2864
     68  CB       -67.0770   -9.4800  -54.7880 C.3   221  GLU221      0.0415
     69  CG       -65.8940   -9.3150  -53.8140 C.3   221  GLU221      0.1163
     70  CD       -64.9870  -10.5750  -53.6700 C.2   221  GLU221      0.3649
     71  OE1      -65.2650  -11.6980  -54.2010 O.co2 221  GLU221     -0.2457
     72  OE2      -64.0140  -10.4480  -52.8920 O.co2 221  GLU221     -0.2457
     73  N        -72.2310   -7.4180  -55.4460 N.3   223  VAL223     -0.1231
     74  CA       -72.8960   -6.1260  -55.2560 C.3   223  VAL223      0.1692
     75  C        -72.0940   -5.0190  -55.9400 C.2   223  VAL223      0.2592
     76  O        -72.6540   -4.2400  -56.7410 O.2   223  VAL223     -0.2718
     77  CB       -73.0850   -5.7790  -53.7450 C.3   223  VAL223      0.0266
     78  CG1      -73.5680   -4.3170  -53.6100 C.3   223  VAL223      0.0020
     79  CG2      -74.1070   -6.7970  -53.0390 C.3   223  VAL223      0.0020
     80  N        -70.7860   -4.9670  -55.6830 N.am  224  PHE224     -0.1976
     81  CA       -69.9780   -3.9340  -56.3140 C.3   224  PHE224      0.1639
     82  C        -69.8320   -4.0880  -57.8100 C.2   224  PHE224      0.2290
     83  O        -69.8210   -3.0850  -58.5480 O.2   224  PHE224     -0.2864
     84  CB       -68.6130   -3.8170  -55.6270 C.3   224  PHE224      0.0560
     85  CG       -68.6910   -3.0150  -54.3420 C.ar  224  PHE224     -0.0200
     86  CD1      -68.8740   -1.6110  -54.3880 C.ar  224  PHE224     -0.0042
     87  CD2      -68.5830   -3.6500  -53.1080 C.ar  224  PHE224     -0.0042
     88  CE1      -68.9670   -0.8870  -53.2040 C.ar  224  PHE224     -0.0003
     89  CE2      -68.6490   -2.9020  -51.9070 C.ar  224  PHE224     -0.0003
     90  CZ       -68.8510   -1.5480  -51.9650 C.ar  224  PHE224     -0.0000
@<TRIPOS>BOND
     1    83    82    2
     2    82    81    1
     3    76    75    2
     4    67    66    2
     5    81    80    1
     6    81    84    1
     7    75    80   am
     8    75    74    1
     9     3     4    2
    10     3     2    1
    11    66    65    1
    12    84    85    1
    13    73    74    1
    14    74    77    1
    15    68    65    1
    16    68    69    1
    17     2     1    1
    18     2     5    1
    19     1     7    1
    20    65    64    1
    21    86    85   ar
    22    86    88   ar
    23    85    87   ar
    24    71    70   ar
    25    69    70    1
    26    77    78    1
    27    77    79    1
    28    70    72   ar
    29     7     6    1
    30     5     6    1
    31    59    58    2
    32    64    58   am
    33    88    90   ar
    34    87    89   ar
    35    58    57    1
    36    47    48    1
    37    90    89   ar
    38    32    30   ar
    39    32    34   ar
    40    30    29   ar
    41    40    41    1
    42    48    49    1
    43    48    51    1
    44    50    49    2
    45    57    56    1
    46    57    60    1
    47    41    42    1
    48    41    44    1
    49    43    42    2
    50    25    24    1
    51    25    28    1
    52    25    26    1
    53    34    33   ar
    54    45    44    1
    55    29    28    1
    56    29    31   ar
    57    27    26    2
    58    60    61    1
    59    51    52    1
    60    44    46    1
    61    52    53    1
    62    26    35   am
    63    33    31   ar
    64    62    61   ar
    65    61    63   ar
    66    35    36    1
    67    38    37    2
    68    37    36    1
    69    54    53    1
    70    54    55    1
    71    23    22    1
    72    16    17    1
    73    36    39    1
    74    15    13    1
    75    19    18    2
    76     8     9    1
    77    17    18    1
    78    17    20    1
    79    11    10    2
    80     9    10    1
    81     9    12    1
    82    22    21    1
    83    13    12    1
    84    20    21    1
    85    12    14    1
