@<TRIPOS>MOLECULE
tmp/3zc5A00.pdb
 172 162 0 0 0
SMALL
GASTEIGER

@<TRIPOS>ATOM
      1  N         22.0080   89.5270   -1.5770 N.3    33  ILE33      -0.1231
      2  CA        22.6040   88.2360   -1.2400 C.3    33  ILE33       0.1692
      3  C         21.5710   87.2910   -0.6250 C.2    33  ILE33       0.2593
      4  O         21.9110   86.2180   -0.1280 O.2    33  ILE33      -0.2718
      5  CB        23.7840   88.4000   -0.2500 C.3    33  ILE33       0.0266
      6  CG1       23.2820   88.9650    1.0820 C.3    33  ILE33       0.0019
      7  CG2       24.8300   89.3250   -0.8480 C.3    33  ILE33       0.0020
      8  CD1       24.3960   89.2870    2.0750 C.3    33  ILE33       0.0001
      9  N         20.3090   87.7010   -0.6610 N.am   34  GLY34      -0.1942
     10  CA        19.2390   86.8350   -0.1980 C.3    34  GLY34       0.2014
     11  C         17.8960   87.5080   -0.3760 C.2    34  GLY34       0.2638
     12  O         17.8240   88.7380   -0.4150 O.2    34  GLY34      -0.2714
     13  N         16.8350   86.7110   -0.4860 N.am   35  ARG35      -0.1977
     14  CA        15.5080   87.2480   -0.7490 C.3    35  ARG35       0.1597
     15  C         14.4570   86.6370    0.1530 C.2    35  ARG35       0.2287
     16  O         14.2180   85.4320    0.1150 O.2    35  ARG35      -0.2864
     17  CB        15.1170   87.0120   -2.2090 C.3    35  ARG35       0.0334
     18  CG        16.0330   87.6880   -3.2100 C.3    35  ARG35       0.0492
     19  CD        15.4800   87.5950   -4.6220 C.3    35  ARG35       0.2205
     20  NE        16.0520   88.6280   -5.4790 N.pl3  35  ARG35      -0.0865
     21  CZ        15.5140   89.8310   -5.6540 C.cat  35  ARG35       0.5346
     22  NH1       14.3850   90.1520   -5.0350 N.pl3  35  ARG35       0.1354
     23  NH2       16.1090   90.7150   -6.4410 N.pl3  35  ARG35       0.1354
     24  N         18.0650   90.8130    1.4540 N.3    41  VAL41      -0.1245
     25  CA        19.2610   90.8550    2.2830 C.3    41  VAL41       0.1561
     26  C         20.3800   91.4250    1.4250 C.2    41  VAL41       0.2260
     27  O         20.5220   91.0470    0.2640 O.2    41  VAL41      -0.2867
     28  CB        19.6730   89.4420    2.7570 C.3    41  VAL41       0.0252
     29  CG1       20.8300   89.5410    3.7430 C.3    41  VAL41       0.0019
     30  CG2       18.4790   88.7300    3.3780 C.3    41  VAL41       0.0019
     31  N         25.4600   91.0450    7.0250 N.3    53  ALA53      -0.1245
     32  CA        24.3030   90.8910    6.1580 C.3    53  ALA53       0.1562
     33  C         23.2000   91.7800    6.6890 C.2    53  ALA53       0.2260
     34  O         22.8430   91.7090    7.8640 O.2    53  ALA53      -0.2867
     35  CB        23.8350   89.4440    6.1510 C.3    53  ALA53       0.0290
     36  N         19.4070   92.7720    6.6150 N.3    55  LYS55      -0.1245
     37  CA        18.0720   92.3290    6.2400 C.3    55  LYS55       0.1561
     38  C         17.1120   93.5150    6.2400 C.2    55  LYS55       0.2260
     39  O         16.9810   94.2250    7.2380 O.2    55  LYS55      -0.2867
     40  CB        17.5790   91.2450    7.2060 C.3    55  LYS55       0.0271
     41  CG        16.1330   90.8070    6.9930 C.3    55  LYS55       0.0035
     42  CD        15.8790   90.3270    5.5620 C.3    55  LYS55       0.0206
     43  CE        14.8030   89.2400    5.5090 C.3    55  LYS55       0.1093
     44  NZ        13.5840   89.6110    6.2660 N.3    55  LYS55      -0.1314
     45  N         22.4120   81.7070   15.3190 N.3    85  LEU85      -0.1245
     46  CA        22.7400   82.9760   14.6820 C.3    85  LEU85       0.1561
     47  C         22.5030   84.1370   15.6440 C.2    85  LEU85       0.2260
     48  O         21.4570   84.2220   16.2900 O.2    85  LEU85      -0.2867
     49  CB        21.8910   83.1810   13.4250 C.3    85  LEU85       0.0270
     50  CG        22.2300   84.4760   12.6790 C.3    85  LEU85       0.0019
     51  CD1       23.5400   84.2920   11.9280 C.3    85  LEU85       0.0001
     52  CD2       21.1050   84.8420   11.7200 C.3    85  LEU85       0.0001
     53  N         22.8170   91.2760   10.7430 N.3   102  LEU102     -0.1231
     54  CA        23.2680   89.9840   11.2390 C.3   102  LEU102      0.1678
     55  C         24.6730   89.6920   10.7230 C.2   102  LEU102      0.2434
     56  O         25.1360   90.3250    9.7710 O.2   102  LEU102     -0.2733
     57  CB        22.2860   88.8970   10.7970 C.3   102  LEU102      0.0284
     58  CG        20.8350   89.2550   11.1580 C.3   102  LEU102      0.0019
     59  CD1       20.1390   89.8460    9.9480 C.3   102  LEU102      0.0001
     60  CD2       20.1030   88.0420   11.6320 C.3   102  LEU102      0.0001
     61  N         25.3750   88.7360   11.3520 N.am  103  PRO103     -0.2718
     62  CA        26.7120   88.3790   10.8620 C.3   103  PRO103      0.1535
     63  C         26.6040   87.8880    9.4240 C.2   103  PRO103      0.2599
     64  O         25.5790   87.3420    9.0280 O.2   103  PRO103     -0.2715
     65  CB        27.1670   87.2590   11.8040 C.3   103  PRO103      0.0310
     66  CG        26.2570   87.3560   13.0090 C.3   103  PRO103      0.0237
     67  CD        24.9520   87.8880   12.4820 C.3   103  PRO103      0.0939
     68  N         27.6580   88.0890    8.6460 N.am  104  TYR104     -0.1960
     69  CA        27.6950   87.5770    7.2830 C.3   104  TYR104      0.1771
     70  C         28.0300   86.0870    7.3130 C.2   104  TYR104      0.2619
     71  O         28.9390   85.6600    8.0190 O.2   104  TYR104     -0.2715
     72  CB        28.7410   88.3460    6.4650 C.3   104  TYR104      0.0574
     73  CG        28.9360   87.8360    5.0530 C.ar  104  TYR104     -0.0198
     74  CD1       27.9720   88.0520    4.0720 C.ar  104  TYR104     -0.0009
     75  CD2       30.0950   87.1550    4.6950 C.ar  104  TYR104     -0.0009
     76  CE1       28.1590   87.6060    2.7730 C.ar  104  TYR104      0.0417
     77  CE2       30.2930   86.7060    3.4010 C.ar  104  TYR104      0.0417
     78  CZ        29.3240   86.9340    2.4420 C.ar  104  TYR104      0.1957
     79  OH        29.5310   86.5010    1.1480 O.3   104  TYR104     -0.2866
     80  N         27.2810   85.2940    6.5560 N.am  105  MET105     -0.1977
     81  CA        27.5150   83.8590    6.5040 C.3   105  MET105      0.1605
     82  C         28.1360   83.4770    5.1640 C.2   105  MET105      0.2287
     83  O         27.4480   83.3950    4.1420 O.2   105  MET105     -0.2864
     84  CB        26.1980   83.1100    6.7160 C.3   105  MET105      0.0413
     85  CG        25.5700   83.3460    8.0840 C.3   105  MET105      0.0598
     86  SD        26.4280   82.4860    9.4290 S.3   105  MET105     -0.1393
     87  CE        26.7950   83.8410   10.5220 C.3   105  MET105      0.0692
     88  N         26.5920   80.6310    2.9830 N.3   108  GLY108     -0.1210
     89  CA        25.1720   80.6530    2.6870 C.3   108  GLY108      0.1956
     90  C         24.3660   79.6840    3.5330 C.2   108  GLY108      0.2611
     91  O         24.7800   79.2960    4.6250 O.2   108  GLY108     -0.2717
     92  N         23.2010   79.2890    3.0350 N.am  109  ASP109     -0.1973
     93  CA        22.3650   78.3640    3.7770 C.3   109  ASP109      0.1709
     94  C         22.8070   76.9260    3.5100 C.2   109  ASP109      0.2293
     95  O         23.4160   76.6300    2.4830 O.2   109  ASP109     -0.2864
     96  CB        20.8960   78.5470    3.3880 C.3   109  ASP109      0.1436
     97  CG        20.5980   78.0450    1.9940 C.2   109  ASP109      0.3671
     98  OD1       20.7880   78.8160    1.0280 O.co2 109  ASP109     -0.2456
     99  OD2       20.1770   76.8760    1.8670 O.co2 109  ASP109     -0.2456
    100  N         21.5350   74.7220    0.1190 N.3   112  ASN112     -0.1240
    101  CA        22.2700   75.0290   -1.1030 C.3   112  ASN112      0.1653
    102  C         23.7220   74.5560   -1.0080 C.2   112  ASN112      0.2266
    103  O         24.3090   74.1340   -2.0030 O.2   112  ASN112     -0.2867
    104  CB        22.2170   76.5360   -1.3980 C.3   112  ASN112      0.1155
    105  CG        20.9610   76.9390   -2.1600 C.2   112  ASN112      0.2627
    106  OD1       20.5780   76.2880   -3.1340 O.2   112  ASN112     -0.2716
    107  ND2       20.3150   78.0150   -1.7180 N.am  112  ASN112     -0.0877
    108  N         17.2350   74.6750    4.7190 N.3   153  ARG153     -0.1231
    109  CA        17.2670   75.9740    4.0460 C.3   153  ARG153      0.1694
    110  C         17.3880   77.1120    5.0590 C.2   153  ARG153      0.2592
    111  O         17.7860   78.2280    4.7070 O.2   153  ARG153     -0.2718
    112  CB        15.9930   76.1760    3.2160 C.3   153  ARG153      0.0321
    113  CG        14.7370   76.3600    4.0640 C.3   153  ARG153      0.0489
    114  CD        13.4740   76.6830    3.2500 C.3   153  ARG153      0.2205
    115  NE        12.3080   76.6060    4.1270 N.pl3 153  ARG153     -0.0865
    116  CZ        11.6710   75.4750    4.4120 C.cat 153  ARG153      0.5346
    117  NH1       12.0810   74.3350    3.8680 N.pl3 153  ARG153      0.1354
    118  NH2       10.6680   75.4710    5.2790 N.pl3 153  ARG153      0.1354
    119  N         17.0330   76.8360    6.3140 N.am  154  ASN154     -0.1974
    120  CA        16.9740   77.8780    7.3340 C.3   154  ASN154      0.1688
    121  C         18.1590   77.8400    8.3140 C.2   154  ASN154      0.2292
    122  O         18.1480   78.5310    9.3330 O.2   154  ASN154     -0.2864
    123  CB        15.6390   77.7960    8.0990 C.3   154  ASN154      0.1181
    124  CG        14.4690   78.3640    7.2970 C.2   154  ASN154      0.2629
    125  OD1       14.6560   79.2190    6.4250 O.2   154  ASN154     -0.2716
    126  ND2       13.2570   77.8900    7.5880 N.am  154  ASN154     -0.0877
    127  N         22.4680   78.3870    8.4110 N.3   156  MET156     -0.1245
    128  CA        23.5390   79.0380    7.6460 C.3   156  MET156      0.1570
    129  C         24.9180   78.4940    8.0320 C.2   156  MET156      0.2261
    130  O         25.0840   77.9290    9.1110 O.2   156  MET156     -0.2867
    131  CB        23.5210   80.5540    7.8860 C.3   156  MET156      0.0387
    132  CG        22.1620   81.2080    7.7200 C.3   156  MET156      0.0595
    133  SD        21.5850   81.1820    6.0270 S.3   156  MET156     -0.1393
    134  CE        22.5690   82.4630    5.3190 C.3   156  MET156      0.0692
    135  N         19.2120   79.4370   12.1190 N.3   166  ALA166     -0.1231
    136  CA        18.8610   80.7920   11.7060 C.3   166  ALA166      0.1694
    137  C         17.3590   80.9410   11.4650 C.2   166  ALA166      0.2592
    138  O         16.5600   80.1520   11.9560 O.2   166  ALA166     -0.2718
    139  CB        19.6330   81.1620   10.4440 C.3   166  ALA166      0.0304
    140  N         16.9820   81.9640   10.7070 N.am  167  ASP167     -0.1974
    141  CA        15.5770   82.2410   10.4290 C.3   167  ASP167      0.1709
    142  C         14.6930   82.1630   11.6760 C.2   167  ASP167      0.2293
    143  O         13.7030   81.4250   11.6930 O.2   167  ASP167     -0.2864
    144  CB        15.0490   81.2720    9.3660 C.3   167  ASP167      0.1436
    145  CG        13.6530   81.6370    8.8830 C.2   167  ASP167      0.3671
    146  OD1       13.2950   82.8350    8.9170 O.co2 167  ASP167     -0.2456
    147  OD2       12.9120   80.7260    8.4660 O.co2 167  ASP167     -0.2456
    148  N         15.3630   87.7720   12.2800 N.3   171  ALA171     -0.1245
    149  CA        15.8120   87.2620   10.9870 C.3   171  ALA171      0.1562
    150  C         14.7580   86.3550   10.3580 C.2   171  ALA171      0.2260
    151  O         14.9710   85.8110    9.2710 O.2   171  ALA171     -0.2867
    152  CB        17.1200   86.5000   11.1510 C.3   171  ALA171      0.0290
    153  N         12.4280   82.3990    3.0160 N.3   175  TYR175     -0.1227
    154  CA        13.5310   82.6750    2.0940 C.3   175  TYR175      0.1736
    155  C         13.5430   81.7650    0.8760 C.2   175  TYR175      0.2595
    156  O         14.4460   81.8400    0.0400 O.2   175  TYR175     -0.2718
    157  CB        14.8710   82.5520    2.8160 C.3   175  TYR175      0.0548
    158  CG        15.1040   83.6050    3.8690 C.ar  175  TYR175     -0.0200
    159  CD1       15.5540   84.8740    3.5240 C.ar  175  TYR175     -0.0009
    160  CD2       14.8850   83.3290    5.2130 C.ar  175  TYR175     -0.0009
    161  CE1       15.7780   85.8400    4.4870 C.ar  175  TYR175      0.0417
    162  CE2       15.1080   84.2880    6.1860 C.ar  175  TYR175      0.0417
    163  CZ        15.5540   85.5420    5.8160 C.ar  175  TYR175      0.1957
    164  OH        15.7790   86.4980    6.7780 O.3   175  TYR175     -0.2866
    165  N         12.5450   80.8940    0.7890 N.am  176  ASP176     -0.1974
    166  CA        12.3130   80.1040   -0.4100 C.3   176  ASP176      0.1709
    167  C         10.8250   79.7810   -0.4600 C.2   176  ASP176      0.2293
    168  O         10.3490   78.8790    0.2360 O.2   176  ASP176     -0.2864
    169  CB        13.1270   78.8060   -0.3610 C.3   176  ASP176      0.1436
    170  CG        13.0290   78.0130   -1.6430 C.2   176  ASP176      0.3671
    171  OD1       12.1330   78.3090   -2.4560 O.co2 176  ASP176     -0.2456
    172  OD2       13.8490   77.0960   -1.8410 O.co2 176  ASP176     -0.2456
@<TRIPOS>BOND
     1    23    21    1
     2    21    20    2
     3    21    22    1
     4    20    19    1
     5    19    18    1
     6    18    17    1
     7   106   105    2
     8   171   170   ar
     9    17    14    1
    10   105   107   am
    11   105   104    1
    12   103   102    2
    13   172   170   ar
    14   170   169    1
    15     1     2    1
    16   104   101    1
    17     2     3    1
    18     2     5    1
    19   101   102    1
    20   101   100    1
    21     7     5    1
    22    14    13    1
    23    14    15    1
    24     9     3   am
    25     9    10    1
    26     3     4    2
    27    13    11   am
    28   167   166    1
    29   167   168    2
    30    12    11    2
    31   166   169    1
    32   166   165    1
    33    11    10    1
    34     5     6    1
    35   156   155    2
    36    16    15    2
    37    27    26    2
    38   165   155   am
    39   155   154    1
    40    98    97   ar
    41     6     8    1
    42    79    78    1
    43    26    25    1
    44    24    25    1
    45    99    97   ar
    46    97    96    1
    47   154   157    1
    48   154   153    1
    49    25    28    1
    50    78    76   ar
    51    78    77   ar
    52    95    94    2
    53    89    88    1
    54    89    90    1
    55    28    30    1
    56    28    29    1
    57    76    74   ar
    58   157   158    1
    59    92    90   am
    60    92    93    1
    61   112   109    1
    62   112   113    1
    63   114   113    1
    64   114   115    1
    65    96    93    1
    66    77    75   ar
    67    94    93    1
    68   159   158   ar
    69   159   161   ar
    70    90    91    2
    71   117   116    1
    72   158   160   ar
    73   109   108    1
    74   109   110    1
    75    74    73   ar
    76   115   116    2
    77    83    82    2
    78   116   118    1
    79   161   163   ar
    80    75    73   ar
    81   111   110    2
    82    73    72    1
    83   110   119   am
    84    82    81    1
    85   160   162   ar
    86   134   133    1
    87    43    42    1
    88    43    44    1
    89    42    41    1
    90   163   162   ar
    91   163   164    1
    92   133   132    1
    93    35    32    1
    94    32    33    1
    95    32    31    1
    96    38    37    1
    97    38    39    2
    98    37    36    1
    99    37    40    1
   100   119   120    1
   101   125   124    2
   102    72    69    1
   103    81    80    1
   104    81    84    1
   105    80    70   am
   106    33    34    2
   107    84    85    1
   108    41    40    1
   109    69    70    1
   110    69    68    1
   111   124   126   am
   112   124   123    1
   113    70    71    2
   114   120   123    1
   115   120   121    1
   116   128   131    1
   117   128   129    1
   118   128   127    1
   119   132   131    1
   120   129   130    2
   121    85    86    1
   122   121   122    2
   123   147   145   ar
   124    68    63   am
   125   145   146   ar
   126   145   144    1
   127    64    63    2
   128   151   150    2
   129   144   141    1
   130    63    62    1
   131    86    87    1
   132    56    55    2
   133    59    58    1
   134   150   149    1
   135   141   140    1
   136   141   142    1
   137   139   136    1
   138   140   137   am
   139    55    54    1
   140    55    61   am
   141    53    54    1
   142    57    58    1
   143    57    54    1
   144    62    61    1
   145    62    65    1
   146   149   152    1
   147   149   148    1
   148    58    60    1
   149    61    67    1
   150   137   136    1
   151   137   138    2
   152   142   143    2
   153   136   135    1
   154    52    50    1
   155    65    66    1
   156    51    50    1
   157    67    66    1
   158    50    49    1
   159    49    46    1
   160    46    45    1
   161    46    47    1
   162    47    48    2
