@<TRIPOS>MOLECULE
tmp/3zc6B00.pdb
 182 174 0 0 0
SMALL
GASTEIGER

@<TRIPOS>ATOM
      1  N        -13.9840   41.2850   62.0450 N.3    16  LEU16      -0.1231
      2  CA       -15.2680   40.6500   62.2970 C.3    16  LEU16       0.1693
      3  C        -15.1360   39.4910   63.2790 C.2    16  LEU16       0.2593
      4  O        -15.9210   39.3670   64.2160 O.2    16  LEU16      -0.2718
      5  CB       -15.8660   40.1460   60.9800 C.3    16  LEU16       0.0284
      6  CG       -16.2690   41.2310   59.9690 C.3    16  LEU16       0.0019
      7  CD1      -16.6150   40.5910   58.6170 C.3    16  LEU16       0.0001
      8  CD2      -17.4410   42.0960   60.5130 C.3    16  LEU16       0.0001
      9  N        -14.1380   38.6470   63.0560 N.am   17  GLY17      -0.1942
     10  CA       -13.9140   37.5020   63.9030 C.3    17  GLY17       0.2014
     11  C        -12.4630   37.0800   63.9280 C.2    17  GLY17       0.2639
     12  O        -11.7140   37.3240   62.9790 O.2    17  GLY17      -0.2714
     13  N        -12.0890   36.4410   65.0300 N.am   18  LYS18      -0.1963
     14  CA       -10.7500   35.9550   65.2550 C.3    18  LYS18       0.1728
     15  C        -10.7950   34.4430   65.4600 C.2    18  LYS18       0.2616
     16  O        -11.5740   33.9550   66.2810 O.2    18  LYS18      -0.2715
     17  CB       -10.1830   36.6280   66.5050 C.3    18  LYS18       0.0311
     18  CG        -8.7230   36.3310   66.7500 C.3    18  LYS18       0.0038
     19  CD        -8.1410   37.2690   67.7950 C.3    18  LYS18       0.0206
     20  CE        -6.7920   36.7790   68.3080 C.3    18  LYS18       0.1093
     21  NZ        -5.6740   36.8920   67.3400 N.3    18  LYS18      -0.1314
     22  N         -9.9600   33.7160   64.7200 N.am   19  GLY19      -0.1955
     23  CA        -9.7410   32.2800   64.9520 C.3    19  GLY19       0.1869
     24  C         -8.4280   32.0120   65.6660 C.2    19  GLY19       0.2309
     25  O         -7.6290   32.9250   65.8800 O.2    19  GLY19      -0.2863
     26  N         -6.2060   32.5360   62.4170 N.3    22  GLY22      -0.1210
     27  CA        -6.5030   33.6520   61.5150 C.3    22  GLY22       0.1956
     28  C         -7.4840   34.6890   62.0230 C.2    22  GLY22       0.2613
     29  O         -7.9480   34.6590   63.1570 O.2    22  GLY22      -0.2717
     30  N         -7.7810   35.6320   61.1520 N.am   23  SER23      -0.1938
     31  CA        -8.7740   36.6310   61.4270 C.3    23  SER23       0.2055
     32  C         -9.5610   36.8710   60.1700 C.2    23  SER23       0.2642
     33  O         -9.0360   36.7370   59.0690 O.2    23  SER23      -0.2714
     34  CB        -8.1130   37.9310   61.8750 C.3    23  SER23       0.2130
     35  OG        -7.3470   38.4780   60.8290 O.3    23  SER23      -0.2179
     36  N        -10.8270   37.2280   60.3460 N.am   24  VAL24      -0.1977
     37  CA       -11.6970   37.6050   59.2520 C.3    24  VAL24       0.1596
     38  C        -11.9720   39.0830   59.4060 C.2    24  VAL24       0.2287
     39  O        -12.4490   39.5290   60.4500 O.2    24  VAL24      -0.2864
     40  CB       -12.9600   36.7810   59.2720 C.3    24  VAL24       0.0276
     41  CG1      -13.9320   37.2300   58.1550 C.3    24  VAL24       0.0022
     42  CG2      -12.5830   35.2880   59.1090 C.3    24  VAL24       0.0022
     43  N        -15.8300   40.0680   53.2870 N.3    41  ALA41      -0.1245
     44  CA       -15.1600   39.4770   54.4530 C.3    41  ALA41       0.1562
     45  C        -13.9160   38.7950   53.9310 C.2    41  ALA41       0.2260
     46  O        -14.0000   38.0130   52.9740 O.2    41  ALA41      -0.2867
     47  CB       -16.0520   38.4650   55.1380 C.3    41  ALA41       0.0290
     48  N        -10.3170   36.6630   54.9340 N.3    43  LYS43      -0.1245
     49  CA        -9.5180   35.9080   55.9150 C.3    43  LYS43       0.1561
     50  C         -8.0380   35.9190   55.5670 C.2    43  LYS43       0.2260
     51  O         -7.6530   35.7450   54.4090 O.2    43  LYS43      -0.2867
     52  CB        -9.9870   34.4480   56.0590 C.3    43  LYS43       0.0271
     53  CG        -9.1160   33.6100   57.0340 C.3    43  LYS43       0.0035
     54  CD        -9.6670   32.2240   57.2880 C.3    43  LYS43       0.0206
     55  CE        -8.6100   31.3140   57.8810 C.3    43  LYS43       0.1093
     56  NZ        -9.1670   30.0690   58.4760 N.3    43  LYS43      -0.1314
     57  N        -21.4440   29.6190   53.0270 N.3    72  VAL72      -0.1245
     58  CA       -20.9050   30.9640   52.7540 C.3    72  VAL72       0.1561
     59  C        -20.1910   30.9890   51.4130 C.2    72  VAL72       0.2260
     60  O        -19.4230   30.0950   51.1140 O.2    72  VAL72      -0.2867
     61  CB       -19.9230   31.4300   53.8990 C.3    72  VAL72       0.0252
     62  CG1      -18.7460   30.4730   54.0220 C.3    72  VAL72       0.0019
     63  CG2      -19.4040   32.8640   53.6690 C.3    72  VAL72       0.0019
     64  N        -14.5100   36.4340   50.8830 N.3    86  MET86      -0.1230
     65  CA       -15.8240   35.7990   50.9370 C.3    86  MET86       0.1702
     66  C        -16.8910   36.8630   50.9790 C.2    86  MET86       0.2592
     67  O        -16.5870   38.0380   51.2220 O.2    86  MET86      -0.2718
     68  CB       -15.9440   34.9230   52.1790 C.3    86  MET86       0.0401
     69  CG       -14.9140   33.7930   52.2770 C.3    86  MET86       0.0596
     70  SD       -14.8480   33.0140   53.9020 S.3    86  MET86      -0.1393
     71  CE       -13.8650   34.2490   54.7730 C.3    86  MET86       0.0692
     72  N        -18.1430   36.4610   50.7360 N.am   87  GLU87      -0.1966
     73  CA       -19.2640   37.3940   50.8630 C.3    87  GLU87       0.1733
     74  C        -19.3560   37.8910   52.2980 C.2    87  GLU87       0.2616
     75  O        -19.1620   37.1270   53.2480 O.2    87  GLU87      -0.2715
     76  CB       -20.6070   36.7800   50.4530 C.3    87  GLU87       0.0429
     77  CG       -20.9930   35.5480   51.2430 C.3    87  GLU87       0.1163
     78  CD       -22.4150   35.0850   51.0290 C.2    87  GLU87       0.3649
     79  OE1      -23.2530   35.8540   50.5210 O.co2  87  GLU87      -0.2457
     80  OE2      -22.6840   33.9170   51.3850 O.co2  87  GLU87      -0.2457
     81  N        -19.6500   39.1760   52.4360 N.am   88  TYR88      -0.1960
     82  CA       -19.9070   39.7740   53.7280 C.3    88  TYR88       0.1771
     83  C        -21.3810   39.6940   54.0670 C.2    88  TYR88       0.2619
     84  O        -22.2160   40.2450   53.3390 O.2    88  TYR88      -0.2715
     85  CB       -19.4850   41.2350   53.7010 C.3    88  TYR88       0.0574
     86  CG       -19.8370   42.0050   54.9450 C.ar   88  TYR88      -0.0198
     87  CD1      -19.4940   41.5200   56.2110 C.ar   88  TYR88      -0.0009
     88  CD2      -20.5000   43.2390   54.8620 C.ar   88  TYR88      -0.0009
     89  CE1      -19.7850   42.2640   57.3750 C.ar   88  TYR88       0.0417
     90  CE2      -20.8000   43.9800   56.0180 C.ar   88  TYR88       0.0417
     91  CZ       -20.4460   43.4810   57.2670 C.ar   88  TYR88       0.1957
     92  OH       -20.7420   44.2050   58.4010 O.3    88  TYR88      -0.2866
     93  N        -21.6850   39.0420   55.1890 N.am   89  LEU89      -0.1964
     94  CA       -23.0450   38.9480   55.7370 C.3    89  LEU89       0.1713
     95  C        -23.1620   39.8460   56.9930 C.2    89  LEU89       0.2458
     96  O        -22.8610   39.4030   58.0890 O.2    89  LEU89      -0.2730
     97  CB       -23.3760   37.5040   56.0830 C.3    89  LEU89       0.0310
     98  CG       -23.5440   36.5100   54.9350 C.3    89  LEU89       0.0022
     99  CD1      -22.2850   36.3750   54.1890 C.3    89  LEU89       0.0001
    100  CD2      -23.9490   35.1230   55.4160 C.3    89  LEU89       0.0001
    101  N        -23.6080   41.1130   56.8420 N.am   90  PRO90      -0.2716
    102  CA       -23.6040   42.0760   57.9570 C.3    90  PRO90       0.1536
    103  C        -24.4000   41.7280   59.2220 C.2    90  PRO90       0.2599
    104  O        -24.1670   42.3380   60.2610 O.2    90  PRO90      -0.2715
    105  CB       -24.1830   43.3520   57.3270 C.3    90  PRO90       0.0310
    106  CG       -24.8000   42.9200   56.0560 C.3    90  PRO90       0.0237
    107  CD       -24.0500   41.7480   55.5950 C.3    90  PRO90       0.0939
    108  N        -25.3410   40.7950   59.1250 N.am   91  SER91      -0.1936
    109  CA       -26.1070   40.3510   60.2930 C.3    91  SER91       0.2055
    110  C        -25.2630   39.5020   61.2640 C.2    91  SER91       0.2644
    111  O        -25.6440   39.3260   62.4230 O.2    91  SER91      -0.2714
    112  CB       -27.3560   39.5730   59.8660 C.3    91  SER91       0.2130
    113  OG       -28.3680   40.4390   59.4050 O.3    91  SER91      -0.2179
    114  N        -24.1390   38.9680   60.7840 N.am   92  GLY92      -0.1939
    115  CA       -23.1180   38.4120   61.6490 C.3    92  GLY92       0.2014
    116  C        -23.4200   36.9860   62.0350 C.2    92  GLY92       0.2639
    117  O        -24.1840   36.3030   61.3440 O.2    92  GLY92      -0.2714
    118  N        -22.8230   36.5270   63.1370 N.am   93  CYS93      -0.1967
    119  CA       -22.9210   35.1100   63.4940 C.3    93  CYS93       0.1712
    120  C        -24.2120   34.8100   64.2250 C.2    93  CYS93       0.2296
    121  O        -24.7770   35.6860   64.8870 O.2    93  CYS93      -0.2864
    122  CB       -21.7140   34.6270   64.3040 C.3    93  CYS93       0.0983
    123  SG       -21.6610   35.1920   65.9460 S.3    93  CYS93      -0.0798
    124  N        -24.8090   32.9330   66.8110 N.3    95  ARG95      -0.1231
    125  CA       -24.6720   33.0300   68.2680 C.3    95  ARG95       0.1694
    126  C        -25.1050   34.3920   68.8140 C.2    95  ARG95       0.2592
    127  O        -25.9740   34.4600   69.6790 O.2    95  ARG95      -0.2718
    128  CB       -23.2280   32.7440   68.6800 C.3    95  ARG95       0.0321
    129  CG       -22.9850   32.6380   70.2020 C.3    95  ARG95       0.0489
    130  CD       -21.5130   32.7740   70.5110 C.3    95  ARG95       0.2205
    131  NE       -20.9980   34.0420   69.9780 N.pl3  95  ARG95      -0.0865
    132  CZ       -19.7230   34.3000   69.6800 C.cat  95  ARG95       0.5346
    133  NH1      -18.7630   33.3860   69.8680 N.pl3  95  ARG95       0.1354
    134  NH2      -19.4010   35.4940   69.1840 N.pl3  95  ARG95       0.1354
    135  N        -24.5090   35.4610   68.2930 N.am   96  ASP96      -0.1974
    136  CA       -24.8370   36.8330   68.7280 C.3    96  ASP96       0.1709
    137  C        -26.2560   37.2260   68.3420 C.2    96  ASP96       0.2293
    138  O        -26.9250   37.9340   69.0870 O.2    96  ASP96      -0.2864
    139  CB       -23.8690   37.8650   68.1250 C.3    96  ASP96       0.1436
    140  CG       -22.4290   37.6630   68.5550 C.2    96  ASP96       0.3671
    141  OD1      -22.1850   36.8980   69.5190 O.co2  96  ASP96      -0.2456
    142  OD2      -21.5390   38.2870   67.9210 O.co2  96  ASP96      -0.2456
    143  N        -21.3480   29.8890   66.6140 N.3   137  ARG137     -0.1231
    144  CA       -20.4320   30.9910   66.3420 C.3   137  ARG137      0.1694
    145  C        -19.8850   30.9550   64.9030 C.2   137  ARG137      0.2592
    146  O        -19.4410   31.9840   64.3910 O.2   137  ARG137     -0.2718
    147  CB       -19.2810   30.9770   67.3480 C.3   137  ARG137      0.0321
    148  CG       -18.3350   29.8060   67.1920 C.3   137  ARG137      0.0489
    149  CD       -17.1250   29.9090   68.1320 C.3   137  ARG137      0.2205
    150  NE       -15.9030   29.5380   67.4270 N.pl3 137  ARG137     -0.0865
    151  CZ       -15.4740   28.2920   67.2700 C.cat 137  ARG137      0.5346
    152  NH1      -16.1490   27.2780   67.7930 N.pl3 137  ARG137      0.1354
    153  NH2      -14.3660   28.0650   66.5900 N.pl3 137  ARG137      0.1354
    154  N        -19.9130   29.7770   64.2680 N.am  138  ASN138     -0.1974
    155  CA       -19.4560   29.5920   62.8750 C.3   138  ASN138      0.1688
    156  C        -20.6090   29.5400   61.8620 C.2   138  ASN138      0.2292
    157  O        -20.3890   29.2380   60.6760 O.2   138  ASN138     -0.2864
    158  CB       -18.6040   28.3160   62.7740 C.3   138  ASN138      0.1181
    159  CG       -17.2350   28.4730   63.4030 C.2   138  ASN138      0.2629
    160  OD1      -16.7490   29.5890   63.5990 O.2   138  ASN138     -0.2716
    161  ND2      -16.5910   27.3510   63.7070 N.am  138  ASN138     -0.0877
    162  N        -23.5130   31.9450   60.0880 N.3   140  LEU140     -0.1245
    163  CA       -23.7650   33.3590   59.7980 C.3   140  LEU140      0.1561
    164  C        -25.2020   33.5690   59.3470 C.2   140  LEU140      0.2260
    165  O        -25.8140   32.6870   58.7410 O.2   140  LEU140     -0.2867
    166  CB       -22.8370   33.8720   58.7120 C.3   140  LEU140      0.0270
    167  CG       -21.3330   33.7270   58.8920 C.3   140  LEU140      0.0019
    168  CD1      -20.6120   34.1020   57.5880 C.3   140  LEU140      0.0001
    169  CD2      -20.8360   34.5730   60.0310 C.3   140  LEU140      0.0001
    170  N        -20.2410   28.6300   57.9610 N.3   150  ALA150     -0.1231
    171  CA       -18.9580   29.2920   57.6900 C.3   150  ALA150      0.1694
    172  C        -17.8210   28.5810   58.4340 C.2   150  ALA150      0.2592
    173  O        -18.0360   27.5610   59.0770 O.2   150  ALA150     -0.2718
    174  CB       -19.0340   30.7620   58.0890 C.3   150  ALA150      0.0304
    175  N        -16.6170   29.1340   58.3120 N.am  151  ASP151     -0.1974
    176  CA       -15.4020   28.6410   58.9620 C.3   151  ASP151      0.1709
    177  C        -15.0280   27.2110   58.5830 C.2   151  ASP151      0.2293
    178  O        -15.2990   26.2630   59.3200 O.2   151  ASP151     -0.2864
    179  CB       -15.4720   28.7710   60.4900 C.3   151  ASP151      0.1436
    180  CG       -14.0880   28.6500   61.1510 C.2   151  ASP151      0.3671
    181  OD1      -13.0820   28.4710   60.4320 O.co2 151  ASP151     -0.2456
    182  OD2      -13.9960   28.7580   62.3870 O.co2 151  ASP151     -0.2456
@<TRIPOS>BOND
     1    76    73    1
     2    76    77    1
     3    79    78   ar
     4    72    73    1
     5    72    66   am
     6    73    74    1
     7    64    65    1
     8    65    66    1
     9    65    68    1
    10    66    67    2
    11    78    77    1
    12    78    80   ar
    13    60    59    2
    14    59    58    1
    15    68    69    1
    16    69    70    1
    17    74    81   am
    18    74    75    2
    19    81    82    1
    20    58    57    1
    21    58    61    1
    22    46    45    2
    23    43    44    1
    24    84    83    2
    25    63    61    1
    26    85    82    1
    27    85    86    1
    28    82    83    1
    29    61    62    1
    30    70    71    1
    31    45    44    1
    32    83    93   am
    33    99    98    1
    34    51    50    2
    35    44    47    1
    36    88    86   ar
    37    88    90   ar
    38    48    49    1
    39    98   100    1
    40    98    97    1
    41    86    87   ar
    42    93    94    1
    43    50    49    1
    44   107   106    1
    45   107   101    1
    46    94    97    1
    47    94    95    1
    48    49    52    1
    49    90    91   ar
    50   106   105    1
    51    52    53    1
    52    87    89   ar
    53   101    95   am
    54   101   102    1
    55    95    96    2
    56    53    54    1
    57    91    89   ar
    58    91    92    1
    59    54    55    1
    60   105   102    1
    61   168   167    1
    62   171   170    1
    63   171   174    1
    64   171   172    1
    65    55    56    1
    66   102   103    1
    67    41    40    1
    68   175   172   am
    69   175   176    1
    70   172   173    2
    71   177   176    1
    72   177   178    2
    73     7     6    1
    74   166   167    1
    75   166   163    1
    76   165   164    2
    77   167   169    1
    78   176   179    1
    79    33    32    2
    80    42    40    1
    81   108   103   am
    82   108   109    1
    83   103   104    2
    84    37    40    1
    85    37    38    1
    86    37    36    1
    87   164   163    1
    88   113   112    1
    89    38    39    2
    90   163   162    1
    91   112   109    1
    92     6     8    1
    93     6     5    1
    94    32    36   am
    95    32    31    1
    96   109   110    1
    97   181   180   ar
    98   179   180    1
    99   157   156    2
   100   114   110   am
   101   114   115    1
   102    35    34    1
   103     5     2    1
   104   180   182   ar
   105    30    31    1
   106    30    28   am
   107   110   111    2
   108   117   116    2
   109    31    34    1
   110    27    28    1
   111    27    26    1
   112   115   116    1
   113   156   155    1
   114    28    29    2
   115   116   118   am
   116     1     2    1
   117     2     3    1
   118   158   155    1
   119   158   159    1
   120   155   154    1
   121    12    11    2
   122     9     3   am
   123     9    10    1
   124   118   119    1
   125     3     4    2
   126   159   160    2
   127   159   161   am
   128   119   120    1
   129   119   122    1
   130    10    11    1
   131    11    13   am
   132   120   121    2
   133   154   145   am
   134   122   123    1
   135   146   145    2
   136    22    23    1
   137    22    15   am
   138   145   144    1
   139    23    24    1
   140    13    14    1
   141    14    15    1
   142    14    17    1
   143    15    16    2
   144    24    25    2
   145   144   143    1
   146   144   147    1
   147    17    18    1
   148   153   151    1
   149    18    19    1
   150   124   125    1
   151   148   147    1
   152   148   149    1
   153   151   150    2
   154   151   152    1
   155    21    20    1
   156   150   149    1
   157    19    20    1
   158   142   140   ar
   159   139   140    1
   160   139   136    1
   161   125   128    1
   162   125   126    1
   163   135   136    1
   164   135   126   am
   165   137   136    1
   166   137   138    2
   167   140   141   ar
   168   128   129    1
   169   126   127    2
   170   134   132    1
   171   132   133    1
   172   132   131    2
   173   131   130    1
   174   129   130    1
