@<TRIPOS>MOLECULE
tmp/3zchA01.pdb
 88 82 0 0 0
SMALL
GASTEIGER

@<TRIPOS>ATOM
      1  N         20.0840   58.2840   22.3740 N.3    37  ARG37      -0.1245
      2  CA        19.6790   58.3580   20.9710 C.3    37  ARG37       0.1563
      3  C         20.7860   58.9020   20.0780 C.2    37  ARG37       0.2260
      4  O         20.9890   58.4040   18.9700 O.2    37  ARG37      -0.2867
      5  CB        18.3920   59.1780   20.7790 C.3    37  ARG37       0.0307
      6  CG        17.7460   58.8760   19.4300 C.3    37  ARG37       0.0489
      7  CD        16.5880   59.7810   19.0860 C.3    37  ARG37       0.2205
      8  NE        15.8900   59.2920   17.8950 N.pl3  37  ARG37      -0.0865
      9  CZ        15.2670   60.0680   17.0120 C.cat  37  ARG37       0.5346
     10  NH1       15.2630   61.3910   17.1520 N.pl3  37  ARG37       0.1354
     11  NH2       14.6590   59.5160   15.9700 N.pl3  37  ARG37       0.1354
     12  N         23.3580   56.0620   19.6560 N.3    40  ALA40      -0.1231
     13  CA        22.8240   54.9580   18.8730 C.3    40  ALA40       0.1694
     14  C         22.6040   55.3490   17.4090 C.2    40  ALA40       0.2591
     15  O         22.8990   54.5680   16.5030 O.2    40  ALA40      -0.2718
     16  CB        21.5280   54.4330   19.4990 C.3    40  ALA40       0.0304
     17  N         22.0870   56.5550   17.1810 N.am   41  MET41      -0.1979
     18  CA        21.8750   57.0400   15.8160 C.3    41  MET41       0.1605
     19  C         23.1810   57.2500   15.0650 C.2    41  MET41       0.2287
     20  O         23.2760   56.9560   13.8700 O.2    41  MET41      -0.2864
     21  CB        21.0580   58.3360   15.8060 C.3    41  MET41       0.0413
     22  CG        19.5510   58.1090   15.8140 C.3    41  MET41       0.0598
     23  SD        18.6270   59.6300   15.4990 S.3    41  MET41      -0.1393
     24  CE        19.5780   60.2850   14.1360 C.3    41  MET41       0.0692
     25  N         24.4150   53.8810   14.1920 N.3    44  GLY44      -0.1225
     26  CA        23.4980   53.1320   13.3430 C.3    44  GLY44       0.1811
     27  C         23.5350   53.4400   11.8510 C.2    44  GLY44       0.2280
     28  O         22.7710   52.8590   11.0750 O.2    44  GLY44      -0.2866
     29  N         14.1190   62.5660   13.8870 N.3    70  ASN70      -0.1240
     30  CA        15.1050   63.6690   13.9620 C.3    70  ASN70       0.1653
     31  C         14.6940   65.0920   14.3500 C.2    70  ASN70       0.2266
     32  O         13.5220   65.3790   14.6240 O.2    70  ASN70      -0.2867
     33  CB        16.0370   63.7060   12.7420 C.3    70  ASN70       0.1155
     34  CG        16.9650   62.5250   12.6780 C.2    70  ASN70       0.2627
     35  OD1       18.1840   62.6860   12.7310 O.2    70  ASN70      -0.2716
     36  ND2       16.4000   61.3270   12.5580 N.am   70  ASN70      -0.0877
     37  N         18.6270   55.3740    8.3470 N.3   130  LEU130     -0.1231
     38  CA        17.9590   55.2250    9.6300 C.3   130  LEU130      0.1678
     39  C         16.6210   54.5150    9.4600 C.2   130  LEU130      0.2434
     40  O         15.9880   54.6180    8.4130 O.2   130  LEU130     -0.2733
     41  CB        17.7650   56.5890   10.2830 C.3   130  LEU130      0.0284
     42  CG        19.0600   57.3380   10.5920 C.3   130  LEU130      0.0019
     43  CD1       18.7170   58.6950   11.1540 C.3   130  LEU130      0.0001
     44  CD2       19.9470   56.5520   11.5550 C.3   130  LEU130      0.0001
     45  N         16.1930   53.7780   10.4920 N.am  131  PRO131     -0.2729
     46  CA        14.9190   53.0590   10.4250 C.3   131  PRO131      0.1401
     47  C         13.7260   54.0030   10.4240 C.2   131  PRO131      0.2269
     48  O         13.7840   55.1010   10.9800 O.2   131  PRO131     -0.2865
     49  CB        14.9320   52.1970   11.6930 C.3   131  PRO131      0.0296
     50  CG        15.8710   52.9020   12.6190 C.3   131  PRO131      0.0237
     51  CD        16.9330   53.4720   11.7250 C.3   131  PRO131      0.0939
     52  N         18.9200   46.9340   10.5660 N.3   144  PHE144     -0.1241
     53  CA        19.8310   46.4040   11.5880 C.3   144  PHE144      0.1605
     54  C         20.5760   45.1490   11.1490 C.2   144  PHE144      0.2264
     55  O         21.7000   44.9080   11.5970 O.2   144  PHE144     -0.2867
     56  CB        19.0820   46.1080   12.8890 C.3   144  PHE144      0.0534
     57  CG        18.5730   47.3330   13.5780 C.ar  144  PHE144     -0.0203
     58  CD1       17.3670   47.9020   13.2050 C.ar  144  PHE144     -0.0042
     59  CD2       19.3040   47.9210   14.5980 C.ar  144  PHE144     -0.0042
     60  CE1       16.9020   49.0500   13.8350 C.ar  144  PHE144     -0.0003
     61  CE2       18.8450   49.0560   15.2310 C.ar  144  PHE144     -0.0003
     62  CZ        17.6460   49.6230   14.8450 C.ar  144  PHE144     -0.0000
     63  N         23.5320   47.0330    9.0900 N.3   148  MET148     -0.1245
     64  CA        24.4050   47.0970   10.2680 C.3   148  MET148      0.1570
     65  C         25.1290   45.7970   10.6050 C.2   148  MET148      0.2261
     66  O         26.2290   45.8330   11.1520 O.2   148  MET148     -0.2867
     67  CB        23.6350   47.5660   11.5020 C.3   148  MET148      0.0387
     68  CG        23.1610   49.0050   11.4470 C.3   148  MET148      0.0595
     69  SD        22.4750   49.4240   13.0600 S.3   148  MET148     -0.1393
     70  CE        21.1250   50.5100   12.5880 C.3   148  MET148      0.0692
     71  N         14.0490   52.2730   24.0240 N.3   162  HIS162     -0.1241
     72  CA        12.8740   53.1240   24.1630 C.3   162  HIS162      0.1621
     73  C         12.2800   53.1060   25.5620 C.2   162  HIS162      0.2264
     74  O         11.3140   53.8160   25.8420 O.2   162  HIS162     -0.2867
     75  CB        11.8150   52.7350   23.1340 C.3   162  HIS162      0.0745
     76  CG        12.1690   53.1410   21.7380 C.ar  162  HIS162      0.0817
     77  ND1       11.6020   52.5620   20.6250 N.ar  162  HIS162     -0.2268
     78  CD2       13.0480   54.0630   21.2790 C.ar  162  HIS162      0.1154
     79  CE1       12.1060   53.1170   19.5360 C.ar  162  HIS162      0.1986
     80  NE2       12.9830   54.0280   19.9050 N.ar  162  HIS162     -0.2212
     81  N         26.6680   47.6010   18.6420 N.3   241  LEU241     -0.1245
     82  CA        26.2360   48.8010   17.9290 C.3   241  LEU241      0.1561
     83  C         27.2970   49.8900   18.0290 C.2   241  LEU241      0.2260
     84  O         27.6900   50.4830   17.0280 O.2   241  LEU241     -0.2867
     85  CB        24.9240   49.3180   18.5200 C.3   241  LEU241      0.0270
     86  CG        24.3610   50.6240   17.9470 C.3   241  LEU241      0.0019
     87  CD1       24.0930   50.4890   16.4500 C.3   241  LEU241      0.0001
     88  CD2       23.0780   51.0140   18.6940 C.3   241  LEU241      0.0001
@<TRIPOS>BOND
     1    37    38    1
     2    40    39    2
     3    63    64    1
     4    39    38    1
     5    39    45   am
     6    38    41    1
     7    64    65    1
     8    64    67    1
     9    41    42    1
    10    47    46    1
    11    47    48    2
    12    46    45    1
    13    46    49    1
    14    45    51    1
    15    52    53    1
    16    42    43    1
    17    42    44    1
    18    65    66    2
    19    28    27    2
    20    54    53    1
    21    54    55    2
    22    68    67    1
    23    68    69    1
    24    53    56    1
    25    49    50    1
    26    51    50    1
    27    27    26    1
    28    36    34   am
    29    70    69    1
    30    34    35    2
    31    34    33    1
    32    33    30    1
    33    56    57    1
    34    58    57   ar
    35    58    60   ar
    36    26    25    1
    37    57    59   ar
    38    60    62   ar
    39    20    19    2
    40    29    30    1
    41    30    31    1
    42    24    23    1
    43    31    32    2
    44    59    61   ar
    45    62    61   ar
    46    19    18    1
    47    23    22    1
    48    21    22    1
    49    21    18    1
    50    18    17    1
    51    11     9    1
    52    87    86    1
    53    15    14    2
    54     9    10    1
    55     9     8    2
    56    84    83    2
    57    17    14   am
    58    14    13    1
    59     8     7    1
    60    82    83    1
    61    82    85    1
    62    82    81    1
    63    86    85    1
    64    86    88    1
    65    13    16    1
    66    13    12    1
    67     4     3    2
    68     7     6    1
    69     6     5    1
    70    79    80   ar
    71    79    77   ar
    72    80    78   ar
    73     3     2    1
    74    77    76   ar
    75     5     2    1
    76     2     1    1
    77    78    76   ar
    78    76    75    1
    79    75    72    1
    80    71    72    1
    81    72    73    1
    82    73    74    2
