@<TRIPOS>MOLECULE
tmp/3zcjA00.pdb
 95 89 0 0 0
SMALL
GASTEIGER

@<TRIPOS>ATOM
      1  N         -1.7680  -44.7970    8.2840 N.3     3  ILE3       -0.1231
      2  CA        -1.6110  -43.3490    8.2810 C.3     3  ILE3        0.1692
      3  C         -2.2720  -42.7330    9.5120 C.2     3  ILE3        0.2592
      4  O         -1.5940  -42.1580   10.3670 O.2     3  ILE3       -0.2718
      5  CB        -2.2140  -42.7210    7.0030 C.3     3  ILE3        0.0266
      6  CG1       -1.4690  -43.2100    5.7530 C.3     3  ILE3        0.0019
      7  CG2       -2.1900  -41.2000    7.0860 C.3     3  ILE3        0.0020
      8  CD1       -0.0400  -42.6990    5.6300 C.3     3  ILE3        0.0001
      9  N         -3.5940  -42.8730    9.5930 N.am    4  THR4       -0.1953
     10  CA        -4.3810  -42.3320   10.6990 C.3     4  THR4        0.1897
     11  C         -3.9200  -42.8860   12.0520 C.2     4  THR4        0.2313
     12  O         -3.5900  -42.1280   12.9740 O.2     4  THR4       -0.2863
     13  CB        -5.8880  -42.6430   10.5100 C.3     4  THR4        0.1794
     14  OG1       -6.1480  -44.0160   10.8370 O.3     4  THR4       -0.2208
     15  CG2       -6.3140  -42.3780    9.0720 C.3     4  THR4        0.0378
     16  N         -0.5030  -41.7880   13.0390 N.3     7  LEU7       -0.1245
     17  CA        -0.5300  -40.3850   13.4210 C.3     7  LEU7        0.1561
     18  C         -1.0220  -40.2460   14.8580 C.2     7  LEU7        0.2260
     19  O         -0.4710  -39.4640   15.6380 O.2     7  LEU7       -0.2867
     20  CB        -1.4170  -39.6040   12.4570 C.3     7  LEU7        0.0270
     21  CG        -1.1660  -38.1070   12.3220 C.3     7  LEU7        0.0019
     22  CD1        0.3180  -37.8140   12.3340 C.3     7  LEU7        0.0001
     23  CD2       -1.8020  -37.6070   11.0280 C.3     7  LEU7        0.0001
     24  N         -2.8740  -30.2910   13.4060 N.3    59  GLU59      -0.1245
     25  CA        -3.9180  -31.3150   13.4640 C.3    59  GLU59       0.1567
     26  C         -5.3410  -30.7760   13.2790 C.2    59  GLU59       0.2260
     27  O         -6.1700  -31.4020   12.5830 O.2    59  GLU59      -0.2867
     28  CB        -3.7820  -32.1240   14.7560 C.3    59  GLU59       0.0388
     29  CG        -2.5020  -32.9430   14.7240 C.3    59  GLU59       0.1160
     30  CD        -2.1520  -33.6050   16.0230 C.2    59  GLU59       0.3649
     31  OE1       -2.9220  -33.4620   16.9930 O.co2  59  GLU59      -0.2457
     32  OE2       -1.1160  -34.3060   16.0540 O.co2  59  GLU59      -0.2457
     33  N         -5.7220  -30.1540    9.7010 N.3    62  PHE62      -0.1227
     34  CA        -5.8990  -31.4040    8.9720 C.3    62  PHE62       0.1736
     35  C         -7.3580  -31.8150    9.0280 C.2    62  PHE62       0.2595
     36  O         -7.8830  -32.3680    8.0610 O.2    62  PHE62      -0.2718
     37  CB        -5.0290  -32.5310    9.5320 C.3    62  PHE62       0.0547
     38  CG        -3.5640  -32.3100    9.3640 C.ar   62  PHE62      -0.0202
     39  CD1       -3.0920  -31.3980    8.4370 C.ar   62  PHE62      -0.0042
     40  CD2       -2.6550  -33.0530   10.1000 C.ar   62  PHE62      -0.0042
     41  CE1       -1.7300  -31.2020    8.2720 C.ar   62  PHE62      -0.0003
     42  CE2       -1.3020  -32.8680    9.9410 C.ar   62  PHE62      -0.0003
     43  CZ        -0.8330  -31.9390    9.0200 C.ar   62  PHE62      -0.0000
     44  N         -8.0150  -31.5400   10.1580 N.am   63  ILE63      -0.1980
     45  CA        -9.4350  -31.8910   10.2630 C.3    63  ILE63       0.1595
     46  C        -10.3020  -31.1350    9.2550 C.2    63  ILE63       0.2287
     47  O        -11.0390  -31.7430    8.4450 O.2    63  ILE63      -0.2864
     48  CB        -9.9930  -31.6320   11.6700 C.3    63  ILE63       0.0276
     49  CG1       -9.5300  -32.7220   12.6310 C.3    63  ILE63       0.0022
     50  CG2      -11.4950  -31.7040   11.6620 C.3    63  ILE63       0.0022
     51  CD1       -9.9510  -32.4640   14.0560 C.3    63  ILE63       0.0001
     52  N         -9.3920  -32.0110    5.6540 N.3    66  ASP66      -0.1239
     53  CA        -9.9170  -33.3120    5.2560 C.3    66  ASP66       0.1674
     54  C        -11.3740  -33.1390    4.8720 C.2    66  ASP66       0.2266
     55  O        -11.8360  -33.7490    3.9130 O.2    66  ASP66      -0.2867
     56  CB        -9.7640  -34.3780    6.3500 C.3    66  ASP66       0.1410
     57  CG        -8.3530  -34.9350    6.4490 C.2    66  ASP66       0.3668
     58  OD1       -7.5730  -34.8260    5.4750 O.co2  66  ASP66      -0.2456
     59  OD2       -8.0310  -35.5070    7.5120 O.co2  66  ASP66      -0.2456
     60  N          1.4480  -35.5430    5.4440 N.3   160  VAL160     -0.1245
     61  CA         0.0690  -35.1000    5.2380 C.3   160  VAL160      0.1561
     62  C         -0.0640  -33.8550    4.3350 C.2   160  VAL160      0.2260
     63  O         -0.8550  -33.8480    3.3670 O.2   160  VAL160     -0.2867
     64  CB        -0.6100  -34.8120    6.5890 C.3   160  VAL160      0.0252
     65  CG1       -1.9860  -34.2100    6.4010 C.3   160  VAL160      0.0019
     66  CG2       -0.6680  -36.0760    7.4160 C.3   160  VAL160      0.0019
     67  N          0.9050  -34.7110    0.7030 N.3   163  ASN163     -0.1225
     68  CA        -0.1170  -35.5120    0.0520 C.3   163  ASN163      0.1785
     69  C         -1.3310  -34.6740   -0.3370 C.2   163  ASN163      0.2597
     70  O         -1.9350  -34.9250   -1.3790 O.2   163  ASN163     -0.2718
     71  CB        -0.5640  -36.6890    0.9090 C.3   163  ASN163      0.1169
     72  CG        -1.6450  -37.5110    0.2270 C.2   163  ASN163      0.2627
     73  OD1       -1.3800  -38.2350   -0.7350 O.2   163  ASN163     -0.2716
     74  ND2       -2.8830  -37.3540    0.6860 N.am  163  ASN163     -0.0877
     75  N         -1.6780  -33.6650    0.4650 N.am  164  TYR164     -0.1976
     76  CA        -2.7780  -32.7870    0.0420 C.3   164  TYR164      0.1639
     77  C         -2.4250  -32.1520   -1.2870 C.2   164  TYR164      0.2290
     78  O         -3.2270  -32.1430   -2.2380 O.2   164  TYR164     -0.2864
     79  CB        -3.0410  -31.6670    1.0520 C.3   164  TYR164      0.0560
     80  CG        -3.8350  -32.0410    2.2730 C.ar  164  TYR164     -0.0198
     81  CD1       -4.7470  -33.0790    2.2410 C.ar  164  TYR164     -0.0009
     82  CD2       -3.6830  -31.3340    3.4590 C.ar  164  TYR164     -0.0009
     83  CE1       -5.4840  -33.4100    3.3620 C.ar  164  TYR164      0.0417
     84  CE2       -4.4090  -31.6560    4.5840 C.ar  164  TYR164      0.0417
     85  CZ        -5.3100  -32.6940    4.5310 C.ar  164  TYR164      0.1957
     86  OH        -6.0340  -33.0150    5.6530 O.3   164  TYR164     -0.2866
     87  N         -2.7470  -34.6830   -4.1350 N.3   167  GLU167     -0.1245
     88  CA        -4.1430  -34.9630   -4.4550 C.3   167  GLU167      0.1567
     89  C         -4.7120  -33.8240   -5.2950 C.2   167  GLU167      0.2260
     90  O         -5.5200  -34.0500   -6.2060 O.2   167  GLU167     -0.2867
     91  CB        -4.9880  -35.1710   -3.1880 C.3   167  GLU167      0.0388
     92  CG        -4.7580  -36.5060   -2.4820 C.3   167  GLU167      0.1160
     93  CD        -5.5350  -36.6360   -1.1700 C.2   167  GLU167      0.3649
     94  OE1       -5.7750  -35.6090   -0.5000 O.co2 167  GLU167     -0.2457
     95  OE2       -5.8950  -37.7750   -0.7970 O.co2 167  GLU167     -0.2457
@<TRIPOS>BOND
     1    90    89    2
     2    89    88    1
     3    88    87    1
     4    88    91    1
     5    91    92    1
     6    92    93    1
     7    78    77    2
     8    70    69    2
     9    77    76    1
    10    93    95   ar
    11    93    94   ar
    12    73    72    2
    13    69    68    1
    14    69    75   am
    15    76    75    1
    16    76    79    1
    17    68    67    1
    18    68    71    1
    19    72    74   am
    20    72    71    1
    21    79    80    1
    22    81    80   ar
    23    81    83   ar
    24    80    82   ar
    25    83    85   ar
    26    63    62    2
    27    82    84   ar
    28    55    54    2
    29    62    61    1
    30    85    84   ar
    31    85    86    1
    32    54    53    1
    33    61    60    1
    34    61    64    1
    35    53    52    1
    36    53    56    1
    37    58    57   ar
    38     8     6    1
    39     6     5    1
    40    56    57    1
    41    65    64    1
    42    57    59   ar
    43    64    66    1
    44     5     7    1
    45     5     2    1
    46    36    35    2
    47    41    39   ar
    48    41    43   ar
    49     2     1    1
    50     2     3    1
    51    39    38   ar
    52    47    46    2
    53    34    35    1
    54    34    37    1
    55    34    33    1
    56    43    42   ar
    57    35    44   am
    58    15    13    1
    59    46    45    1
    60    38    37    1
    61    38    40   ar
    62     3     9   am
    63     3     4    2
    64     9    10    1
    65    42    40   ar
    66    44    45    1
    67    45    48    1
    68    13    10    1
    69    13    14    1
    70    10    11    1
    71    23    21    1
    72    50    48    1
    73    48    49    1
    74    11    12    2
    75    21    22    1
    76    21    20    1
    77    20    17    1
    78    27    26    2
    79    49    51    1
    80    16    17    1
    81    26    25    1
    82    24    25    1
    83    17    18    1
    84    25    28    1
    85    29    28    1
    86    29    30    1
    87    18    19    2
    88    30    32   ar
    89    30    31   ar
