@<TRIPOS>MOLECULE
tmp/3zclA00.pdb
 164 154 0 0 0
SMALL
GASTEIGER

@<TRIPOS>ATOM
      1  N         21.4190   89.4440   -0.9690 N.3    33  ILE33      -0.1231
      2  CA        21.9140   88.1110   -0.6510 C.3    33  ILE33       0.1692
      3  C         20.8130   87.2520   -0.0540 C.2    33  ILE33       0.2593
      4  O         21.0750   86.1830    0.5010 O.2    33  ILE33      -0.2718
      5  CB        23.1060   88.1710    0.3340 C.3    33  ILE33       0.0266
      6  CG1       22.7200   88.9510    1.5930 C.3    33  ILE33       0.0019
      7  CG2       24.2930   88.8310   -0.3400 C.3    33  ILE33       0.0020
      8  CD1       23.8340   89.0440    2.6210 C.3    33  ILE33       0.0001
      9  N         19.5800   87.7300   -0.1730 N.am   34  GLY34      -0.1942
     10  CA        18.4360   86.9710    0.2930 C.3    34  GLY34       0.2014
     11  C         17.1480   87.7210    0.0300 C.2    34  GLY34       0.2638
     12  O         17.1350   88.9520   -0.0030 O.2    34  GLY34      -0.2714
     13  N         16.0610   86.9840   -0.1630 N.am   35  ARG35      -0.1977
     14  CA        14.7680   87.6040   -0.4140 C.3    35  ARG35       0.1597
     15  C         13.6840   86.9980    0.4660 C.2    35  ARG35       0.2287
     16  O         13.3920   85.8060    0.3800 O.2    35  ARG35      -0.2864
     17  CB        14.3870   87.4510   -1.8900 C.3    35  ARG35       0.0334
     18  CG        15.3510   88.1380   -2.8460 C.3    35  ARG35       0.0492
     19  CD        14.9220   87.9720   -4.2960 C.3    35  ARG35       0.2205
     20  NE        15.7190   88.8050   -5.1930 N.pl3  35  ARG35      -0.0865
     21  CZ        15.4450   90.0760   -5.4690 C.cat  35  ARG35       0.5346
     22  NH1       14.3930   90.6640   -4.9160 N.pl3  35  ARG35       0.1354
     23  NH2       16.2260   90.7620   -6.2930 N.pl3  35  ARG35       0.1354
     24  N         17.5290   90.7110    2.1430 N.3    41  VAL41      -0.1245
     25  CA        18.7490   90.7400    2.9430 C.3    41  VAL41       0.1561
     26  C         19.8550   91.3330    2.0760 C.2    41  VAL41       0.2260
     27  O         19.9800   90.9860    0.9020 O.2    41  VAL41      -0.2867
     28  CB        19.1790   89.3160    3.3690 C.3    41  VAL41       0.0252
     29  CG1       20.3610   89.3950    4.3180 C.3    41  VAL41       0.0019
     30  CG2       18.0180   88.5820    4.0240 C.3    41  VAL41       0.0019
     31  N         25.0560   90.9330    7.6740 N.3    54  ALA54      -0.1245
     32  CA        23.8840   90.7900    6.8200 C.3    54  ALA54       0.1562
     33  C         22.7820   91.6810    7.3750 C.2    54  ALA54       0.2260
     34  O         22.4460   91.6040    8.5550 O.2    54  ALA54      -0.2867
     35  CB        23.4210   89.3380    6.7980 C.3    54  ALA54       0.0290
     36  N         18.9410   92.6680    7.3130 N.3    56  LYS56      -0.1245
     37  CA        17.6060   92.2200    6.9290 C.3    56  LYS56       0.1561
     38  C         16.6230   93.3820    6.9730 C.2    56  LYS56       0.2260
     39  O         16.3990   93.9760    8.0270 O.2    56  LYS56      -0.2867
     40  CB        17.1330   91.1090    7.8720 C.3    56  LYS56       0.0271
     41  CG        15.7160   90.6080    7.5950 C.3    56  LYS56       0.0035
     42  CD        15.5760   90.1060    6.1650 C.3    56  LYS56       0.0206
     43  CE        14.3760   89.1780    6.0100 C.3    56  LYS56       0.1093
     44  NZ        13.1130   89.8000    6.4990 N.3    56  LYS56      -0.1314
     45  N         21.9620   81.3910   15.6010 N.3    86  LEU86      -0.1245
     46  CA        22.2750   82.6920   15.0090 C.3    86  LEU86       0.1561
     47  C         22.0910   83.8020   16.0380 C.2    86  LEU86       0.2260
     48  O         21.0590   83.8780   16.7050 O.2    86  LEU86      -0.2867
     49  CB        21.3700   82.9700   13.8070 C.3    86  LEU86       0.0270
     50  CG        21.6910   84.2500   13.0280 C.3    86  LEU86       0.0019
     51  CD1       23.0130   84.0880   12.3020 C.3    86  LEU86       0.0001
     52  CD2       20.5750   84.5430   12.0390 C.3    86  LEU86       0.0001
     53  N         22.4850   91.1610   11.3840 N.3   103  LEU103     -0.1231
     54  CA        22.8900   89.8210   11.8000 C.3   103  LEU103      0.1678
     55  C         24.3220   89.5460   11.3620 C.2   103  LEU103      0.2434
     56  O         24.8300   90.1720   10.4320 O.2   103  LEU103     -0.2733
     57  CB        21.9720   88.7650   11.1710 C.3   103  LEU103      0.0284
     58  CG        20.4830   88.7710   11.5280 C.3   103  LEU103      0.0019
     59  CD1       19.8250   87.5460   10.9320 C.3   103  LEU103      0.0001
     60  CD2       20.3020   88.7670   13.0330 C.3   103  LEU103      0.0001
     61  N         24.9890   88.5860   12.0170 N.am  104  PRO104     -0.2718
     62  CA        26.3040   88.1490   11.5440 C.3   104  PRO104      0.1535
     63  C         26.2060   87.6220   10.1200 C.2   104  PRO104      0.2599
     64  O         25.2290   86.9560    9.7620 O.2   104  PRO104     -0.2715
     65  CB        26.6950   87.0430   12.5270 C.3   104  PRO104      0.0310
     66  CG        25.8640   87.2970   13.7380 C.3   104  PRO104      0.0237
     67  CD        24.5680   87.8610   13.2270 C.3   104  PRO104      0.0939
     68  N         27.2190   87.9170    9.3130 N.am  105  TYR105     -0.1960
     69  CA        27.2620   87.4340    7.9420 C.3   105  TYR105      0.1771
     70  C         27.7050   85.9760    7.9300 C.2   105  TYR105      0.2619
     71  O         28.6850   85.6020    8.5820 O.2   105  TYR105     -0.2715
     72  CB        28.2290   88.2880    7.1130 C.3   105  TYR105      0.0574
     73  CG        28.4550   87.7830    5.7050 C.ar  105  TYR105     -0.0198
     74  CD1       27.4410   87.8330    4.7560 C.ar  105  TYR105     -0.0009
     75  CD2       29.6860   87.2650    5.3220 C.ar  105  TYR105     -0.0009
     76  CE1       27.6460   87.3820    3.4650 C.ar  105  TYR105      0.0417
     77  CE2       29.9010   86.8150    4.0320 C.ar  105  TYR105      0.0417
     78  CZ        28.8790   86.8760    3.1090 C.ar  105  TYR105      0.1957
     79  OH        29.0930   86.4350    1.8220 O.3   105  TYR105     -0.2866
     80  N         26.9660   85.1530    7.1980 N.am  106  MET106     -0.1977
     81  CA        27.2690   83.7320    7.1100 C.3   106  MET106      0.1605
     82  C         27.9170   83.4350    5.7660 C.2   106  MET106      0.2287
     83  O         27.2390   83.2880    4.7520 O.2   106  MET106     -0.2864
     84  CB        25.9830   82.9170    7.2810 C.3   106  MET106      0.0413
     85  CG        25.3350   83.0970    8.6490 C.3   106  MET106      0.0598
     86  SD        26.2290   82.2450    9.9680 S.3   106  MET106     -0.1393
     87  CE        26.7070   83.5970   11.0340 C.3   106  MET106      0.0692
     88  N         26.5780   80.6350    3.4650 N.3   109  GLY109     -0.1210
     89  CA        25.1810   80.6120    3.0690 C.3   109  GLY109      0.1956
     90  C         24.3390   79.6180    3.8440 C.2   109  GLY109      0.2611
     91  O         24.6880   79.2210    4.9510 O.2   109  GLY109     -0.2717
     92  N         23.2180   79.2110    3.2620 N.am  110  ASP110     -0.1973
     93  CA        22.3300   78.2890    3.9530 C.3   110  ASP110      0.1709
     94  C         22.7820   76.8530    3.7430 C.2   110  ASP110      0.2293
     95  O         23.4190   76.5210    2.7410 O.2   110  ASP110     -0.2864
     96  CB        20.8860   78.4550    3.4670 C.3   110  ASP110      0.1436
     97  CG        20.7000   78.0070    2.0380 C.2   110  ASP110      0.3671
     98  OD1       21.1050   78.7590    1.1240 O.co2 110  ASP110     -0.2456
     99  OD2       20.1520   76.9040    1.8270 O.co2 110  ASP110     -0.2456
    100  N         21.6680   74.8170    0.3570 N.3   113  ASN113     -0.1240
    101  CA        22.4300   75.1010   -0.8480 C.3   113  ASN113      0.1653
    102  C         23.8660   74.6150   -0.7230 C.2   113  ASN113      0.2266
    103  O         24.4710   74.1960   -1.7100 O.2   113  ASN113     -0.2867
    104  CB        22.4020   76.5970   -1.1670 C.3   113  ASN113      0.1155
    105  CG        21.1490   76.9990   -1.9230 C.2   113  ASN113      0.2627
    106  OD1       20.7860   76.3710   -2.9200 O.2   113  ASN113     -0.2716
    107  ND2       20.4770   78.0390   -1.4470 N.am  113  ASN113     -0.0877
    108  N         17.1090   74.6610    4.7710 N.3   154  ARG154     -0.1231
    109  CA        17.1660   75.9780    4.1360 C.3   154  ARG154      0.1694
    110  C         17.2840   77.0910    5.1730 C.2   154  ARG154      0.2592
    111  O         17.6480   78.2160    4.8360 O.2   154  ARG154     -0.2718
    112  CB        15.9100   76.2240    3.2900 C.3   154  ARG154      0.0321
    113  CG        14.6420   76.3050    4.1190 C.3   154  ARG154      0.0489
    114  CD        13.3910   76.6080    3.3000 C.3   154  ARG154      0.2205
    115  NE        12.2220   76.4360    4.1550 N.pl3 154  ARG154     -0.0865
    116  CZ        11.5760   75.2860    4.2980 C.cat 154  ARG154      0.5346
    117  NH1       11.9720   74.2140    3.6210 N.pl3 154  ARG154      0.1354
    118  NH2       10.5820   75.1860    5.1710 N.pl3 154  ARG154      0.1354
    119  N         16.9690   76.7760    6.4250 N.am  155  ASN155     -0.1974
    120  CA        16.8800   77.7930    7.4710 C.3   155  ASN155      0.1688
    121  C         18.0000   77.6890    8.4910 C.2   155  ASN155      0.2292
    122  O         17.9670   78.3450    9.5330 O.2   155  ASN155     -0.2864
    123  CB        15.5220   77.7000    8.1640 C.3   155  ASN155      0.1181
    124  CG        14.4150   78.2770    7.3210 C.2   155  ASN155      0.2629
    125  OD1       14.6580   79.1330    6.4680 O.2   155  ASN155     -0.2716
    126  ND2       13.1900   77.8190    7.5480 N.am  155  ASN155     -0.0877
    127  N         22.3300   78.0410    8.6810 N.3   157  MET157     -0.1245
    128  CA        23.4000   78.6650    7.9160 C.3   157  MET157      0.1570
    129  C         24.7700   78.2080    8.3890 C.2   157  MET157      0.2261
    130  O         24.9020   77.6080    9.4560 O.2   157  MET157     -0.2867
    131  CB        23.2810   80.1840    8.0140 C.3   157  MET157      0.0387
    132  CG        21.8830   80.6860    7.6860 C.3   157  MET157      0.0595
    133  SD        21.8360   82.4000    7.1590 S.3   157  MET157     -0.1393
    134  CE        22.7030   82.2920    5.6020 C.3   157  MET157      0.0692
    135  N         18.9150   79.2560   12.2310 N.3   167  ALA167     -0.1231
    136  CA        18.5630   80.6250   11.8690 C.3   167  ALA167      0.1694
    137  C         17.0710   80.7430   11.5730 C.2   167  ALA167      0.2592
    138  O         16.2800   79.9150   12.0110 O.2   167  ALA167     -0.2718
    139  CB        19.3840   81.0690   10.6590 C.3   167  ALA167      0.0304
    140  N         16.6860   81.7830   10.8420 N.am  168  ASP168     -0.1974
    141  CA        15.2770   82.0150   10.5320 C.3   168  ASP168      0.1709
    142  C         14.3810   81.9200   11.7680 C.2   168  ASP168      0.2293
    143  O         13.3990   81.1760   11.7870 O.2   168  ASP168     -0.2864
    144  CB        14.7840   81.0180    9.4750 C.3   168  ASP168      0.1436
    145  CG        13.3240   81.2150    9.1400 C.2   168  ASP168      0.3671
    146  OD1       12.9070   82.3830    8.9980 O.co2 168  ASP168     -0.2456
    147  OD2       12.5950   80.2030    9.0370 O.co2 168  ASP168     -0.2456
    148  N         15.0270   87.4920   12.6380 N.3   172  ALA172     -0.1245
    149  CA        15.4440   87.0070   11.3280 C.3   172  ALA172      0.1562
    150  C         14.3690   86.1470   10.6640 C.2   172  ALA172      0.2260
    151  O         14.5930   85.5930    9.5870 O.2   172  ALA172     -0.2867
    152  CB        16.7440   86.2140   11.4530 C.3   172  ALA172      0.0290
    153  N         12.2200   82.4870    3.1560 N.3   176  TYR176     -0.1241
    154  CA        13.3290   82.7690    2.2520 C.3   176  TYR176      0.1605
    155  C         13.3070   81.9160    0.9810 C.2   176  TYR176      0.2264
    156  O         14.0690   82.1660    0.0480 O.2   176  TYR176     -0.2867
    157  CB        14.6610   82.5800    2.9880 C.3   176  TYR176      0.0534
    158  CG        14.8840   83.5900    4.0930 C.ar  176  TYR176     -0.0201
    159  CD1       15.3030   84.8830    3.8010 C.ar  176  TYR176     -0.0009
    160  CD2       14.6590   83.2590    5.4240 C.ar  176  TYR176     -0.0009
    161  CE1       15.4880   85.8210    4.8070 C.ar  176  TYR176      0.0417
    162  CE2       14.8430   84.1890    6.4380 C.ar  176  TYR176      0.0417
    163  CZ        15.2560   85.4690    6.1230 C.ar  176  TYR176      0.1957
    164  OH        15.4330   86.4010    7.1300 O.3   176  TYR176     -0.2866
@<TRIPOS>BOND
     1    23    21    1
     2    21    20    2
     3    21    22    1
     4    20    19    1
     5    19    18    1
     6   106   105    2
     7    18    17    1
     8   105   107   am
     9   105   104    1
    10    17    14    1
    11   103   102    2
    12   104   101    1
    13     1     2    1
    14   101   102    1
    15   101   100    1
    16     2     3    1
    17     2     5    1
    18    14    13    1
    19    14    15    1
    20     7     5    1
    21     9     3   am
    22     9    10    1
    23    13    11   am
    24     3     4    2
    25    12    11    2
    26    11    10    1
    27   156   155    2
    28     5     6    1
    29    16    15    2
    30    27    26    2
    31   155   154    1
    32    98    97   ar
    33     6     8    1
    34    79    78    1
    35    99    97   ar
    36    97    96    1
    37    26    25    1
    38    24    25    1
    39   154   157    1
    40   154   153    1
    41    95    94    2
    42    25    28    1
    43   157   158    1
    44    89    88    1
    45    89    90    1
    46    78    76   ar
    47    78    77   ar
    48    92    90   am
    49    92    93    1
    50   112   113    1
    51   112   109    1
    52   114   113    1
    53   114   115    1
    54    28    30    1
    55    28    29    1
    56    76    74   ar
    57    96    93    1
    58   117   116    1
    59    94    93    1
    60   159   158   ar
    61   159   161   ar
    62    90    91    2
    63    77    75   ar
    64   158   160   ar
    65   109   108    1
    66   109   110    1
    67   115   116    2
    68   116   118    1
    69    83    82    2
    70    74    73   ar
    71   161   163   ar
    72   111   110    2
    73   110   119   am
    74    75    73   ar
    75   160   162   ar
    76   134   133    1
    77    73    72    1
    78    82    81    1
    79    43    42    1
    80    43    44    1
    81   163   162   ar
    82   163   164    1
    83    42    41    1
    84   119   120    1
    85   125   124    2
    86    35    32    1
    87    32    33    1
    88    32    31    1
    89    37    38    1
    90    37    36    1
    91    37    40    1
    92    38    39    2
    93    81    80    1
    94    81    84    1
    95    72    69    1
    96   133   132    1
    97    80    70   am
    98    84    85    1
    99   124   126   am
   100   124   123    1
   101    33    34    2
   102   120   123    1
   103   120   121    1
   104    41    40    1
   105   132   131    1
   106   128   131    1
   107   128   129    1
   108   128   127    1
   109    70    69    1
   110    70    71    2
   111    69    68    1
   112   129   130    2
   113   121   122    2
   114    85    86    1
   115   146   145   ar
   116   147   145   ar
   117   145   144    1
   118    68    63   am
   119   144   141    1
   120   151   150    2
   121    64    63    2
   122    86    87    1
   123    63    62    1
   124    56    55    2
   125   141   140    1
   126   141   142    1
   127   139   136    1
   128   150   149    1
   129   140   137   am
   130    59    58    1
   131    57    58    1
   132    57    54    1
   133   149   152    1
   134   149   148    1
   135    55    54    1
   136    55    61   am
   137    53    54    1
   138    58    60    1
   139    62    61    1
   140    62    65    1
   141   137   136    1
   142   137   138    2
   143   142   143    2
   144   136   135    1
   145    61    67    1
   146    52    50    1
   147    51    50    1
   148    65    66    1
   149    50    49    1
   150    67    66    1
   151    49    46    1
   152    46    45    1
   153    46    47    1
   154    47    48    2
