@<TRIPOS>MOLECULE
tmp/3zcqA01.pdb
 218 208 0 0 0
SMALL
GASTEIGER

@<TRIPOS>ATOM
      1  N         33.0420   20.3230   39.5220 N.3    77  GLU77      -0.1245
      2  CA        31.7340   20.7970   39.0920 C.3    77  GLU77       0.1567
      3  C         30.7760   19.6320   38.8310 C.2    77  GLU77       0.2260
      4  O         31.1360   18.6570   38.1660 O.2    77  GLU77      -0.2867
      5  CB        31.8630   21.6720   37.8390 C.3    77  GLU77       0.0388
      6  CG        32.7520   22.9070   38.0050 C.3    77  GLU77       0.1160
      7  CD        32.6580   23.8690   36.8330 C.2    77  GLU77       0.3649
      8  OE1       31.6880   23.7690   36.0460 O.co2  77  GLU77      -0.2457
      9  OE2       33.5590   24.7270   36.6940 O.co2  77  GLU77      -0.2457
     10  N         29.5720   25.6000   36.1430 N.3   122  ASN122     -0.1225
     11  CA        29.5600   26.7880   35.2850 C.3   122  ASN122      0.1785
     12  C         28.7880   26.5990   33.9800 C.2   122  ASN122      0.2598
     13  O         28.0630   27.4920   33.5490 O.2   122  ASN122     -0.2718
     14  CB        30.9960   27.2120   34.9650 C.3   122  ASN122      0.1169
     15  CG        31.6320   28.0010   36.0930 C.2   122  ASN122      0.2627
     16  OD1       31.2150   29.1260   36.3870 O.2   122  ASN122     -0.2716
     17  ND2       32.6310   27.4130   36.7400 N.am  122  ASN122     -0.0877
     18  N         28.9660   25.4400   33.3500 N.am  123  GLY123     -0.1942
     19  CA        28.3990   25.1850   32.0300 C.3   123  GLY123      0.2014
     20  C         28.6300   23.7680   31.5560 C.2   123  GLY123      0.2639
     21  O         28.3150   22.8030   32.2710 O.2   123  GLY123     -0.2714
     22  N         29.1810   23.6410   30.3510 N.am  124  GLY124     -0.1939
     23  CA        29.2610   22.3460   29.6600 C.3   124  GLY124      0.2014
     24  C         30.0220   21.2410   30.3750 C.2   124  GLY124      0.2638
     25  O         29.5910   20.0820   30.3880 O.2   124  GLY124     -0.2714
     26  N         31.1630   21.5990   30.9600 N.am  125  LEU125     -0.1977
     27  CA        31.9950   20.6530   31.7160 C.3   125  LEU125      0.1596
     28  C         31.2770   20.1380   32.9700 C.2   125  LEU125      0.2287
     29  O         31.3650   18.9540   33.3080 O.2   125  LEU125     -0.2864
     30  CB        33.3340   21.3260   32.0720 C.3   125  LEU125      0.0297
     31  CG        34.2970   20.8110   33.1470 C.3   125  LEU125      0.0022
     32  CD1       35.6910   21.3460   32.8510 C.3   125  LEU125      0.0001
     33  CD2       33.8570   21.2410   34.5380 C.3   125  LEU125      0.0001
     34  N         28.2320   17.9750   31.8480 N.3   128  LEU128     -0.1245
     35  CA        28.7340   16.6950   31.3580 C.3   128  LEU128      0.1561
     36  C         28.8980   15.6930   32.4990 C.2   128  LEU128      0.2260
     37  O         28.5120   14.5350   32.3630 O.2   128  LEU128     -0.2867
     38  CB        30.0630   16.8640   30.6080 C.3   128  LEU128      0.0270
     39  CG        30.5440   15.6280   29.8320 C.3   128  LEU128      0.0019
     40  CD1       29.7560   15.4210   28.5250 C.3   128  LEU128      0.0001
     41  CD2       32.0440   15.7100   29.5500 C.3   128  LEU128      0.0001
     42  N         33.9470   28.9100   42.1390 N.3   263  TYR263     -0.1241
     43  CA        34.6000   29.9070   41.2880 C.3   263  TYR263      0.1605
     44  C         33.8790   29.9780   39.9400 C.2   263  TYR263      0.2264
     45  O         33.7610   28.9630   39.2480 O.2   263  TYR263     -0.2867
     46  CB        36.0880   29.5810   41.1110 C.3   263  TYR263      0.0534
     47  CG        36.9460   30.1490   42.2210 C.ar  263  TYR263     -0.0201
     48  CD1       37.0690   29.4910   43.4450 C.ar  263  TYR263     -0.0009
     49  CD2       37.6130   31.3650   42.0520 C.ar  263  TYR263     -0.0009
     50  CE1       37.8570   30.0270   44.4740 C.ar  263  TYR263      0.0417
     51  CE2       38.3970   31.9080   43.0720 C.ar  263  TYR263      0.0417
     52  CZ        38.5140   31.2380   44.2730 C.ar  263  TYR263      0.1957
     53  OH        39.2870   31.7810   45.2680 O.3   263  TYR263     -0.2866
     54  N         34.6650   31.7890   37.1850 N.3   265  ASN265     -0.1225
     55  CA        35.4700   32.1080   36.0020 C.3   265  ASN265      0.1785
     56  C         35.6610   30.8630   35.1380 C.2   265  ASN265      0.2597
     57  O         36.3350   29.9150   35.5440 O.2   265  ASN265     -0.2718
     58  CB        36.8370   32.7020   36.3870 C.3   265  ASN265      0.1169
     59  CG        37.5950   31.8280   37.3760 C.2   265  ASN265      0.2627
     60  OD1       37.0880   31.5300   38.4600 O.2   265  ASN265     -0.2716
     61  ND2       38.8070   31.4070   37.0070 N.am  265  ASN265     -0.0877
     62  N         35.0570   30.8680   33.9540 N.am  266  ASP266     -0.1974
     63  CA        35.1850   29.7410   33.0270 C.3   266  ASP266      0.1709
     64  C         35.9120   30.1510   31.7440 C.2   266  ASP266      0.2293
     65  O         35.9470   29.3990   30.7740 O.2   266  ASP266     -0.2864
     66  CB        33.8050   29.1540   32.7040 C.3   266  ASP266      0.1436
     67  CG        32.9270   30.1080   31.9040 C.2   266  ASP266      0.3671
     68  OD1       33.1150   31.3380   32.0080 O.co2 266  ASP266     -0.2456
     69  OD2       32.0400   29.6220   31.1650 O.co2 266  ASP266     -0.2456
     70  N         39.1210   32.2770   31.9380 N.3   268  PHE268     -0.1227
     71  CA        40.4950   32.6570   32.2020 C.3   268  PHE268      0.1736
     72  C         40.9130   32.0050   33.5210 C.2   268  PHE268      0.2595
     73  O         40.2640   32.2090   34.5490 O.2   268  PHE268     -0.2718
     74  CB        40.5630   34.1870   32.2950 C.3   268  PHE268      0.0547
     75  CG        41.9570   34.7520   32.3230 C.ar  268  PHE268     -0.0202
     76  CD1       42.6090   35.0910   31.1370 C.ar  268  PHE268     -0.0042
     77  CD2       42.6010   34.9930   33.5340 C.ar  268  PHE268     -0.0042
     78  CE1       43.8970   35.6360   31.1570 C.ar  268  PHE268     -0.0003
     79  CE2       43.8920   35.5320   33.5670 C.ar  268  PHE268     -0.0003
     80  CZ        44.5400   35.8540   32.3750 C.ar  268  PHE268     -0.0000
     81  N         41.9740   31.2010   33.4820 N.am  269  PHE269     -0.1976
     82  CA        42.5160   30.6100   34.7020 C.3   269  PHE269      0.1639
     83  C         43.0830   31.6980   35.6130 C.2   269  PHE269      0.2290
     84  O         43.8600   32.5450   35.1690 O.2   269  PHE269     -0.2864
     85  CB        43.6100   29.5760   34.3920 C.3   269  PHE269      0.0560
     86  CG        44.4310   29.1750   35.6040 C.ar  269  PHE269     -0.0200
     87  CD1       43.8810   28.3690   36.6030 C.ar  269  PHE269     -0.0042
     88  CD2       45.7490   29.6150   35.7500 C.ar  269  PHE269     -0.0042
     89  CE1       44.6270   28.0030   37.7240 C.ar  269  PHE269     -0.0003
     90  CE2       46.5080   29.2510   36.8640 C.ar  269  PHE269     -0.0003
     91  CZ        45.9470   28.4420   37.8540 C.ar  269  PHE269     -0.0000
     92  N         41.2630   28.6160   45.4660 N.3   275  ARG275     -0.1245
     93  CA        40.9420   27.6290   44.4290 C.3   275  ARG275      0.1563
     94  C         41.8660   26.4120   44.5150 C.2   275  ARG275      0.2260
     95  O         41.4160   25.2730   44.3710 O.2   275  ARG275     -0.2867
     96  CB        40.9760   28.2590   43.0300 C.3   275  ARG275      0.0307
     97  CG        40.8530   27.2750   41.8530 C.3   275  ARG275      0.0489
     98  CD        39.4830   26.5810   41.7650 C.3   275  ARG275      0.2205
     99  NE        39.3940   25.7720   40.5490 N.pl3 275  ARG275     -0.0865
    100  CZ        38.2590   25.3650   39.9800 C.cat 275  ARG275      0.5346
    101  NH1       37.0820   25.6710   40.5150 N.pl3 275  ARG275      0.1354
    102  NH2       38.3060   24.6490   38.8620 N.pl3 275  ARG275      0.1354
    103  N         38.9710   17.3430   33.4260 N.3   313  ASP313     -0.1239
    104  CA        39.9590   18.4110   33.2230 C.3   313  ASP313      0.1674
    105  C         41.1260   18.2520   34.2040 C.2   313  ASP313      0.2266
    106  O         41.2490   17.2170   34.8510 O.2   313  ASP313     -0.2867
    107  CB        39.3230   19.8010   33.3290 C.3   313  ASP313      0.1410
    108  CG        39.9460   20.7960   32.3710 C.2   313  ASP313      0.3668
    109  OD1       41.1520   21.0890   32.5010 O.co2 313  ASP313     -0.2456
    110  OD2       39.2310   21.2700   31.4670 O.co2 313  ASP313     -0.2456
    111  N         41.5340   20.0640   36.8620 N.3   315  HIS315     -0.1241
    112  CA        41.1530   20.5900   38.1760 C.3   315  HIS315      0.1621
    113  C         41.4490   19.6180   39.3380 C.2   315  HIS315      0.2264
    114  O         41.8870   20.0560   40.3970 O.2   315  HIS315     -0.2867
    115  CB        39.7090   21.1280   38.1950 C.3   315  HIS315      0.0745
    116  CG        39.3610   21.9760   37.0070 C.ar  315  HIS315      0.0817
    117  ND1       38.0800   22.0650   36.5080 N.ar  315  HIS315     -0.2268
    118  CD2       40.1310   22.7520   36.2040 C.ar  315  HIS315      0.1154
    119  CE1       38.0720   22.8720   35.4600 C.ar  315  HIS315      0.1986
    120  NE2       39.3060   23.2980   35.2510 N.ar  315  HIS315     -0.2212
    121  N         39.1710   19.6110   27.8540 N.3   351  HIS351     -0.1226
    122  CA        37.9500   20.2810   27.4080 C.3   351  HIS351      0.1752
    123  C         38.1800   21.5760   26.6200 C.2   351  HIS351      0.2596
    124  O         37.2140   22.2400   26.2480 O.2   351  HIS351     -0.2718
    125  CB        37.0440   20.5930   28.6040 C.3   351  HIS351      0.0759
    126  CG        36.5930   19.3850   29.3600 C.ar  351  HIS351      0.0818
    127  ND1       35.4190   18.7230   29.0740 N.ar  351  HIS351     -0.2268
    128  CD2       37.1490   18.7340   30.4090 C.ar  351  HIS351      0.1154
    129  CE1       35.2740   17.7110   29.9110 C.ar  351  HIS351      0.1986
    130  NE2       36.3100   17.6980   30.7320 N.ar  351  HIS351     -0.2212
    131  N         39.4380   21.9490   26.3810 N.am  352  THR352     -0.1953
    132  CA        39.7340   23.1670   25.6110 C.3   352  THR352      0.1897
    133  C         41.1730   23.2550   25.1120 C.2   352  THR352      0.2313
    134  O         42.0830   22.6630   25.6980 O.2   352  THR352     -0.2863
    135  CB        39.3770   24.4760   26.3820 C.3   352  THR352      0.1794
    136  OG1       39.4990   25.5980   25.4960 O.3   352  THR352     -0.2208
    137  CG2       40.2960   24.6820   27.5960 C.3   352  THR352      0.0378
    138  N         42.8140   29.2650   29.3830 N.3   357  ALA357     -0.1245
    139  CA        41.9470   28.4330   30.2210 C.3   357  ALA357      0.1562
    140  C         42.6800   27.2250   30.8100 C.2   357  ALA357      0.2260
    141  O         42.0840   26.4250   31.5380 O.2   357  ALA357     -0.2867
    142  CB        40.7150   27.9810   29.4320 C.3   357  ALA357      0.0290
    143  N         45.3810   25.3950   33.2890 N.3   359  GLU359     -0.1245
    144  CA        45.9020   25.6270   34.6290 C.3   359  GLU359      0.1567
    145  C         47.4230   25.5790   34.6600 C.2   359  GLU359      0.2260
    146  O         48.0260   24.5720   34.2990 O.2   359  GLU359     -0.2867
    147  CB        45.3490   24.6010   35.6140 C.3   359  GLU359      0.0388
    148  CG        43.8630   24.7200   35.8860 C.3   359  GLU359      0.1160
    149  CD        43.4580   23.9400   37.1110 C.2   359  GLU359      0.3649
    150  OE1       43.5540   22.6920   37.0910 O.co2 359  GLU359     -0.2457
    151  OE2       43.0560   24.5810   38.1010 O.co2 359  GLU359     -0.2457
    152  N         37.0820   15.5420   23.4390 N.3   429  VAL429     -0.1245
    153  CA        35.6400   15.3710   23.6640 C.3   429  VAL429      0.1561
    154  C         34.7940   15.4530   22.3900 C.2   429  VAL429      0.2260
    155  O         33.5620   15.4540   22.4560 O.2   429  VAL429     -0.2867
    156  CB        35.1150   16.3570   24.7430 C.3   429  VAL429      0.0252
    157  CG1       35.6400   15.9650   26.1240 C.3   429  VAL429      0.0019
    158  CG2       35.4940   17.7920   24.4070 C.3   429  VAL429      0.0019
    159  N         31.4250   13.6430   23.2330 N.3   458  ASN458     -0.1240
    160  CA        30.4490   13.9480   24.2720 C.3   458  ASN458      0.1653
    161  C         29.0330   13.4910   23.9250 C.2   458  ASN458      0.2266
    162  O         28.7250   13.1710   22.7730 O.2   458  ASN458     -0.2867
    163  CB        30.4500   15.4560   24.5700 C.3   458  ASN458      0.1155
    164  CG        31.6090   15.8900   25.4790 C.2   458  ASN458      0.2627
    165  OD1       31.8830   17.0870   25.6190 O.2   458  ASN458     -0.2716
    166  ND2       32.2750   14.9280   26.1070 N.am  458  ASN458     -0.0877
    167  N         34.7480   33.6150   22.0380 N.3   547  TYR547     -0.1227
    168  CA        34.8930   32.5120   21.0830 C.3   547  TYR547      0.1736
    169  C         33.5670   31.9360   20.5970 C.2   547  TYR547      0.2595
    170  O         33.4990   31.4490   19.4730 O.2   547  TYR547     -0.2718
    171  CB        35.8540   31.4180   21.5830 C.3   547  TYR547      0.0548
    172  CG        35.2670   30.3220   22.4510 C.ar  547  TYR547     -0.0200
    173  CD1       34.7030   29.1750   21.8780 C.ar  547  TYR547     -0.0009
    174  CD2       35.3290   30.3980   23.8470 C.ar  547  TYR547     -0.0009
    175  CE1       34.1860   28.1600   22.6660 C.ar  547  TYR547      0.0417
    176  CE2       34.8140   29.3770   24.6470 C.ar  547  TYR547      0.0417
    177  CZ        34.2450   28.2650   24.0480 C.ar  547  TYR547      0.1957
    178  OH        33.7340   27.2510   24.8300 O.3   547  TYR547     -0.2866
    179  N         32.5310   31.9950   21.4380 N.am  548  LYS548     -0.1980
    180  CA        31.1960   31.4970   21.0770 C.3   548  LYS548      0.1596
    181  C         30.4470   32.4760   20.1580 C.2   548  LYS548      0.2287
    182  O         29.3950   32.1440   19.6100 O.2   548  LYS548     -0.2864
    183  CB        30.3660   31.1910   22.3370 C.3   548  LYS548      0.0298
    184  CG        30.8910   30.0240   23.1730 C.3   548  LYS548      0.0038
    185  CD        30.1570   29.9340   24.5200 C.3   548  LYS548      0.0206
    186  CE        30.7400   28.8690   25.4420 C.3   548  LYS548      0.1093
    187  NZ        30.4030   27.4850   24.9960 N.3   548  LYS548     -0.1314
    188  N         35.5610   25.6620   19.9760 N.3   646  GLU646     -0.1231
    189  CA        34.6260   24.9420   20.8570 C.3   646  GLU646      0.1699
    190  C         34.9690   23.4510   20.8310 C.2   646  GLU646      0.2592
    191  O         34.7820   22.8010   19.8090 O.2   646  GLU646     -0.2718
    192  CB        33.1750   25.1740   20.4140 C.3   646  GLU646      0.0402
    193  CG        32.1130   24.6210   21.3630 C.3   646  GLU646      0.1161
    194  CD        31.9340   25.4880   22.5950 C.2   646  GLU646      0.3649
    195  OE1       31.1900   26.4920   22.5180 O.co2 646  GLU646     -0.2457
    196  OE2       32.5620   25.1770   23.6290 O.co2 646  GLU646     -0.2457
    197  N         35.4830   22.9150   21.9390 N.am  647  ALA647     -0.1966
    198  CA        35.9670   21.5300   21.9610 C.3   647  ALA647      0.1728
    199  C         34.9000   20.5410   21.4740 C.2   647  ALA647      0.2617
    200  O         35.1610   19.7110   20.5960 O.2   647  ALA647     -0.2715
    201  CB        36.4760   21.1440   23.3430 C.3   647  ALA647      0.0334
    202  N         33.6990   20.6450   22.0370 N.am  648  SER648     -0.1936
    203  CA        32.5900   19.8150   21.5980 C.3   648  SER648      0.2055
    204  C         31.3110   20.6240   21.4800 C.2   648  SER648      0.2644
    205  O         30.7250   20.7210   20.3930 O.2   648  SER648     -0.2714
    206  CB        32.3910   18.6410   22.5590 C.3   648  SER648      0.2130
    207  OG        31.2070   17.9300   22.2580 O.3   648  SER648     -0.2179
    208  N         30.9010   21.2250   22.5970 N.am  649  GLY649     -0.1939
    209  CA        29.5350   21.7090   22.7560 C.3   649  GLY649      0.2014
    210  C         28.6630   20.5350   23.1710 C.2   649  GLY649      0.2639
    211  O         28.9470   19.3920   22.8090 O.2   649  GLY649     -0.2714
    212  N         27.6210   20.8080   23.9520 N.am  650  THR650     -0.1950
    213  CA        26.6250   19.7930   24.3060 C.3   650  THR650      0.1897
    214  C         25.2230   20.3580   24.1570 C.2   650  THR650      0.2313
    215  O         24.2700   19.6140   23.9160 O.2   650  THR650     -0.2863
    216  CB        26.7930   19.2510   25.7410 C.3   650  THR650      0.1794
    217  OG1       26.9120   20.3460   26.6520 O.3   650  THR650     -0.2208
    218  CG2       28.0220   18.3580   25.8500 C.3   650  THR650      0.0378
@<TRIPOS>BOND
     1   170   169    2
     2   182   181    2
     3   191   190    2
     4   188   189    1
     5   181   180    1
     6   205   204    2
     7   192   189    1
     8   192   193    1
     9   200   199    2
    10   169   168    1
    11   169   179   am
    12   190   189    1
    13   190   197   am
    14   180   179    1
    15   180   183    1
    16   168   171    1
    17   168   167    1
    18   193   194    1
    19   199   198    1
    20   199   202   am
    21   204   203    1
    22   204   208   am
    23   171   172    1
    24   203   202    1
    25   203   206    1
    26   173   172   ar
    27   173   175   ar
    28   197   198    1
    29   198   201    1
    30   207   206    1
    31   183   184    1
    32   154   155    2
    33   154   153    1
    34   172   174   ar
    35   195   194   ar
    36   194   196   ar
    37   208   209    1
    38   175   177   ar
    39   209   210    1
    40   162   161    2
    41   211   210    2
    42   210   212   am
    43   184   185    1
    44   159   160    1
    45   152   153    1
    46   153   156    1
    47   174   176   ar
    48   215   214    2
    49   161   160    1
    50   212   213    1
    51   177   176   ar
    52   177   178    1
    53   214   213    1
    54   160   163    1
    55   213   216    1
    56   158   156    1
    57   185   186    1
    58   163   164    1
    59   156   157    1
    60   187   186    1
    61   133   132    1
    62   133   134    2
    63   164   165    2
    64   164   166   am
    65   136   135    1
    66   132   131    1
    67   132   135    1
    68   216   218    1
    69   216   217    1
    70   124   123    2
    71   131   123   am
    72   135   137    1
    73   123   122    1
    74   122   121    1
    75   122   125    1
    76    40    39    1
    77   125   126    1
    78   127   126   ar
    79   127   129   ar
    80   126   128   ar
    81   138   139    1
    82   142   139    1
    83    41    39    1
    84    23    22    1
    85    23    24    1
    86    39    38    1
    87   129   130   ar
    88   139   140    1
    89    22    20   am
    90    24    25    2
    91    24    26   am
    92   128   130   ar
    93    38    35    1
    94    65    64    2
    95   140   141    2
    96    26    27    1
    97    76    78   ar
    98    76    75   ar
    99    78    80   ar
   100    69    67   ar
   101    35    34    1
   102    35    36    1
   103   110   108   ar
   104    20    19    1
   105    20    21    2
   106    27    30    1
   107    27    28    1
   108    64    63    1
   109    67    68   ar
   110    67    66    1
   111    70    71    1
   112    19    18    1
   113    30    31    1
   114    71    74    1
   115    71    72    1
   116    74    75    1
   117    75    77   ar
   118    37    36    2
   119   108   109   ar
   120   108   107    1
   121    80    79   ar
   122    66    63    1
   123    32    31    1
   124    28    29    2
   125    63    62    1
   126    31    33    1
   127   104   107    1
   128   104   103    1
   129   104   105    1
   130   143   144    1
   131    18    12   am
   132    81    72   am
   133    81    82    1
   134    72    73    2
   135    77    79   ar
   136    13    12    2
   137    62    56   am
   138    12    11    1
   139   105   106    2
   140   146   145    2
   141    85    82    1
   142    85    86    1
   143   144   145    1
   144   144   147    1
   145    82    83    1
   146    14    11    1
   147    14    15    1
   148    56    57    2
   149    56    55    1
   150    84    83    2
   151   120   119   ar
   152   120   118   ar
   153    11    10    1
   154   119   117   ar
   155    86    88   ar
   156    86    87   ar
   157   147   148    1
   158    88    90   ar
   159   148   149    1
   160    55    58    1
   161    55    54    1
   162     8     7   ar
   163    15    16    2
   164    15    17   am
   165   118   116   ar
   166    58    59    1
   167   117   116   ar
   168    87    89   ar
   169     9     7   ar
   170     7     6    1
   171   111   112    1
   172    90    91   ar
   173   116   115    1
   174    61    59   am
   175   150   149   ar
   176   149   151   ar
   177    59    60    2
   178    89    91   ar
   179     5     6    1
   180     5     2    1
   181     4     3    2
   182   112   115    1
   183   112   113    1
   184     3     2    1
   185   102   100    1
   186     2     1    1
   187    45    44    2
   188   113   114    2
   189    44    43    1
   190   100   101    1
   191   100    99    2
   192    99    98    1
   193    46    43    1
   194    46    47    1
   195    43    42    1
   196    98    97    1
   197    97    96    1
   198    49    47   ar
   199    49    51   ar
   200    47    48   ar
   201    96    93    1
   202    51    52   ar
   203    48    50   ar
   204    52    50   ar
   205    52    53    1
   206    95    94    2
   207    93    94    1
   208    93    92    1
