@<TRIPOS>MOLECULE
tmp/3zcrA02.pdb
 226 217 0 0 0
SMALL
GASTEIGER

@<TRIPOS>ATOM
      1  N         33.0340   20.2820   39.4430 N.3    77  GLU77      -0.1245
      2  CA        31.7240   20.7580   39.0200 C.3    77  GLU77       0.1567
      3  C         30.7550   19.6160   38.7400 C.2    77  GLU77       0.2260
      4  O         31.0980   18.6620   38.0340 O.2    77  GLU77      -0.2867
      5  CB        31.8500   21.6520   37.7790 C.3    77  GLU77       0.0388
      6  CG        32.6610   22.9370   37.9880 C.3    77  GLU77       0.1160
      7  CD        32.5960   23.8690   36.7940 C.2    77  GLU77       0.3649
      8  OE1       31.6380   23.7610   35.9930 O.co2  77  GLU77      -0.2457
      9  OE2       33.5000   24.7190   36.6550 O.co2  77  GLU77      -0.2457
     10  N         29.5700   25.5780   36.0650 N.3   122  ASN122     -0.1225
     11  CA        29.5720   26.7660   35.2110 C.3   122  ASN122      0.1785
     12  C         28.7960   26.6020   33.9040 C.2   122  ASN122      0.2598
     13  O         28.0720   27.5020   33.4870 O.2   122  ASN122     -0.2718
     14  CB        31.0200   27.1580   34.8870 C.3   122  ASN122      0.1169
     15  CG        31.6510   27.9810   35.9820 C.2   122  ASN122      0.2627
     16  OD1       31.2350   29.1130   36.2330 O.2   122  ASN122     -0.2716
     17  ND2       32.6550   27.4180   36.6490 N.am  122  ASN122     -0.0877
     18  N         28.9770   25.4590   33.2500 N.am  123  GLY123     -0.1942
     19  CA        28.4080   25.2260   31.9270 C.3   123  GLY123      0.2014
     20  C         28.6000   23.7980   31.4730 C.2   123  GLY123      0.2639
     21  O         28.2380   22.8620   32.1920 O.2   123  GLY123     -0.2714
     22  N         29.1920   23.6360   30.2890 N.am  124  GLY124     -0.1939
     23  CA        29.2620   22.3430   29.6060 C.3   124  GLY124      0.2014
     24  C         30.0110   21.2360   30.3270 C.2   124  GLY124      0.2638
     25  O         29.5670   20.0830   30.3530 O.2   124  GLY124     -0.2714
     26  N         31.1600   21.5870   30.9040 N.am  125  LEU125     -0.1977
     27  CA        31.9850   20.6380   31.6490 C.3   125  LEU125      0.1596
     28  C         31.2530   20.1230   32.8940 C.2   125  LEU125      0.2287
     29  O         31.2890   18.9280   33.1990 O.2   125  LEU125     -0.2864
     30  CB        33.3200   21.3100   32.0200 C.3   125  LEU125      0.0297
     31  CG        34.2910   20.7380   33.0520 C.3   125  LEU125      0.0022
     32  CD1       35.7120   21.2200   32.7330 C.3   125  LEU125      0.0001
     33  CD2       33.8920   21.1490   34.4650 C.3   125  LEU125      0.0001
     34  N         28.2590   17.9980   31.7410 N.3   128  LEU128     -0.1245
     35  CA        28.7370   16.7120   31.2300 C.3   128  LEU128      0.1561
     36  C         28.8930   15.6980   32.3620 C.2   128  LEU128      0.2260
     37  O         28.5100   14.5380   32.2160 O.2   128  LEU128     -0.2867
     38  CB        30.0620   16.8690   30.4650 C.3   128  LEU128      0.0270
     39  CG        30.5480   15.6160   29.7210 C.3   128  LEU128      0.0019
     40  CD1       29.7790   15.4170   28.4120 C.3   128  LEU128      0.0001
     41  CD2       32.0480   15.6810   29.4610 C.3   128  LEU128      0.0001
     42  N         33.8690   28.9050   42.0530 N.3   260  TYR260     -0.1241
     43  CA        34.5300   29.8950   41.2040 C.3   260  TYR260      0.1605
     44  C         33.8430   29.9640   39.8410 C.2   260  TYR260      0.2264
     45  O         33.7930   28.9620   39.1240 O.2   260  TYR260     -0.2867
     46  CB        36.0160   29.5740   41.0520 C.3   260  TYR260      0.0534
     47  CG        36.8440   30.1410   42.1770 C.ar  260  TYR260     -0.0201
     48  CD1       36.9530   29.4700   43.3990 C.ar  260  TYR260     -0.0009
     49  CD2       37.4910   31.3690   42.0340 C.ar  260  TYR260     -0.0009
     50  CE1       37.7100   30.0040   44.4490 C.ar  260  TYR260      0.0417
     51  CE2       38.2480   31.9130   43.0780 C.ar  260  TYR260      0.0417
     52  CZ        38.3510   31.2270   44.2750 C.ar  260  TYR260      0.1957
     53  OH        39.0980   31.7650   45.2960 O.3   260  TYR260     -0.2866
     54  N         34.6260   31.8520   37.1430 N.3   262  ASN262     -0.1225
     55  CA        35.4160   32.2100   35.9680 C.3   262  ASN262      0.1785
     56  C         35.6300   30.9730   35.1010 C.2   262  ASN262      0.2597
     57  O         36.2290   29.9930   35.5430 O.2   262  ASN262     -0.2718
     58  CB        36.7420   32.9100   36.3360 C.3   262  ASN262      0.1169
     59  CG        37.5820   32.1160   37.3270 C.2   262  ASN262      0.2627
     60  OD1       37.1070   31.7400   38.4030 O.2   262  ASN262     -0.2716
     61  ND2       38.8450   31.8690   36.9740 N.am  262  ASN262     -0.0877
     62  N         35.0890   30.9970   33.8880 N.am  263  ASP263     -0.1960
     63  CA        35.2650   29.8830   32.9630 C.3   263  ASP263      0.1840
     64  C         36.0260   30.3310   31.7130 C.2   263  ASP263      0.2622
     65  O         36.0780   29.6140   30.7160 O.2   263  ASP263     -0.2715
     66  CB        33.9120   29.2460   32.6050 C.3   263  ASP263      0.1450
     67  CG        32.9940   30.1880   31.8390 C.2   263  ASP263      0.3671
     68  OD1       33.1550   31.4200   31.9540 O.co2 263  ASP263     -0.2456
     69  OD2       32.1050   29.6910   31.1090 O.co2 263  ASP263     -0.2456
     70  N         36.6190   31.5220   31.7840 N.am  264  ASN264     -0.1958
     71  CA        37.3190   32.1000   30.6390 C.3   264  ASN264      0.1819
     72  C         38.8360   32.2390   30.7950 C.2   264  ASN264      0.2621
     73  O         39.5710   32.0810   29.8210 O.2   264  ASN264     -0.2715
     74  CB        36.7080   33.4500   30.2580 C.3   264  ASN264      0.1195
     75  CG        36.9290   34.5200   31.3150 C.2   264  ASN264      0.2630
     76  OD1       36.5230   34.3670   32.4690 O.2   264  ASN264     -0.2716
     77  ND2       37.5670   35.6200   30.9170 N.am  264  ASN264     -0.0877
     78  N         39.2960   32.5400   32.0070 N.am  265  PHE265     -0.1960
     79  CA        40.6920   32.9230   32.2260 C.3   265  PHE265      0.1771
     80  C         41.2260   32.3190   33.5220 C.2   265  PHE265      0.2619
     81  O         40.6600   32.5400   34.5950 O.2   265  PHE265     -0.2715
     82  CB        40.7990   34.4550   32.2750 C.3   265  PHE265      0.0574
     83  CG        42.2010   34.9830   32.1100 C.ar  265  PHE265     -0.0200
     84  CD1       42.7050   35.2720   30.8430 C.ar  265  PHE265     -0.0042
     85  CD2       43.0060   35.2230   33.2200 C.ar  265  PHE265     -0.0042
     86  CE1       44.0020   35.7760   30.6820 C.ar  265  PHE265     -0.0003
     87  CE2       44.3060   35.7230   33.0730 C.ar  265  PHE265     -0.0003
     88  CZ        44.8040   35.9990   31.8030 C.ar  265  PHE265     -0.0000
     89  N         42.3140   31.5590   33.4230 N.am  266  PHE266     -0.1974
     90  CA        42.9240   30.9750   34.6140 C.3   266  PHE266      0.1639
     91  C         43.5710   32.0500   35.4830 C.2   266  PHE266      0.2290
     92  O         44.4290   32.8000   35.0230 O.2   266  PHE266     -0.2864
     93  CB        43.9490   29.8830   34.2660 C.3   266  PHE266      0.0560
     94  CG        44.7260   29.3740   35.4640 C.ar  266  PHE266     -0.0200
     95  CD1       44.1210   28.5390   36.4010 C.ar  266  PHE266     -0.0042
     96  CD2       46.0550   29.7500   35.6650 C.ar  266  PHE266     -0.0042
     97  CE1       44.8290   28.0720   37.5120 C.ar  266  PHE266     -0.0003
     98  CE2       46.7680   29.2920   36.7720 C.ar  266  PHE266     -0.0003
     99  CZ        46.1530   28.4460   37.6940 C.ar  266  PHE266     -0.0000
    100  N         41.2350   28.6900   45.4230 N.3   272  ARG272     -0.1245
    101  CA        40.9180   27.7070   44.3850 C.3   272  ARG272      0.1563
    102  C         41.8560   26.4940   44.4330 C.2   272  ARG272      0.2260
    103  O         41.4160   25.3560   44.2610 O.2   272  ARG272     -0.2867
    104  CB        40.9280   28.3630   43.0010 C.3   272  ARG272      0.0307
    105  CG        40.8520   27.3990   41.8190 C.3   272  ARG272      0.0489
    106  CD        39.4830   26.7350   41.6680 C.3   272  ARG272      0.2205
    107  NE        39.4230   25.9910   40.4120 N.pl3 272  ARG272     -0.0865
    108  CZ        38.3220   25.4610   39.8800 C.cat 272  ARG272      0.5346
    109  NH1       37.1470   25.5690   40.4880 N.pl3 272  ARG272      0.1354
    110  NH2       38.4050   24.8160   38.7220 N.pl3 272  ARG272      0.1354
    111  N         38.9090   17.3970   33.2920 N.3   310  ASP310     -0.1239
    112  CA        39.9070   18.4570   33.0840 C.3   310  ASP310      0.1674
    113  C         41.0770   18.2990   34.0670 C.2   310  ASP310      0.2266
    114  O         41.2080   17.2560   34.7190 O.2   310  ASP310     -0.2867
    115  CB        39.2810   19.8580   33.1670 C.3   310  ASP310      0.1410
    116  CG        39.9350   20.8440   32.2090 C.2   310  ASP310      0.3668
    117  OD1       41.1460   21.1180   32.3400 O.co2 310  ASP310     -0.2456
    118  OD2       39.2380   21.3310   31.3020 O.co2 310  ASP310     -0.2456
    119  N         41.4910   20.0790   36.7210 N.3   312  HIS312     -0.1241
    120  CA        41.1120   20.6240   38.0240 C.3   312  HIS312      0.1621
    121  C         41.4090   19.6720   39.1950 C.2   312  HIS312      0.2264
    122  O         41.8440   20.1320   40.2530 O.2   312  HIS312     -0.2867
    123  CB        39.6650   21.1500   38.0260 C.3   312  HIS312      0.0745
    124  CG        39.3200   21.9780   36.8220 C.ar  312  HIS312      0.0817
    125  ND1       38.0240   22.1630   36.3920 N.ar  312  HIS312     -0.2268
    126  CD2       40.1040   22.6580   35.9470 C.ar  312  HIS312      0.1154
    127  CE1       38.0220   22.9280   35.3130 C.ar  312  HIS312      0.1986
    128  NE2       39.2720   23.2400   35.0210 N.ar  312  HIS312     -0.2212
    129  N         39.1610   19.6660   27.7090 N.3   348  HIS348     -0.1226
    130  CA        37.9430   20.3360   27.2630 C.3   348  HIS348      0.1752
    131  C         38.1680   21.6400   26.4870 C.2   348  HIS348      0.2596
    132  O         37.1970   22.2900   26.1000 O.2   348  HIS348     -0.2718
    133  CB        37.0200   20.6310   28.4530 C.3   348  HIS348      0.0759
    134  CG        36.5710   19.4170   29.2050 C.ar  348  HIS348      0.0818
    135  ND1       35.4070   18.7410   28.9050 N.ar  348  HIS348     -0.2268
    136  CD2       37.1080   18.7860   30.2760 C.ar  348  HIS348      0.1154
    137  CE1       35.2560   17.7350   29.7480 C.ar  348  HIS348      0.1986
    138  NE2       36.2760   17.7390   30.5890 N.ar  348  HIS348     -0.2212
    139  N         39.4250   22.0380   26.2750 N.am  349  THR349     -0.1953
    140  CA        39.7290   23.2740   25.5200 C.3   349  THR349      0.1897
    141  C         41.1710   23.3320   25.0000 C.2   349  THR349      0.2313
    142  O         42.0760   22.7420   25.5960 O.2   349  THR349     -0.2863
    143  CB        39.4210   24.5700   26.3350 C.3   349  THR349      0.1794
    144  OG1       39.5580   25.7220   25.4870 O.3   349  THR349     -0.2208
    145  CG2       40.3550   24.7100   27.5450 C.3   349  THR349      0.0378
    146  N         42.7890   29.2880   29.2610 N.3   354  ALA354     -0.1245
    147  CA        41.9080   28.4520   30.0780 C.3   354  ALA354      0.1562
    148  C         42.6220   27.2060   30.6060 C.2   354  ALA354      0.2260
    149  O         41.9960   26.3210   31.2000 O.2   354  ALA354     -0.2867
    150  CB        40.6600   28.0690   29.2900 C.3   354  ALA354      0.0290
    151  N         45.4080   25.3990   33.1260 N.3   356  GLU356     -0.1245
    152  CA        45.9390   25.6250   34.4640 C.3   356  GLU356      0.1567
    153  C         47.4590   25.5670   34.4830 C.2   356  GLU356      0.2260
    154  O         48.0570   24.5600   34.0930 O.2   356  GLU356     -0.2867
    155  CB        45.3700   24.6150   35.4580 C.3   356  GLU356      0.0388
    156  CG        43.8670   24.7460   35.6860 C.3   356  GLU356      0.1160
    157  CD        43.4110   23.9810   36.8990 C.2   356  GLU356      0.3649
    158  OE1       43.4030   22.7340   36.8570 O.co2 356  GLU356     -0.2457
    159  OE2       43.0650   24.6300   37.9030 O.co2 356  GLU356     -0.2457
    160  N         37.0440   15.6020   23.3210 N.3   426  VAL426     -0.1245
    161  CA        35.5960   15.4490   23.5460 C.3   426  VAL426      0.1561
    162  C         34.7450   15.5160   22.2720 C.2   426  VAL426      0.2260
    163  O         33.5150   15.5440   22.3380 O.2   426  VAL426     -0.2867
    164  CB        35.0800   16.4440   24.6240 C.3   426  VAL426      0.0252
    165  CG1       35.5680   16.0190   26.0080 C.3   426  VAL426      0.0019
    166  CG2       35.5020   17.8720   24.3080 C.3   426  VAL426      0.0019
    167  N         31.3680   13.7040   23.0890 N.3   455  ASN455     -0.1240
    168  CA        30.4010   13.9960   24.1360 C.3   455  ASN455      0.1653
    169  C         28.9830   13.5510   23.7780 C.2   455  ASN455      0.2266
    170  O         28.6780   13.2490   22.6220 O.2   455  ASN455     -0.2867
    171  CB        30.3950   15.5040   24.4540 C.3   455  ASN455      0.1155
    172  CG        31.5480   15.9320   25.3790 C.2   455  ASN455      0.2627
    173  OD1       31.8030   17.1310   25.5490 O.2   455  ASN455     -0.2716
    174  ND2       32.2320   14.9650   25.9800 N.am  455  ASN455     -0.0877
    175  N         34.7680   33.6340   22.0220 N.3   544  TYR544     -0.1227
    176  CA        34.8880   32.5270   21.0590 C.3   544  TYR544      0.1736
    177  C         33.5460   31.9540   20.6050 C.2   544  TYR544      0.2595
    178  O         33.4470   31.4410   19.4940 O.2   544  TYR544     -0.2718
    179  CB        35.8570   31.4340   21.5400 C.3   544  TYR544      0.0548
    180  CG        35.2830   30.3480   22.4190 C.ar  544  TYR544     -0.0200
    181  CD1       34.7360   29.1910   21.8550 C.ar  544  TYR544     -0.0009
    182  CD2       35.3260   30.4490   23.8130 C.ar  544  TYR544     -0.0009
    183  CE1       34.2290   28.1800   22.6460 C.ar  544  TYR544      0.0417
    184  CE2       34.8110   29.4320   24.6220 C.ar  544  TYR544      0.0417
    185  CZ        34.2670   28.3020   24.0240 C.ar  544  TYR544      0.1957
    186  OH        33.7560   27.2830   24.7900 O.3   544  TYR544     -0.2866
    187  N         32.5250   32.0520   21.4570 N.am  545  LYS545     -0.1980
    188  CA        31.1910   31.5350   21.1250 C.3   545  LYS545      0.1596
    189  C         30.4390   32.4910   20.1900 C.2   545  LYS545      0.2287
    190  O         29.4110   32.1330   19.6130 O.2   545  LYS545     -0.2864
    191  CB        30.3760   31.2380   22.3980 C.3   545  LYS545      0.0298
    192  CG        30.9050   30.0620   23.2290 C.3   545  LYS545      0.0038
    193  CD        30.0960   29.8780   24.5210 C.3   545  LYS545      0.0206
    194  CE        30.7000   28.8360   25.4530 C.3   545  LYS545      0.1093
    195  NZ        30.5280   27.4390   24.9560 N.3   545  LYS545     -0.1314
    196  N         35.5050   25.7020   19.9220 N.3   643  GLU643     -0.1231
    197  CA        34.5720   24.9530   20.7780 C.3   643  GLU643      0.1699
    198  C         34.9260   23.4640   20.7300 C.2   643  GLU643      0.2592
    199  O         34.6920   22.8140   19.7190 O.2   643  GLU643     -0.2718
    200  CB        33.1190   25.1770   20.3220 C.3   643  GLU643      0.0402
    201  CG        32.0590   24.6360   21.2790 C.3   643  GLU643      0.1161
    202  CD        31.9230   25.4920   22.5210 C.2   643  GLU643      0.3649
    203  OE1       31.1480   26.4700   22.4820 O.co2 643  GLU643     -0.2457
    204  OE2       32.6160   25.2120   23.5210 O.co2 643  GLU643     -0.2457
    205  N         35.4980   22.9310   21.8110 N.am  644  ALA644     -0.1966
    206  CA        35.9760   21.5390   21.8220 C.3   644  ALA644      0.1728
    207  C         34.8960   20.5540   21.3570 C.2   644  ALA644      0.2617
    208  O         35.1500   19.6810   20.5230 O.2   644  ALA644     -0.2715
    209  CB        36.5030   21.1530   23.1950 C.3   644  ALA644      0.0334
    210  N         33.6850   20.7180   21.8830 N.am  645  SER645     -0.1936
    211  CA        32.5690   19.8790   21.4790 C.3   645  SER645      0.2055
    212  C         31.2910   20.6890   21.3790 C.2   645  SER645      0.2644
    213  O         30.7150   20.8320   20.2880 O.2   645  SER645     -0.2714
    214  CB        32.3970   18.7160   22.4640 C.3   645  SER645      0.2130
    215  OG        31.2660   17.9340   22.1420 O.3   645  SER645     -0.2179
    216  N         30.8720   21.2480   22.5140 N.am  646  GLY646     -0.1939
    217  CA        29.5130   21.7460   22.6690 C.3   646  GLY646      0.2014
    218  C         28.6300   20.5800   23.0820 C.2   646  GLY646      0.2639
    219  O         28.8840   19.4370   22.6970 O.2   646  GLY646     -0.2714
    220  N         27.6150   20.8570   23.8940 N.am  647  THR647     -0.1950
    221  CA        26.6190   19.8440   24.2540 C.3   647  THR647      0.1897
    222  C         25.2090   20.3940   24.0960 C.2   647  THR647      0.2313
    223  O         24.2700   19.6400   23.8370 O.2   647  THR647     -0.2863
    224  CB        26.7970   19.2990   25.6810 C.3   647  THR647      0.1794
    225  OG1       26.8970   20.3910   26.5990 O.3   647  THR647     -0.2208
    226  CG2       28.0380   18.4280   25.7780 C.3   647  THR647      0.0378
@<TRIPOS>BOND
     1   178   177    2
     2   190   189    2
     3   199   198    2
     4   196   197    1
     5   189   188    1
     6   213   212    2
     7   200   197    1
     8   200   201    1
     9   208   207    2
    10   177   176    1
    11   177   187   am
    12   198   197    1
    13   198   205   am
    14   176   179    1
    15   176   175    1
    16   188   187    1
    17   188   191    1
    18   201   202    1
    19   207   206    1
    20   207   210   am
    21   212   211    1
    22   212   216   am
    23   211   210    1
    24   211   214    1
    25   179   180    1
    26   205   206    1
    27   206   209    1
    28   181   180   ar
    29   181   183   ar
    30   215   214    1
    31   162   163    2
    32   162   161    1
    33   191   192    1
    34   180   182   ar
    35   203   202   ar
    36   216   217    1
    37   202   204   ar
    38   170   169    2
    39   183   185   ar
    40   217   218    1
    41   219   218    2
    42   218   220   am
    43   167   168    1
    44   192   193    1
    45   160   161    1
    46   161   164    1
    47   169   168    1
    48   182   184   ar
    49   223   222    2
    50   220   221    1
    51   185   184   ar
    52   185   186    1
    53   222   221    1
    54   168   171    1
    55   221   224    1
    56   166   164    1
    57   171   172    1
    58   193   194    1
    59   164   165    1
    60   195   194    1
    61   141   140    1
    62   141   142    2
    63   172   173    2
    64   172   174   am
    65   144   143    1
    66   140   139    1
    67   140   143    1
    68   224   226    1
    69   224   225    1
    70   132   131    2
    71   139   131   am
    72   143   145    1
    73   131   130    1
    74   130   129    1
    75   130   133    1
    76    40    39    1
    77   133   134    1
    78   135   134   ar
    79   135   137   ar
    80   134   136   ar
    81   146   147    1
    82   150   147    1
    83    41    39    1
    84    23    22    1
    85    23    24    1
    86    39    38    1
    87   137   138   ar
    88    73    72    2
    89   147   148    1
    90    74    71    1
    91    74    75    1
    92   136   138   ar
    93    22    20   am
    94    24    25    2
    95    24    26   am
    96    38    35    1
    97   148   149    2
    98    71    72    1
    99    71    70    1
   100    86    84   ar
   101    86    88   ar
   102    65    64    2
   103    72    78   am
   104    84    83   ar
   105    26    27    1
   106    77    75   am
   107    69    67   ar
   108    35    34    1
   109    35    36    1
   110   118   116   ar
   111    75    76    2
   112    20    19    1
   113    20    21    2
   114    27    30    1
   115    27    28    1
   116    64    70   am
   117    64    63    1
   118    88    87   ar
   119    67    68   ar
   120    67    66    1
   121    19    18    1
   122    78    79    1
   123    30    31    1
   124    83    82    1
   125    83    85   ar
   126   116   117   ar
   127   116   115    1
   128    37    36    2
   129    79    82    1
   130    79    80    1
   131    66    63    1
   132    32    31    1
   133    28    29    2
   134    63    62    1
   135    31    33    1
   136    87    85   ar
   137   112   115    1
   138   112   111    1
   139   112   113    1
   140   151   152    1
   141    18    12   am
   142    89    80   am
   143    89    90    1
   144    13    12    2
   145    80    81    2
   146    62    56   am
   147    12    11    1
   148   113   114    2
   149   154   153    2
   150    93    90    1
   151    93    94    1
   152   152   153    1
   153   152   155    1
   154    90    91    1
   155    14    11    1
   156    14    15    1
   157   128   127   ar
   158   128   126   ar
   159    92    91    2
   160    56    57    2
   161    56    55    1
   162    11    10    1
   163   127   125   ar
   164   155   156    1
   165    94    96   ar
   166    94    95   ar
   167    96    98   ar
   168   156   157    1
   169   126   124   ar
   170    55    58    1
   171    55    54    1
   172    15    16    2
   173    15    17   am
   174     8     7   ar
   175    58    59    1
   176   125   124   ar
   177    95    97   ar
   178     9     7   ar
   179   119   120    1
   180    98    99   ar
   181     7     6    1
   182   124   123    1
   183   158   157   ar
   184   157   159   ar
   185    61    59   am
   186    59    60    2
   187    97    99   ar
   188     5     6    1
   189     5     2    1
   190   120   123    1
   191   120   121    1
   192     4     3    2
   193   110   108    1
   194     3     2    1
   195     2     1    1
   196    45    44    2
   197   121   122    2
   198    44    43    1
   199   108   107    2
   200   108   109    1
   201   107   106    1
   202    46    43    1
   203    46    47    1
   204    43    42    1
   205   106   105    1
   206   105   104    1
   207    49    47   ar
   208    49    51   ar
   209    47    48   ar
   210   104   101    1
   211    51    52   ar
   212    48    50   ar
   213   103   102    2
   214    52    50   ar
   215    52    53    1
   216   101   102    1
   217   101   100    1
