@<TRIPOS>MOLECULE
tmp/3zcsA02.pdb
 217 209 0 0 0
SMALL
GASTEIGER

@<TRIPOS>ATOM
      1  N         32.9340   20.2530   39.4240 N.3    77  GLU77      -0.1245
      2  CA        31.6290   20.7430   39.0050 C.3    77  GLU77       0.1567
      3  C         30.6700   19.6010   38.6980 C.2    77  GLU77       0.2260
      4  O         31.0260   18.6630   37.9870 O.2    77  GLU77      -0.2867
      5  CB        31.7650   21.6670   37.7850 C.3    77  GLU77       0.0388
      6  CG        32.5710   22.9340   38.0600 C.3    77  GLU77       0.1160
      7  CD        32.5820   23.9040   36.9050 C.2    77  GLU77       0.3649
      8  OE1       31.6610   23.8630   36.0580 O.co2  77  GLU77      -0.2457
      9  OE2       33.5290   24.7120   36.8440 O.co2  77  GLU77      -0.2457
     10  N         29.4570   25.5970   36.0330 N.3   122  ASN122     -0.1225
     11  CA        29.4400   26.8070   35.2090 C.3   122  ASN122      0.1785
     12  C         28.6850   26.6340   33.8960 C.2   122  ASN122      0.2598
     13  O         27.9350   27.5110   33.4780 O.2   122  ASN122     -0.2718
     14  CB        30.8790   27.2230   34.8900 C.3   122  ASN122      0.1169
     15  CG        31.5050   28.0200   36.0030 C.2   122  ASN122      0.2627
     16  OD1       31.0990   29.1510   36.2680 O.2   122  ASN122     -0.2716
     17  ND2       32.4940   27.4340   36.6730 N.am  122  ASN122     -0.0877
     18  N         28.9070   25.5020   33.2410 N.am  123  GLY123     -0.1942
     19  CA        28.3300   25.2610   31.9350 C.3   123  GLY123      0.2014
     20  C         28.5440   23.8420   31.4820 C.2   123  GLY123      0.2639
     21  O         28.1900   22.8980   32.1930 O.2   123  GLY123     -0.2714
     22  N         29.1430   23.7020   30.3020 N.am  124  GLY124     -0.1939
     23  CA        29.2170   22.4210   29.6000 C.3   124  GLY124      0.2014
     24  C         29.9580   21.3250   30.3360 C.2   124  GLY124      0.2638
     25  O         29.5050   20.1790   30.3780 O.2   124  GLY124     -0.2714
     26  N         31.1060   21.6780   30.9150 N.am  125  LEU125     -0.1977
     27  CA        31.9240   20.7270   31.6580 C.3   125  LEU125      0.1596
     28  C         31.1910   20.2040   32.9020 C.2   125  LEU125      0.2287
     29  O         31.2290   19.0010   33.1970 O.2   125  LEU125     -0.2864
     30  CB        33.2710   21.3730   32.0170 C.3   125  LEU125      0.0297
     31  CG        34.2490   20.7940   33.0380 C.3   125  LEU125      0.0022
     32  CD1       35.6670   21.2690   32.6950 C.3   125  LEU125      0.0001
     33  CD2       33.8720   21.2160   34.4470 C.3   125  LEU125      0.0001
     34  N         28.2090   18.0190   31.7170 N.3   128  LEU128     -0.1245
     35  CA        28.6830   16.7370   31.2020 C.3   128  LEU128      0.1561
     36  C         28.8210   15.7150   32.3220 C.2   128  LEU128      0.2260
     37  O         28.4520   14.5570   32.1590 O.2   128  LEU128     -0.2867
     38  CB        30.0240   16.8860   30.4690 C.3   128  LEU128      0.0270
     39  CG        30.4830   15.6310   29.7060 C.3   128  LEU128      0.0019
     40  CD1       29.6940   15.4600   28.4230 C.3   128  LEU128      0.0001
     41  CD2       31.9860   15.6650   29.4120 C.3   128  LEU128      0.0001
     42  N         33.8270   28.8030   42.0010 N.3   260  TYR260     -0.1241
     43  CA        34.5250   29.7840   41.1610 C.3   260  TYR260      0.1605
     44  C         33.8340   29.8980   39.8060 C.2   260  TYR260      0.2264
     45  O         33.7070   28.9010   39.0950 O.2   260  TYR260     -0.2867
     46  CB        36.0010   29.4240   40.9890 C.3   260  TYR260      0.0534
     47  CG        36.8800   30.0390   42.0520 C.ar  260  TYR260     -0.0201
     48  CD1       37.0540   29.4120   43.2910 C.ar  260  TYR260     -0.0009
     49  CD2       37.5290   31.2540   41.8270 C.ar  260  TYR260     -0.0009
     50  CE1       37.8660   29.9810   44.2820 C.ar  260  TYR260      0.0417
     51  CE2       38.3410   31.8360   42.8150 C.ar  260  TYR260      0.0417
     52  CZ        38.5000   31.1920   44.0360 C.ar  260  TYR260      0.1957
     53  OH        39.2970   31.7560   45.0050 O.3   260  TYR260     -0.2866
     54  N         34.6650   31.7610   37.1300 N.3   262  ASN262     -0.1225
     55  CA        35.5180   32.2200   36.0420 C.3   262  ASN262      0.1785
     56  C         35.7860   31.0890   35.0550 C.2   262  ASN262      0.2597
     57  O         36.6160   30.2170   35.3170 O.2   262  ASN262     -0.2718
     58  CB        36.8320   32.7990   36.5930 C.3   262  ASN262      0.1169
     59  CG        37.7290   33.3790   35.5030 C.2   262  ASN262      0.2627
     60  OD1       37.6070   33.0370   34.3250 O.2   262  ASN262     -0.2716
     61  ND2       38.6430   34.2610   35.8980 N.am  262  ASN262     -0.0877
     62  N         35.0770   31.1050   33.9280 N.am  263  ASP263     -0.1960
     63  CA        35.2190   30.0570   32.9160 C.3   263  ASP263      0.1840
     64  C         35.9000   30.5670   31.6420 C.2   263  ASP263      0.2622
     65  O         35.7030   30.0070   30.5680 O.2   263  ASP263     -0.2715
     66  CB        33.8540   29.4130   32.5960 C.3   263  ASP263      0.1450
     67  CG        32.9020   30.3640   31.8810 C.2   263  ASP263      0.3671
     68  OD1       33.0450   31.5900   32.0400 O.co2 263  ASP263     -0.2456
     69  OD2       32.0130   29.8880   31.1370 O.co2 263  ASP263     -0.2456
     70  N         36.6980   31.6300   31.7580 N.am  264  ASN264     -0.1958
     71  CA        37.4290   32.1390   30.5920 C.3   264  ASN264      0.1819
     72  C         38.9530   32.2140   30.7280 C.2   264  ASN264      0.2621
     73  O         39.6720   32.0810   29.7360 O.2   264  ASN264     -0.2715
     74  CB        36.8580   33.4790   30.1170 C.3   264  ASN264      0.1195
     75  CG        37.2920   34.6490   30.9730 C.2   264  ASN264      0.2630
     76  OD1       37.0050   34.7050   32.1720 O.2   264  ASN264     -0.2716
     77  ND2       37.9650   35.6150   30.3490 N.am  264  ASN264     -0.0877
     78  N         39.4320   32.4180   31.9530 N.am  265  PHE265     -0.1960
     79  CA        40.8210   32.7890   32.2010 C.3   265  PHE265      0.1771
     80  C         41.3120   32.1080   33.4790 C.2   265  PHE265      0.2619
     81  O         40.6640   32.2040   34.5230 O.2   265  PHE265     -0.2715
     82  CB        40.8890   34.3170   32.3500 C.3   265  PHE265      0.0574
     83  CG        42.2710   34.8880   32.2770 C.ar  265  PHE265     -0.0200
     84  CD1       42.8850   35.1090   31.0420 C.ar  265  PHE265     -0.0042
     85  CD2       42.9480   35.2500   33.4390 C.ar  265  PHE265     -0.0042
     86  CE1       44.1710   35.6550   30.9640 C.ar  265  PHE265     -0.0003
     87  CE2       44.2350   35.8000   33.3770 C.ar  265  PHE265     -0.0003
     88  CZ        44.8470   36.0040   32.1360 C.ar  265  PHE265     -0.0000
     89  N         42.4450   31.4140   33.4020 N.am  266  PHE266     -0.1974
     90  CA        43.0300   30.8200   34.6030 C.3   266  PHE266      0.1639
     91  C         43.5730   31.8950   35.5430 C.2   266  PHE266      0.2290
     92  O         44.4400   32.6810   35.1610 O.2   266  PHE266     -0.2864
     93  CB        44.1330   29.8070   34.2640 C.3   266  PHE266      0.0560
     94  CG        44.9110   29.3290   35.4710 C.ar  266  PHE266     -0.0200
     95  CD1       44.3150   28.4970   36.4180 C.ar  266  PHE266     -0.0042
     96  CD2       46.2320   29.7270   35.6680 C.ar  266  PHE266     -0.0042
     97  CE1       45.0290   28.0570   37.5360 C.ar  266  PHE266     -0.0003
     98  CE2       46.9520   29.2920   36.7850 C.ar  266  PHE266     -0.0003
     99  CZ        46.3450   28.4520   37.7180 C.ar  266  PHE266     -0.0000
    100  N         41.3450   28.6070   45.2240 N.3   272  ARG272     -0.1245
    101  CA        41.0500   27.6190   44.1770 C.3   272  ARG272      0.1563
    102  C         41.9580   26.3850   44.2770 C.2   272  ARG272      0.2260
    103  O         41.4960   25.2490   44.1340 O.2   272  ARG272     -0.2867
    104  CB        41.1450   28.2660   42.7910 C.3   272  ARG272      0.0307
    105  CG        41.0310   27.3170   41.5980 C.3   272  ARG272      0.0489
    106  CD        39.6460   26.6830   41.4800 C.3   272  ARG272      0.2205
    107  NE        39.5010   25.9740   40.2100 N.pl3 272  ARG272     -0.0865
    108  CZ        38.3530   25.5000   39.7320 C.cat 272  ARG272      0.5346
    109  NH1       37.2230   25.6530   40.4100 N.pl3 272  ARG272      0.1354
    110  NH2       38.3380   24.8740   38.5610 N.pl3 272  ARG272      0.1354
    111  N         38.9270   17.4190   33.3050 N.3   310  ASP310     -0.1239
    112  CA        39.8680   18.5330   33.1200 C.3   310  ASP310      0.1674
    113  C         41.0530   18.3620   34.0820 C.2   310  ASP310      0.2266
    114  O         41.1810   17.3240   34.7360 O.2   310  ASP310     -0.2867
    115  CB        39.1710   19.8920   33.3100 C.3   310  ASP310      0.1410
    116  CG        39.7150   20.9690   32.3840 C.2   310  ASP310      0.3668
    117  OD1       40.9500   21.1140   32.2700 O.co2 310  ASP310     -0.2456
    118  OD2       38.9000   21.6850   31.7750 O.co2 310  ASP310     -0.2456
    119  N         41.5090   20.0870   36.7120 N.3   312  HIS312     -0.1241
    120  CA        41.1240   20.5960   38.0300 C.3   312  HIS312      0.1621
    121  C         41.4450   19.6300   39.1840 C.2   312  HIS312      0.2264
    122  O         41.9170   20.0680   40.2320 O.2   312  HIS312     -0.2867
    123  CB        39.6600   21.0810   38.0490 C.3   312  HIS312      0.0745
    124  CG        39.3170   21.9950   36.9090 C.ar  312  HIS312      0.0817
    125  ND1       38.0550   22.0620   36.3600 N.ar  312  HIS312     -0.2268
    126  CD2       40.0810   22.8610   36.1990 C.ar  312  HIS312      0.1154
    127  CE1       38.0500   22.9420   35.3740 C.ar  312  HIS312      0.1986
    128  NE2       39.2690   23.4380   35.2530 N.ar  312  HIS312     -0.2212
    129  N         39.1430   19.6930   27.7490 N.3   348  HIS348     -0.1226
    130  CA        37.9120   20.3650   27.3270 C.3   348  HIS348      0.1752
    131  C         38.1020   21.6670   26.5230 C.2   348  HIS348      0.2596
    132  O         37.1170   22.3080   26.1550 O.2   348  HIS348     -0.2718
    133  CB        37.0220   20.6540   28.5420 C.3   348  HIS348      0.0759
    134  CG        36.5840   19.4300   29.2850 C.ar  348  HIS348      0.0818
    135  ND1       35.4230   18.7500   28.9830 N.ar  348  HIS348     -0.2268
    136  CD2       37.1380   18.7810   30.3360 C.ar  348  HIS348      0.1154
    137  CE1       35.2850   17.7290   29.8110 C.ar  348  HIS348      0.1986
    138  NE2       36.3150   17.7230   30.6400 N.ar  348  HIS348     -0.2212
    139  N         39.3490   22.0680   26.2730 N.am  349  THR349     -0.1953
    140  CA        39.6260   23.2890   25.4910 C.3   349  THR349      0.1897
    141  C         41.0900   23.3750   25.0560 C.2   349  THR349      0.2313
    142  O         41.9730   22.9000   25.7700 O.2   349  THR349     -0.2863
    143  CB        39.2400   24.5920   26.2480 C.3   349  THR349      0.1794
    144  OG1       39.5700   25.7360   25.4440 O.3   349  THR349     -0.2208
    145  CG2       39.9550   24.6880   27.5940 C.3   349  THR349      0.0378
    146  N         43.2100   29.1370   29.2530 N.3   354  ALA354     -0.1245
    147  CA        42.4280   28.2510   30.1080 C.3   354  ALA354      0.1562
    148  C         43.3060   27.2350   30.8440 C.2   354  ALA354      0.2260
    149  O         42.8860   26.6680   31.8590 O.2   354  ALA354     -0.2867
    150  CB        41.3630   27.5380   29.2870 C.3   354  ALA354      0.0290
    151  N         37.0050   15.5830   23.3530 N.3   426  VAL426     -0.1245
    152  CA        35.5570   15.3980   23.5630 C.3   426  VAL426      0.1561
    153  C         34.7250   15.4770   22.2830 C.2   426  VAL426      0.2260
    154  O         33.4940   15.4950   22.3320 O.2   426  VAL426     -0.2867
    155  CB        35.0100   16.3710   24.6420 C.3   426  VAL426      0.0252
    156  CG1       35.4820   15.9520   26.0340 C.3   426  VAL426      0.0019
    157  CG2       35.4070   17.8170   24.3380 C.3   426  VAL426      0.0019
    158  N         31.3530   13.6640   23.1170 N.3   455  ASN455     -0.1240
    159  CA        30.4060   13.9610   24.1830 C.3   455  ASN455      0.1653
    160  C         28.9920   13.5070   23.8280 C.2   455  ASN455      0.2266
    161  O         28.6890   13.2200   22.6690 O.2   455  ASN455     -0.2867
    162  CB        30.3890   15.4700   24.4870 C.3   455  ASN455      0.1155
    163  CG        31.5490   15.9170   25.3930 C.2   455  ASN455      0.2627
    164  OD1       31.8130   17.1190   25.5320 O.2   455  ASN455     -0.2716
    165  ND2       32.2240   14.9670   26.0140 N.am  455  ASN455     -0.0877
    166  N         34.7400   33.6220   22.0070 N.3   544  TYR544     -0.1227
    167  CA        34.8810   32.5110   21.0550 C.3   544  TYR544      0.1736
    168  C         33.5470   31.9270   20.5960 C.2   544  TYR544      0.2595
    169  O         33.4540   31.3920   19.4940 O.2   544  TYR544     -0.2718
    170  CB        35.8380   31.4220   21.5670 C.3   544  TYR544      0.0548
    171  CG        35.2480   30.3300   22.4390 C.ar  544  TYR544     -0.0200
    172  CD1       34.6920   29.1810   21.8670 C.ar  544  TYR544     -0.0009
    173  CD2       35.3050   30.4110   23.8340 C.ar  544  TYR544     -0.0009
    174  CE1       34.1840   28.1610   22.6510 C.ar  544  TYR544      0.0417
    175  CE2       34.7900   29.3890   24.6340 C.ar  544  TYR544      0.0417
    176  CZ        34.2320   28.2670   24.0320 C.ar  544  TYR544      0.1957
    177  OH        33.7220   27.2370   24.7970 O.3   544  TYR544     -0.2866
    178  N         32.5250   32.0310   21.4400 N.am  545  LYS545     -0.1980
    179  CA        31.1920   31.5270   21.1030 C.3   545  LYS545      0.1596
    180  C         30.4440   32.4940   20.1620 C.2   545  LYS545      0.2287
    181  O         29.4080   32.1400   19.5790 O.2   545  LYS545     -0.2864
    182  CB        30.3880   31.2440   22.3770 C.3   545  LYS545      0.0298
    183  CG        30.9320   30.0730   23.2160 C.3   545  LYS545      0.0038
    184  CD        30.1940   29.9560   24.5510 C.3   545  LYS545      0.0206
    185  CE        30.8140   28.9200   25.4860 C.3   545  LYS545      0.1093
    186  NZ        30.5190   27.5270   25.0340 N.3   545  LYS545     -0.1314
    187  N         35.4820   25.6510   19.9240 N.3   643  GLU643     -0.1231
    188  CA        34.5500   24.9250   20.7970 C.3   643  GLU643      0.1699
    189  C         34.8970   23.4430   20.7500 C.2   643  GLU643      0.2592
    190  O         34.6630   22.8000   19.7340 O.2   643  GLU643     -0.2718
    191  CB        33.0970   25.1420   20.3470 C.3   643  GLU643      0.0402
    192  CG        32.0460   24.6220   21.3250 C.3   643  GLU643      0.1161
    193  CD        31.9180   25.5040   22.5490 C.2   643  GLU643      0.3649
    194  OE1       31.1710   26.5000   22.4890 O.co2 643  GLU643     -0.2457
    195  OE2       32.5900   25.2240   23.5610 O.co2 643  GLU643     -0.2457
    196  N         35.4620   22.9060   21.8360 N.am  644  ALA644     -0.1966
    197  CA        35.9360   21.5160   21.8460 C.3   644  ALA644      0.1728
    198  C         34.8520   20.5380   21.3740 C.2   644  ALA644      0.2617
    199  O         35.0980   19.6880   20.5130 O.2   644  ALA644     -0.2715
    200  CB        36.4650   21.1280   23.2180 C.3   644  ALA644      0.0334
    201  N         33.6440   20.6840   21.9090 N.am  645  SER645     -0.1936
    202  CA        32.5360   19.8530   21.4660 C.3   645  SER645      0.2055
    203  C         31.2430   20.6420   21.3700 C.2   645  SER645      0.2644
    204  O         30.6450   20.7380   20.2900 O.2   645  SER645     -0.2714
    205  CB        32.3680   18.6490   22.3950 C.3   645  SER645      0.2130
    206  OG        31.1480   17.9650   22.1500 O.3   645  SER645     -0.2179
    207  N         30.8340   21.2290   22.4930 N.am  646  GLY646     -0.1939
    208  CA        29.4700   21.7130   22.6470 C.3   646  GLY646      0.2014
    209  C         28.5930   20.5420   23.0650 C.2   646  GLY646      0.2639
    210  O         28.8630   19.3990   22.6980 O.2   646  GLY646     -0.2714
    211  N         27.5650   20.8160   23.8620 N.am  647  THR647     -0.1950
    212  CA        26.5790   19.7940   24.2330 C.3   647  THR647      0.1897
    213  C         25.1750   20.3680   24.0840 C.2   647  THR647      0.2313
    214  O         24.2130   19.6360   23.8070 O.2   647  THR647     -0.2863
    215  CB        26.7800   19.2410   25.6670 C.3   647  THR647      0.1794
    216  OG1       26.8250   20.3240   26.6030 O.3   647  THR647     -0.2208
    217  CG2       28.0530   18.4230   25.7670 C.3   647  THR647      0.0378
@<TRIPOS>BOND
     1   169   168    2
     2   181   180    2
     3   190   189    2
     4   187   188    1
     5   180   179    1
     6   204   203    2
     7   191   188    1
     8   191   192    1
     9   199   198    2
    10   168   167    1
    11   168   178   am
    12   189   188    1
    13   189   196   am
    14   167   170    1
    15   167   166    1
    16   179   178    1
    17   179   182    1
    18   192   193    1
    19   203   202    1
    20   203   207   am
    21   198   197    1
    22   198   201   am
    23   202   201    1
    24   202   205    1
    25   170   171    1
    26   196   197    1
    27   197   200    1
    28   172   171   ar
    29   172   174   ar
    30   206   205    1
    31   153   154    2
    32   153   152    1
    33   182   183    1
    34   171   173   ar
    35   194   193   ar
    36   207   208    1
    37   193   195   ar
    38   208   209    1
    39   174   176   ar
    40   161   160    2
    41   210   209    2
    42   209   211   am
    43   158   159    1
    44   183   184    1
    45   151   152    1
    46   152   155    1
    47   214   213    2
    48   160   159    1
    49   173   175   ar
    50   211   212    1
    51   176   175   ar
    52   176   177    1
    53   213   212    1
    54   159   162    1
    55   212   215    1
    56   157   155    1
    57   162   163    1
    58   184   185    1
    59   155   156    1
    60   186   185    1
    61   141   140    1
    62   141   142    2
    63   163   164    2
    64   163   165   am
    65   144   143    1
    66   140   143    1
    67   140   139    1
    68   215   217    1
    69   215   216    1
    70   132   131    2
    71   143   145    1
    72   139   131   am
    73   131   130    1
    74   130   129    1
    75   130   133    1
    76    40    39    1
    77   133   134    1
    78   135   134   ar
    79   135   137   ar
    80   146   147    1
    81   134   136   ar
    82   150   147    1
    83    41    39    1
    84    23    22    1
    85    23    24    1
    86    39    38    1
    87    73    72    2
    88   137   138   ar
    89   147   148    1
    90    74    71    1
    91    74    75    1
    92    22    20   am
    93   136   138   ar
    94    24    25    2
    95    24    26   am
    96    77    75   am
    97    38    35    1
    98    65    64    2
    99    71    72    1
   100    71    70    1
   101    72    78   am
   102   148   149    2
   103    26    27    1
   104    86    84   ar
   105    86    88   ar
   106    75    76    2
   107    84    83   ar
   108    69    67   ar
   109    35    34    1
   110    35    36    1
   111    20    19    1
   112    20    21    2
   113    64    70   am
   114    64    63    1
   115    27    30    1
   116    27    28    1
   117   118   116   ar
   118    67    68   ar
   119    67    66    1
   120    19    18    1
   121    78    79    1
   122    30    31    1
   123    88    87   ar
   124    37    36    2
   125    79    82    1
   126    79    80    1
   127   117   116   ar
   128    83    82    1
   129    83    85   ar
   130   116   115    1
   131    66    63    1
   132    32    31    1
   133    28    29    2
   134    63    62    1
   135    31    33    1
   136   112   111    1
   137   112   115    1
   138   112   113    1
   139    18    12   am
   140    87    85   ar
   141    89    80   am
   142    89    90    1
   143    13    12    2
   144    80    81    2
   145    12    11    1
   146    62    56   am
   147   113   114    2
   148    93    90    1
   149    93    94    1
   150    60    59    2
   151    90    91    1
   152    14    11    1
   153    14    15    1
   154    56    57    2
   155    56    55    1
   156    92    91    2
   157    11    10    1
   158   128   127   ar
   159   128   126   ar
   160   127   125   ar
   161    94    96   ar
   162    94    95   ar
   163    59    61   am
   164    59    58    1
   165    96    98   ar
   166    15    16    2
   167    15    17   am
   168    55    58    1
   169    55    54    1
   170     8     7   ar
   171   126   124   ar
   172   125   124   ar
   173    95    97   ar
   174   119   120    1
   175    98    99   ar
   176     9     7   ar
   177     7     6    1
   178   124   123    1
   179    97    99   ar
   180     5     6    1
   181     5     2    1
   182     4     3    2
   183   120   123    1
   184   120   121    1
   185   110   108    1
   186     3     2    1
   187     2     1    1
   188    45    44    2
   189   121   122    2
   190   108   107    2
   191   108   109    1
   192    44    43    1
   193   107   106    1
   194    46    43    1
   195    46    47    1
   196    43    42    1
   197   106   105    1
   198   105   104    1
   199    49    47   ar
   200    49    51   ar
   201    47    48   ar
   202   104   101    1
   203    51    52   ar
   204    48    50   ar
   205    52    50   ar
   206    52    53    1
   207   103   102    2
   208   101   102    1
   209   101   100    1
