@<TRIPOS>MOLECULE
tmp/3zctA01.pdb
 107 108 0 0 0
SMALL
GASTEIGER

@<TRIPOS>ATOM
      1  N         11.5230   10.3570   47.5900 N.3    49  ARG49      -0.1231
      2  CA        12.7960   10.0010   48.1980 C.3    49  ARG49       0.1694
      3  C         12.7530    8.6400   48.9060 C.2    49  ARG49       0.2592
      4  O         13.7100    7.8700   48.8300 O.2    49  ARG49      -0.2718
      5  CB        13.1970   11.1050   49.1780 C.3    49  ARG49       0.0321
      6  CG        14.3630   10.7950   50.0730 C.3    49  ARG49       0.0489
      7  CD        14.7170   12.0160   50.9100 C.3    49  ARG49       0.2205
      8  NE        14.3620   11.8720   52.3220 N.pl3  49  ARG49      -0.0865
      9  CZ        14.7150   12.7400   53.2700 C.cat  49  ARG49       0.5346
     10  NH1       15.4320   13.8150   52.9640 N.pl3  49  ARG49       0.1354
     11  NH2       14.3600   12.5330   54.5320 N.pl3  49  ARG49       0.1354
     12  N         11.6450    8.3530   49.5900 N.am   50  ASP50      -0.1974
     13  CA        11.4620    7.0650   50.2690 C.3    50  ASP50       0.1709
     14  C         11.6750    5.8650   49.3500 C.2    50  ASP50       0.2293
     15  O         12.2540    4.8600   49.7650 O.2    50  ASP50      -0.2864
     16  CB        10.0730    6.9780   50.9090 C.3    50  ASP50       0.1436
     17  CG         9.9650    7.7850   52.1840 C.2    50  ASP50       0.3671
     18  OD1       11.0070    8.1030   52.8000 O.co2  50  ASP50      -0.2456
     19  OD2        8.8230    8.0990   52.5690 O.co2  50  ASP50      -0.2456
     20  N         13.6600    5.5610   46.8650 N.3    52  LEU52      -0.1231
     21  CA        15.0680    5.3990   46.4940 C.3    52  LEU52       0.1693
     22  C         15.8530    4.5830   47.5080 C.2    52  LEU52       0.2591
     23  O         16.8580    3.9540   47.1660 O.2    52  LEU52      -0.2718
     24  CB        15.7420    6.7700   46.3440 C.3    52  LEU52       0.0284
     25  CG        15.5160    7.5760   45.0660 C.3    52  LEU52       0.0019
     26  CD1       16.0310    8.9970   45.2450 C.3    52  LEU52       0.0001
     27  CD2       16.1830    6.9080   43.8690 C.3    52  LEU52       0.0001
     28  N         15.3970    4.6030   48.7590 N.am   53  VAL53      -0.1980
     29  CA        16.1810    4.0920   49.8900 C.3    53  VAL53       0.1595
     30  C         16.5690    2.6160   49.7670 C.2    53  VAL53       0.2287
     31  O         17.7500    2.2780   49.8380 O.2    53  VAL53      -0.2864
     32  CB        15.4690    4.3630   51.2470 C.3    53  VAL53       0.0276
     33  CG1       16.2130    3.7020   52.3890 C.3    53  VAL53       0.0022
     34  CG2       15.3500    5.8590   51.4850 C.3    53  VAL53       0.0022
     35  N         18.9360    1.9780   46.9480 N.3    56  TRP56      -0.1241
     36  CA        20.2380    2.5820   47.2600 C.3    56  TRP56       0.1605
     37  C         21.0650    1.6890   48.1840 C.2    56  TRP56       0.2264
     38  O         22.2350    1.4110   47.9060 O.2    56  TRP56      -0.2867
     39  CB        20.0380    3.9750   47.8820 C.3    56  TRP56       0.0550
     40  CG        21.2290    4.9180   47.8020 C.ar   56  TRP56       0.0003
     41  CD1       22.3760    4.7510   47.0710 C.ar   56  TRP56       0.0946
     42  CD2       21.3520    6.1950   48.4480 C.ar   56  TRP56       0.0152
     43  NE1       23.2110    5.8320   47.2400 N.ar   56  TRP56      -0.2442
     44  CE2       22.6060    6.7350   48.0760 C.ar   56  TRP56       0.0810
     45  CE3       20.5270    6.9320   49.3080 C.ar   56  TRP56       0.0012
     46  CZ2       23.0580    7.9770   48.5400 C.ar   56  TRP56       0.0191
     47  CZ3       20.9790    8.1750   49.7720 C.ar   56  TRP56       0.0001
     48  CH2       22.2350    8.6790   49.3870 C.ar   56  TRP56       0.0015
     49  N         17.9250   20.6450   51.5960 N.3   176  ASN176     -0.1226
     50  CA        18.0810   19.8190   50.4060 C.3   176  ASN176      0.1770
     51  C         17.6450   18.3960   50.7560 C.2   176  ASN176      0.2439
     52  O         18.3680   17.6810   51.4450 O.2   176  ASN176     -0.2733
     53  CB        19.5420   19.8640   49.9210 C.3   176  ASN176      0.1168
     54  CG        19.8100   18.9520   48.7240 C.2   176  ASN176      0.2627
     55  OD1       18.8860   18.4700   48.0640 O.2   176  ASN176     -0.2716
     56  ND2       21.0910   18.7220   48.4360 N.am  176  ASN176     -0.0877
     57  N         16.4470   17.9850   50.2980 N.am  177  PRO177     -0.2718
     58  CA        15.9490   16.6670   50.6870 C.3   177  PRO177      0.1535
     59  C         16.6990   15.5110   50.0200 C.2   177  PRO177      0.2599
     60  O         16.5750   14.3760   50.4630 O.2   177  PRO177     -0.2715
     61  CB        14.4800   16.7000   50.2500 C.3   177  PRO177      0.0310
     62  CG        14.4360   17.6720   49.1320 C.3   177  PRO177      0.0237
     63  CD        15.5080   18.6950   49.4070 C.3   177  PRO177      0.0939
     64  N         17.4920   15.8080   48.9930 N.am  178  TRP178     -0.1960
     65  CA        18.1740   14.7740   48.2080 C.3   178  TRP178      0.1771
     66  C         19.5630   14.3880   48.7160 C.2   178  TRP178      0.2620
     67  O         20.1950   13.4870   48.1630 O.2   178  TRP178     -0.2715
     68  CB        18.2450   15.1900   46.7380 C.3   178  TRP178      0.0590
     69  CG        16.9340   15.6760   46.2310 C.ar  178  TRP178      0.0006
     70  CD1       16.6030   16.9590   45.9180 C.ar  178  TRP178      0.0946
     71  CD2       15.7610   14.8900   46.0100 C.ar  178  TRP178      0.0152
     72  NE1       15.2940   17.0230   45.5020 N.ar  178  TRP178     -0.2442
     73  CE2       14.7540   15.7650   45.5490 C.ar  178  TRP178      0.0810
     74  CE3       15.4650   13.5260   46.1480 C.ar  178  TRP178      0.0012
     75  CZ2       13.4630   15.3230   45.2250 C.ar  178  TRP178      0.0191
     76  CZ3       14.1870   13.0840   45.8240 C.ar  178  TRP178      0.0001
     77  CH2       13.2010   13.9830   45.3690 C.ar  178  TRP178      0.0015
     78  N         20.0420   15.0520   49.7620 N.am  179  GLU179     -0.1963
     79  CA        21.3450   14.7020   50.3180 C.3   179  GLU179      0.1733
     80  C         21.2220   14.0160   51.6760 C.2   179  GLU179      0.2616
     81  O         20.3300   14.3350   52.4660 O.2   179  GLU179     -0.2715
     82  CB        22.2470   15.9420   50.4230 C.3   179  GLU179      0.0429
     83  CG        21.7960   16.9540   51.4690 C.3   179  GLU179      0.1163
     84  CD        22.6160   18.2280   51.4700 C.2   179  GLU179      0.3649
     85  OE1       23.5010   18.3930   50.5950 O.co2 179  GLU179     -0.2457
     86  OE2       22.3570   19.0740   52.3490 O.co2 179  GLU179     -0.2457
     87  N         22.1130   13.0630   51.9290 N.am  180  LYS180     -0.1963
     88  CA        22.2540   12.4760   53.2530 C.3   180  LYS180      0.1728
     89  C         23.6420   12.7840   53.7920 C.2   180  LYS180      0.2616
     90  O         24.6440   12.3000   53.2590 O.2   180  LYS180     -0.2715
     91  CB        22.0210   10.9590   53.2250 C.3   180  LYS180      0.0311
     92  CG        22.1750   10.2800   54.5890 C.3   180  LYS180      0.0038
     93  CD        21.1010   10.7520   55.5630 C.3   180  LYS180      0.0206
     94  CE        21.3080   10.1800   56.9580 C.3   180  LYS180      0.1093
     95  NZ        22.4020   10.8740   57.6840 N.3   180  LYS180     -0.1314
     96  N         23.6860   13.6000   54.8420 N.am  181  ALA181     -0.1977
     97  CA        24.9330   13.9100   55.5370 C.3   181  ALA181      0.1597
     98  C         25.5030   12.6390   56.1410 C.2   181  ALA181      0.2287
     99  O         24.7630   11.8230   56.7040 O.2   181  ALA181     -0.2864
    100  CB        24.6950   14.9510   56.6250 C.3   181  ALA181      0.0319
    101  N         21.7830   10.2660   45.9670 N.3   218  PRO218     -0.2116
    102  CA        21.5190    9.0990   45.1290 C.3   218  PRO218      0.1372
    103  C         21.4220    9.4570   43.6460 C.2   218  PRO218      0.2244
    104  O         20.8860   10.5100   43.2870 O.2   218  PRO218     -0.2868
    105  CB        20.1660    8.5960   45.6500 C.3   218  PRO218      0.0268
    106  CG        19.4980    9.8150   46.1780 C.3   218  PRO218      0.0207
    107  CD        20.5960   10.6620   46.7500 C.3   218  PRO218      0.0892
@<TRIPOS>BOND
     1   104   103    2
     2   103   102    1
     3    27    25    1
     4    25    26    1
     5    25    24    1
     6   102   105    1
     7   102   101    1
     8    75    77   ar
     9    75    73   ar
    10    77    76   ar
    11    72    73   ar
    12    72    70   ar
    13    73    71   ar
    14   105   106    1
    15    76    74   ar
    16    70    69   ar
    17   101   107    1
    18    71    74   ar
    19    71    69   ar
    20   106   107    1
    21    69    68    1
    22    24    21    1
    23    21    20    1
    24    21    22    1
    25    68    65    1
    26    35    36    1
    27    41    43   ar
    28    41    40   ar
    29    23    22    2
    30    43    44   ar
    31    36    39    1
    32    36    37    1
    33    22    28   am
    34     1     2    1
    35    40    39    1
    36    40    42   ar
    37    38    37    2
    38    55    54    2
    39    44    42   ar
    40    44    46   ar
    41    67    66    2
    42     2     3    1
    43     2     5    1
    44    65    66    1
    45    65    64    1
    46    56    54   am
    47    42    45   ar
    48    46    48   ar
    49    66    78   am
    50    54    53    1
    51    28    29    1
    52     4     3    2
    53     3    12   am
    54    64    59   am
    55    62    63    1
    56    62    61    1
    57     5     6    1
    58    45    47   ar
    59    14    15    2
    60    14    13    1
    61    48    47   ar
    62    63    57    1
    63    12    13    1
    64    78    79    1
    65    30    31    2
    66    30    29    1
    67    29    32    1
    68    53    50    1
    69    59    60    2
    70    59    58    1
    71     6     7    1
    72    61    58    1
    73    13    16    1
    74    57    58    1
    75    57    51   am
    76    79    82    1
    77    79    80    1
    78    50    51    1
    79    50    49    1
    80    82    83    1
    81    85    84   ar
    82    51    52    2
    83    16    17    1
    84     7     8    1
    85    32    34    1
    86    32    33    1
    87    83    84    1
    88    84    86   ar
    89    80    87   am
    90    80    81    2
    91    87    88    1
    92    17    19   ar
    93    17    18   ar
    94     8     9    2
    95    10     9    1
    96    91    88    1
    97    91    92    1
    98    88    89    1
    99    90    89    2
   100     9    11    1
   101    89    96   am
   102    92    93    1
   103    96    97    1
   104    97    98    1
   105    97   100    1
   106    93    94    1
   107    98    99    2
   108    94    95    1
