@<TRIPOS>MOLECULE
tmp/3zcuA00.pdb
 196 185 0 0 0
SMALL
GASTEIGER

@<TRIPOS>ATOM
      1  N         32.9200   20.2140   39.4140 N.3    77  GLU77      -0.1245
      2  CA        31.6060   20.6960   39.0010 C.3    77  GLU77       0.1567
      3  C         30.6470   19.5400   38.7050 C.2    77  GLU77       0.2260
      4  O         30.9980   18.6060   37.9740 O.2    77  GLU77      -0.2867
      5  CB        31.7260   21.6180   37.7690 C.3    77  GLU77       0.0388
      6  CG        32.5870   22.8660   38.0050 C.3    77  GLU77       0.1160
      7  CD        32.5250   23.8830   36.8760 C.2    77  GLU77       0.3649
      8  OE1       31.5550   23.8780   36.0830 O.co2  77  GLU77      -0.2457
      9  OE2       33.4560   24.7070   36.7900 O.co2  77  GLU77      -0.2457
     10  N         29.4030   25.5210   36.0520 N.3   122  ASN122     -0.1225
     11  CA        29.3600   26.7070   35.2040 C.3   122  ASN122      0.1785
     12  C         28.5550   26.5200   33.9270 C.2   122  ASN122      0.2598
     13  O         27.8030   27.4050   33.5180 O.2   122  ASN122     -0.2718
     14  CB        30.7830   27.1340   34.8500 C.3   122  ASN122      0.1169
     15  CG        31.4270   27.9290   35.9500 C.2   122  ASN122      0.2627
     16  OD1       31.0210   29.0590   36.2210 O.2   122  ASN122     -0.2716
     17  ND2       32.4230   27.3410   36.6110 N.am  122  ASN122     -0.0877
     18  N         28.7330   25.3700   33.2910 N.am  123  GLY123     -0.1942
     19  CA        28.0860   25.1060   32.0150 C.3   123  GLY123      0.2014
     20  C         28.3490   23.6990   31.5560 C.2   123  GLY123      0.2639
     21  O         28.0150   22.7480   32.2600 O.2   123  GLY123     -0.2714
     22  N         28.9660   23.5780   30.3810 N.am  124  GLY124     -0.1939
     23  CA        29.0840   22.3050   29.6740 C.3   124  GLY124      0.2014
     24  C         29.8380   21.2060   30.3980 C.2   124  GLY124      0.2638
     25  O         29.3920   20.0560   30.4290 O.2   124  GLY124     -0.2714
     26  N         30.9900   21.5570   30.9680 N.am  125  LEU125     -0.1977
     27  CA        31.8220   20.6070   31.7200 C.3   125  LEU125      0.1596
     28  C         31.0720   20.0570   32.9430 C.2   125  LEU125      0.2287
     29  O         31.0950   18.8520   33.2070 O.2   125  LEU125     -0.2864
     30  CB        33.1410   21.2880   32.1330 C.3   125  LEU125      0.0297
     31  CG        34.1260   20.6480   33.1190 C.3   125  LEU125      0.0022
     32  CD1       35.5710   21.0540   32.7760 C.3   125  LEU125      0.0001
     33  CD2       33.7780   21.0490   34.5430 C.3   125  LEU125      0.0001
     34  N         28.0710   17.9290   31.7180 N.3   128  LEU128     -0.1245
     35  CA        28.5740   16.6470   31.2100 C.3   128  LEU128      0.1561
     36  C         28.7320   15.6290   32.3350 C.2   128  LEU128      0.2260
     37  O         28.3490   14.4700   32.1860 O.2   128  LEU128     -0.2867
     38  CB        29.9100   16.8150   30.4710 C.3   128  LEU128      0.0270
     39  CG        30.3810   15.5780   29.6880 C.3   128  LEU128      0.0019
     40  CD1       29.5450   15.3780   28.4210 C.3   128  LEU128      0.0001
     41  CD2       31.8680   15.6550   29.3480 C.3   128  LEU128      0.0001
     42  N         33.8330   28.7480   41.9710 N.3   260  TYR260     -0.1241
     43  CA        34.5070   29.7130   41.0940 C.3   260  TYR260      0.1605
     44  C         33.7870   29.7960   39.7460 C.2   260  TYR260      0.2264
     45  O         33.6790   28.7910   39.0420 O.2   260  TYR260     -0.2867
     46  CB        35.9800   29.3460   40.9110 C.3   260  TYR260      0.0534
     47  CG        36.8490   29.9340   41.9940 C.ar  260  TYR260     -0.0201
     48  CD1       36.9960   29.2890   43.2230 C.ar  260  TYR260     -0.0009
     49  CD2       37.4910   31.1580   41.8060 C.ar  260  TYR260     -0.0009
     50  CE1       37.7810   29.8380   44.2330 C.ar  260  TYR260      0.0417
     51  CE2       38.2810   31.7170   42.8110 C.ar  260  TYR260      0.0417
     52  CZ        38.4170   31.0520   44.0180 C.ar  260  TYR260      0.1957
     53  OH        39.1910   31.5990   45.0110 O.3   260  TYR260     -0.2866
     54  N         34.5450   31.5690   37.0660 N.3   262  ASN262     -0.1225
     55  CA        35.4150   31.9980   35.9840 C.3   262  ASN262      0.1785
     56  C         35.7170   30.8200   35.0620 C.2   262  ASN262      0.2597
     57  O         36.6110   30.0140   35.3430 O.2   262  ASN262     -0.2718
     58  CB        36.7060   32.6040   36.5610 C.3   262  ASN262      0.1169
     59  CG        37.6230   33.1810   35.4930 C.2   262  ASN262      0.2627
     60  OD1       37.5280   32.8360   34.3130 O.2   262  ASN262     -0.2716
     61  ND2       38.5320   34.0610   35.9070 N.am  262  ASN262     -0.0877
     62  N         34.9630   30.7220   33.9670 N.am  263  ASP263     -0.1974
     63  CA        35.1430   29.6370   33.0000 C.3   263  ASP263      0.1709
     64  C         35.9280   30.0640   31.7510 C.2   263  ASP263      0.2293
     65  O         36.0380   29.2980   30.7970 O.2   263  ASP263     -0.2864
     66  CB        33.7870   29.0300   32.6060 C.3   263  ASP263      0.1436
     67  CG        32.8990   30.0030   31.8430 C.2   263  ASP263      0.3671
     68  OD1       33.0820   31.2340   31.9740 O.co2 263  ASP263     -0.2456
     69  OD2       32.0080   29.5310   31.1040 O.co2 263  ASP263     -0.2456
     70  N         41.1800   28.5600   45.2640 N.3   272  ARG272     -0.1245
     71  CA        40.8740   27.5680   44.2250 C.3   272  ARG272      0.1563
     72  C         41.8090   26.3650   44.3020 C.2   272  ARG272      0.2260
     73  O         41.3800   25.2290   44.1240 O.2   272  ARG272     -0.2867
     74  CB        40.9200   28.2020   42.8320 C.3   272  ARG272      0.0307
     75  CG        40.8750   27.2210   41.6540 C.3   272  ARG272      0.0489
     76  CD        39.5130   26.5280   41.5120 C.3   272  ARG272      0.2205
     77  NE        39.4110   25.8100   40.2410 N.pl3 272  ARG272     -0.0865
     78  CZ        38.2750   25.3560   39.7160 C.cat 272  ARG272      0.5346
     79  NH1       37.1170   25.5360   40.3450 N.pl3 272  ARG272      0.1354
     80  NH2       38.3000   24.7240   38.5500 N.pl3 272  ARG272      0.1354
     81  N         38.9220   17.2750   33.3050 N.3   310  ASP310     -0.1239
     82  CA        39.9010   18.3440   33.0880 C.3   310  ASP310      0.1674
     83  C         41.0440   18.2550   34.1010 C.2   310  ASP310      0.2266
     84  O         41.1830   17.2470   34.7890 O.2   310  ASP310     -0.2867
     85  CB        39.2480   19.7340   33.0620 C.3   310  ASP310      0.1410
     86  CG        39.9120   20.6570   32.0560 C.2   310  ASP310      0.3668
     87  OD1       41.0420   21.1140   32.3240 O.co2 310  ASP310     -0.2456
     88  OD2       39.3310   20.8890   30.9740 O.co2 310  ASP310     -0.2456
     89  N         41.4270   20.0560   36.7430 N.3   312  HIS312     -0.1241
     90  CA        41.0510   20.5660   38.0620 C.3   312  HIS312      0.1621
     91  C         41.3690   19.6110   39.2180 C.2   312  HIS312      0.2264
     92  O         41.8050   20.0670   40.2710 O.2   312  HIS312     -0.2867
     93  CB        39.5990   21.0820   38.0930 C.3   312  HIS312      0.0745
     94  CG        39.2350   21.9110   36.8970 C.ar  312  HIS312      0.0817
     95  ND1       37.9780   21.8950   36.3350 N.ar  312  HIS312     -0.2268
     96  CD2       39.9770   22.7500   36.1350 C.ar  312  HIS312      0.1154
     97  CE1       37.9540   22.7040   35.2890 C.ar  312  HIS312      0.1986
     98  NE2       39.1560   23.2350   35.1460 N.ar  312  HIS312     -0.2212
     99  N         39.0420   19.5910   27.8980 N.3   348  HIS348     -0.1226
    100  CA        37.8110   20.2780   27.4820 C.3   348  HIS348      0.1752
    101  C         38.0070   21.5950   26.7090 C.2   348  HIS348      0.2596
    102  O         37.0240   22.2390   26.3320 O.2   348  HIS348     -0.2718
    103  CB        36.9060   20.5390   28.6910 C.3   348  HIS348      0.0759
    104  CG        36.4290   19.2970   29.3760 C.ar  348  HIS348      0.0818
    105  ND1       35.2640   18.6540   29.0220 N.ar  348  HIS348     -0.2268
    106  CD2       36.9480   18.5950   30.4100 C.ar  348  HIS348      0.1154
    107  CE1       35.0880   17.6030   29.8030 C.ar  348  HIS348      0.1986
    108  NE2       36.0980   17.5450   30.6530 N.ar  348  HIS348     -0.2212
    109  N         39.2530   22.0110   26.4850 N.am  349  THR349     -0.1953
    110  CA        39.5160   23.2150   25.6710 C.3   349  THR349      0.1897
    111  C         40.9530   23.2940   25.1550 C.2   349  THR349      0.2313
    112  O         41.8610   22.6880   25.7260 O.2   349  THR349     -0.2863
    113  CB        39.1500   24.5480   26.4010 C.3   349  THR349      0.1794
    114  OG1       39.2800   25.6520   25.4900 O.3   349  THR349     -0.2208
    115  CG2       40.0450   24.7830   27.6110 C.3   349  THR349      0.0378
    116  N         42.7690   29.4090   29.3790 N.3   354  ALA354     -0.1245
    117  CA        41.9580   28.5670   30.2630 C.3   354  ALA354      0.1562
    118  C         42.7670   27.4520   30.9390 C.2   354  ALA354      0.2260
    119  O         42.3060   26.8470   31.9080 O.2   354  ALA354     -0.2867
    120  CB        40.7720   27.9740   29.4940 C.3   354  ALA354      0.0290
    121  N         45.3980   25.4470   33.2030 N.3   356  GLU356     -0.1245
    122  CA        45.8960   25.6400   34.5620 C.3   356  GLU356      0.1567
    123  C         47.4120   25.5740   34.6310 C.2   356  GLU356      0.2260
    124  O         48.0100   24.5310   34.3720 O.2   356  GLU356     -0.2867
    125  CB        45.2970   24.6150   35.5310 C.3   356  GLU356      0.0388
    126  CG        43.8100   24.7870   35.7870 C.3   356  GLU356      0.1160
    127  CD        43.3460   23.9770   36.9730 C.2   356  GLU356      0.3649
    128  OE1       43.3750   22.7300   36.9040 O.co2 356  GLU356     -0.2457
    129  OE2       42.9580   24.5940   37.9790 O.co2 356  GLU356     -0.2457
    130  N         36.8770   15.5600   23.4070 N.3   426  VAL426     -0.1245
    131  CA        35.4370   15.3950   23.6320 C.3   426  VAL426      0.1561
    132  C         34.5960   15.4600   22.3490 C.2   426  VAL426      0.2260
    133  O         33.3640   15.4680   22.4000 O.2   426  VAL426     -0.2867
    134  CB        34.9260   16.3950   24.7100 C.3   426  VAL426      0.0252
    135  CG1       35.4670   16.0030   26.0890 C.3   426  VAL426      0.0019
    136  CG2       35.3250   17.8300   24.3720 C.3   426  VAL426      0.0019
    137  N         31.2820   13.6820   23.1440 N.3   455  ASN455     -0.1240
    138  CA        30.3000   13.9650   24.1870 C.3   455  ASN455      0.1653
    139  C         28.8860   13.4940   23.8360 C.2   455  ASN455      0.2266
    140  O         28.5760   13.1860   22.6800 O.2   455  ASN455     -0.2867
    141  CB        30.2760   15.4690   24.5100 C.3   455  ASN455      0.1155
    142  CG        31.4230   15.9010   25.4330 C.2   455  ASN455      0.2627
    143  OD1       31.6790   17.1030   25.6030 O.2   455  ASN455     -0.2716
    144  ND2       32.1010   14.9340   26.0370 N.am  455  ASN455     -0.0877
    145  N         34.6160   33.5790   22.0030 N.3   544  TYR544     -0.1227
    146  CA        34.7350   32.4860   21.0320 C.3   544  TYR544      0.1736
    147  C         33.3920   31.9190   20.5650 C.2   544  TYR544      0.2595
    148  O         33.2940   31.4220   19.4430 O.2   544  TYR544     -0.2718
    149  CB        35.6900   31.3840   21.5090 C.3   544  TYR544      0.0548
    150  CG        35.1060   30.3060   22.3940 C.ar  544  TYR544     -0.0200
    151  CD1       34.5260   29.1620   21.8380 C.ar  544  TYR544     -0.0009
    152  CD2       35.1790   30.4000   23.7860 C.ar  544  TYR544     -0.0009
    153  CE1       34.0100   28.1590   22.6400 C.ar  544  TYR544      0.0417
    154  CE2       34.6650   29.3920   24.6010 C.ar  544  TYR544      0.0417
    155  CZ        34.0830   28.2770   24.0200 C.ar  544  TYR544      0.1957
    156  OH        33.5620   27.2700   24.8070 O.3   544  TYR544     -0.2866
    157  N         32.3720   32.0050   21.4170 N.am  545  LYS545     -0.1980
    158  CA        31.0380   31.4940   21.0840 C.3   545  LYS545      0.1596
    159  C         30.2760   32.4540   20.1560 C.2   545  LYS545      0.2287
    160  O         29.2190   32.1100   19.6250 O.2   545  LYS545     -0.2864
    161  CB        30.2290   31.2130   22.3550 C.3   545  LYS545      0.0298
    162  CG        30.7570   30.0480   23.1860 C.3   545  LYS545      0.0038
    163  CD        30.0200   29.9550   24.5220 C.3   545  LYS545      0.0206
    164  CE        30.5810   28.8670   25.4280 C.3   545  LYS545      0.1093
    165  NZ        30.2540   27.4960   24.9180 N.3   545  LYS545     -0.1314
    166  N         35.3240   25.6120   19.9640 N.3   643  GLU643     -0.1231
    167  CA        34.3890   24.8990   20.8350 C.3   643  GLU643      0.1699
    168  C         34.7670   23.4260   20.8180 C.2   643  GLU643      0.2592
    169  O         34.5740   22.7620   19.8090 O.2   643  GLU643     -0.2718
    170  CB        32.9410   25.0850   20.3600 C.3   643  GLU643      0.0402
    171  CG        31.8950   24.5530   21.3320 C.3   643  GLU643      0.1161
    172  CD        31.7370   25.4510   22.5390 C.2   643  GLU643      0.3649
    173  OE1       30.9800   26.4380   22.4420 O.co2 643  GLU643     -0.2457
    174  OE2       32.3980   25.1900   23.5710 O.co2 643  GLU643     -0.2457
    175  N         35.3220   22.9170   21.9190 N.am  644  ALA644     -0.1966
    176  CA        35.8200   21.5350   21.9420 C.3   644  ALA644      0.1728
    177  C         34.7570   20.5290   21.4770 C.2   644  ALA644      0.2617
    178  O         35.0310   19.6630   20.6400 O.2   644  ALA644     -0.2715
    179  CB        36.3630   21.1670   23.3180 C.3   644  ALA644      0.0334
    180  N         33.5420   20.6600   21.9990 N.am  645  SER645     -0.1936
    181  CA        32.4480   19.8110   21.5540 C.3   645  SER645      0.2055
    182  C         31.1600   20.6070   21.4420 C.2   645  SER645      0.2644
    183  O         30.5820   20.7210   20.3530 O.2   645  SER645     -0.2714
    184  CB        32.2740   18.6160   22.4980 C.3   645  SER645      0.2130
    185  OG        31.0570   17.9240   22.2540 O.3   645  SER645     -0.2179
    186  N         30.7390   21.1880   22.5640 N.am  646  GLY646     -0.1939
    187  CA        29.3770   21.6780   22.7090 C.3   646  GLY646      0.2014
    188  C         28.4980   20.5080   23.1140 C.2   646  GLY646      0.2639
    189  O         28.7770   19.3650   22.7490 O.2   646  GLY646     -0.2714
    190  N         27.4640   20.7810   23.9040 N.am  647  THR647     -0.1950
    191  CA        26.4710   19.7660   24.2490 C.3   647  THR647      0.1897
    192  C         25.0720   20.3370   24.0990 C.2   647  THR647      0.2313
    193  O         24.1180   19.5960   23.8490 O.2   647  THR647     -0.2863
    194  CB        26.6510   19.1920   25.6720 C.3   647  THR647      0.1794
    195  OG1       26.7440   20.2630   26.6120 O.3   647  THR647     -0.2208
    196  CG2       27.8970   18.3280   25.7590 C.3   647  THR647      0.0378
@<TRIPOS>BOND
     1   148   147    2
     2   160   159    2
     3   169   168    2
     4   166   167    1
     5   159   158    1
     6   183   182    2
     7   170   167    1
     8   170   171    1
     9   147   146    1
    10   147   157   am
    11   178   177    2
    12   168   167    1
    13   168   175   am
    14   146   149    1
    15   146   145    1
    16   158   157    1
    17   158   161    1
    18   171   172    1
    19   182   181    1
    20   182   186   am
    21   177   176    1
    22   177   180   am
    23   149   150    1
    24   181   180    1
    25   181   184    1
    26   151   150   ar
    27   151   153   ar
    28   175   176    1
    29   176   179    1
    30   185   184    1
    31   132   133    2
    32   132   131    1
    33   161   162    1
    34   150   152   ar
    35   173   172   ar
    36   172   174   ar
    37   186   187    1
    38   153   155   ar
    39   140   139    2
    40   187   188    1
    41   189   188    2
    42   188   190   am
    43   137   138    1
    44   162   163    1
    45   130   131    1
    46   131   134    1
    47   152   154   ar
    48   139   138    1
    49   193   192    2
    50   190   191    1
    51   155   154   ar
    52   155   156    1
    53   192   191    1
    54   138   141    1
    55   191   194    1
    56   136   134    1
    57   141   142    1
    58   163   164    1
    59   134   135    1
    60   165   164    1
    61   111   110    1
    62   111   112    2
    63   142   143    2
    64   142   144   am
    65   114   113    1
    66   110   113    1
    67   110   109    1
    68   194   196    1
    69   194   195    1
    70   102   101    2
    71   113   115    1
    72   109   101   am
    73   101   100    1
    74   100    99    1
    75   100   103    1
    76    40    39    1
    77   103   104    1
    78   105   104   ar
    79   105   107   ar
    80    41    39    1
    81   104   106   ar
    82   116   117    1
    83   120   117    1
    84    23    22    1
    85    23    24    1
    86    39    38    1
    87   107   108   ar
    88   117   118    1
    89    22    20   am
    90    24    25    2
    91    24    26   am
    92   106   108   ar
    93    38    35    1
    94    65    64    2
    95   118   119    2
    96    26    27    1
    97    88    86   ar
    98    69    67   ar
    99    35    34    1
   100    35    36    1
   101    20    19    1
   102    20    21    2
   103    27    30    1
   104    27    28    1
   105    64    63    1
   106    67    68   ar
   107    67    66    1
   108    19    18    1
   109    86    87   ar
   110    86    85    1
   111    30    31    1
   112    37    36    2
   113    66    63    1
   114    32    31    1
   115    28    29    2
   116    63    62    1
   117    85    82    1
   118    82    81    1
   119    82    83    1
   120    31    33    1
   121   121   122    1
   122    18    12   am
   123    13    12    2
   124    12    11    1
   125    62    56   am
   126    83    84    2
   127    60    59    2
   128   124   123    2
   129   122   123    1
   130   122   125    1
   131    14    11    1
   132    14    15    1
   133    56    57    2
   134    56    55    1
   135    98    97   ar
   136    98    96   ar
   137    11    10    1
   138    97    95   ar
   139    59    61   am
   140    59    58    1
   141   125   126    1
   142   126   127    1
   143    15    16    2
   144    15    17   am
   145    55    58    1
   146    55    54    1
   147     8     7   ar
   148    96    94   ar
   149    95    94   ar
   150    89    90    1
   151     9     7   ar
   152     7     6    1
   153    94    93    1
   154   128   127   ar
   155   127   129   ar
   156     5     6    1
   157     5     2    1
   158     4     3    2
   159    90    93    1
   160    90    91    1
   161    80    78    1
   162     3     2    1
   163     2     1    1
   164    45    44    2
   165    91    92    2
   166    78    77    2
   167    78    79    1
   168    44    43    1
   169    77    76    1
   170    46    43    1
   171    46    47    1
   172    43    42    1
   173    76    75    1
   174    75    74    1
   175    49    47   ar
   176    49    51   ar
   177    47    48   ar
   178    51    52   ar
   179    74    71    1
   180    48    50   ar
   181    52    50   ar
   182    52    53    1
   183    73    72    2
   184    71    72    1
   185    71    70    1
