@<TRIPOS>MOLECULE
tmp/3zcvA01.pdb
 218 208 0 0 0
SMALL
GASTEIGER

@<TRIPOS>ATOM
      1  N         33.0740   20.3070   39.3560 N.3    77  GLU77      -0.1245
      2  CA        31.7500   20.7880   38.9650 C.3    77  GLU77       0.1567
      3  C         30.7740   19.6480   38.6880 C.2    77  GLU77       0.2260
      4  O         31.0960   18.7100   37.9660 O.2    77  GLU77      -0.2867
      5  CB        31.8470   21.6910   37.7270 C.3    77  GLU77       0.0388
      6  CG        32.7090   22.9340   37.9230 C.3    77  GLU77       0.1160
      7  CD        32.6530   23.9030   36.7500 C.2    77  GLU77       0.3649
      8  OE1       31.6750   23.8680   35.9660 O.co2  77  GLU77      -0.2457
      9  OE2       33.5910   24.7160   36.6200 O.co2  77  GLU77      -0.2457
     10  N         29.4510   25.5810   36.0700 N.3   122  ASN122     -0.1225
     11  CA        29.4120   26.7830   35.2410 C.3   122  ASN122      0.1785
     12  C         28.6270   26.6030   33.9490 C.2   122  ASN122      0.2598
     13  O         27.9430   27.5190   33.4980 O.2   122  ASN122     -0.2718
     14  CB        30.8400   27.2290   34.9050 C.3   122  ASN122      0.1169
     15  CG        31.4740   28.0200   36.0230 C.2   122  ASN122      0.2627
     16  OD1       31.0470   29.1380   36.3210 O.2   122  ASN122     -0.2716
     17  ND2       32.4920   27.4450   36.6570 N.am  122  ASN122     -0.0877
     18  N         28.7510   25.4270   33.3440 N.am  123  GLY123     -0.1942
     19  CA        28.1220   25.1600   32.0580 C.3   123  GLY123      0.2014
     20  C         28.4210   23.7600   31.5730 C.2   123  GLY123      0.2639
     21  O         28.1110   22.7860   32.2610 O.2   123  GLY123     -0.2714
     22  N         29.0380   23.6730   30.3960 N.am  124  GLY124     -0.1939
     23  CA        29.2290   22.4060   29.6830 C.3   124  GLY124      0.2014
     24  C         29.9390   21.2960   30.4360 C.2   124  GLY124      0.2638
     25  O         29.4580   20.1600   30.4800 O.2   124  GLY124     -0.2714
     26  N         31.0900   21.6200   31.0210 N.am  125  LEU125     -0.1977
     27  CA        31.9070   20.6430   31.7420 C.3   125  LEU125      0.1596
     28  C         31.1670   20.0750   32.9580 C.2   125  LEU125      0.2287
     29  O         31.2300   18.8680   33.2250 O.2   125  LEU125     -0.2864
     30  CB        33.2500   21.2810   32.1540 C.3   125  LEU125      0.0297
     31  CG        34.2520   20.5800   33.0790 C.3   125  LEU125      0.0022
     32  CD1       35.6710   21.1040   32.8140 C.3   125  LEU125      0.0001
     33  CD2       33.8900   20.7740   34.5400 C.3   125  LEU125      0.0001
     34  N         28.1450   17.9460   31.7320 N.3   128  LEU128     -0.1245
     35  CA        28.6600   16.6630   31.2310 C.3   128  LEU128      0.1561
     36  C         28.8270   15.6560   32.3650 C.2   128  LEU128      0.2260
     37  O         28.4350   14.5000   32.2320 O.2   128  LEU128     -0.2867
     38  CB        29.9900   16.8350   30.4790 C.3   128  LEU128      0.0270
     39  CG        30.4830   15.5850   29.7290 C.3   128  LEU128      0.0019
     40  CD1       29.6660   15.3590   28.4520 C.3   128  LEU128      0.0001
     41  CD2       31.9800   15.6590   29.4070 C.3   128  LEU128      0.0001
     42  N         33.9000   28.8570   42.0010 N.3   263  TYR263     -0.1241
     43  CA        34.5410   29.8500   41.1340 C.3   263  TYR263      0.1605
     44  C         33.8010   29.9360   39.7970 C.2   263  TYR263      0.2264
     45  O         33.6420   28.9230   39.1190 O.2   263  TYR263     -0.2867
     46  CB        36.0220   29.5270   40.9310 C.3   263  TYR263      0.0534
     47  CG        36.8840   30.0730   42.0390 C.ar  263  TYR263     -0.0201
     48  CD1       37.0470   29.3720   43.2350 C.ar  263  TYR263     -0.0009
     49  CD2       37.5160   31.3050   41.9030 C.ar  263  TYR263     -0.0009
     50  CE1       37.8360   29.8870   44.2680 C.ar  263  TYR263      0.0417
     51  CE2       38.3010   31.8280   42.9230 C.ar  263  TYR263      0.0417
     52  CZ        38.4580   31.1180   44.0980 C.ar  263  TYR263      0.1957
     53  OH        39.2360   31.6490   45.1030 O.3   263  TYR263     -0.2866
     54  N         34.5720   31.7470   37.0440 N.3   265  ASN265     -0.1225
     55  CA        35.3950   32.1470   35.9030 C.3   265  ASN265      0.1785
     56  C         35.6970   30.9550   35.0060 C.2   265  ASN265      0.2597
     57  O         36.5940   30.1620   35.2950 O.2   265  ASN265     -0.2718
     58  CB        36.6950   32.8240   36.3650 C.3   265  ASN265      0.1169
     59  CG        37.5180   31.9440   37.2990 C.2   265  ASN265      0.2627
     60  OD1       37.1150   31.6760   38.4300 O.2   265  ASN265     -0.2716
     61  ND2       38.6770   31.4860   36.8240 N.am  265  ASN265     -0.0877
     62  N         34.9370   30.8280   33.9230 N.am  266  ASP266     -0.1974
     63  CA        35.1160   29.7260   32.9850 C.3   266  ASP266      0.1709
     64  C         35.8780   30.1530   31.7270 C.2   266  ASP266      0.2293
     65  O         36.0090   29.3740   30.7880 O.2   266  ASP266     -0.2864
     66  CB        33.7570   29.1200   32.6130 C.3   266  ASP266      0.1436
     67  CG        32.8760   30.0800   31.8340 C.2   266  ASP266      0.3671
     68  OD1       33.0830   31.3130   31.9200 O.co2 266  ASP266     -0.2456
     69  OD2       31.9670   29.5970   31.1290 O.co2 266  ASP266     -0.2456
     70  N         39.0380   32.2420   31.9550 N.3   268  PHE268     -0.1227
     71  CA        40.4090   32.6510   32.2160 C.3   268  PHE268      0.1736
     72  C         40.8860   32.0520   33.5320 C.2   268  PHE268      0.2595
     73  O         40.3020   32.3140   34.5900 O.2   268  PHE268     -0.2718
     74  CB        40.4700   34.1870   32.2540 C.3   268  PHE268      0.0547
     75  CG        41.8510   34.7500   32.4330 C.ar  268  PHE268     -0.0202
     76  CD1       42.7250   34.8480   31.3530 C.ar  268  PHE268     -0.0042
     77  CD2       42.2690   35.2090   33.6790 C.ar  268  PHE268     -0.0042
     78  CE1       44.0090   35.3790   31.5140 C.ar  268  PHE268     -0.0003
     79  CE2       43.5490   35.7420   33.8530 C.ar  268  PHE268     -0.0003
     80  CZ        44.4200   35.8270   32.7680 C.ar  268  PHE268     -0.0000
     81  N         41.9360   31.2360   33.4620 N.am  269  PHE269     -0.1976
     82  CA        42.5310   30.6650   34.6650 C.3   269  PHE269      0.1639
     83  C         43.1000   31.7680   35.5500 C.2   269  PHE269      0.2290
     84  O         43.9080   32.5830   35.1000 O.2   269  PHE269     -0.2864
     85  CB        43.6290   29.6470   34.3230 C.3   269  PHE269      0.0560
     86  CG        44.4760   29.2470   35.5080 C.ar  269  PHE269     -0.0200
     87  CD1       43.9660   28.4000   36.4900 C.ar  269  PHE269     -0.0042
     88  CD2       45.7750   29.7300   35.6470 C.ar  269  PHE269     -0.0042
     89  CE1       44.7380   28.0300   37.5910 C.ar  269  PHE269     -0.0003
     90  CE2       46.5590   29.3670   36.7440 C.ar  269  PHE269     -0.0003
     91  CZ        46.0380   28.5140   37.7170 C.ar  269  PHE269     -0.0000
     92  N         41.2610   28.6460   45.3790 N.3   275  ARG275     -0.1245
     93  CA        40.9420   27.6540   44.3470 C.3   275  ARG275      0.1563
     94  C         41.8770   26.4460   44.4240 C.2   275  ARG275      0.2260
     95  O         41.4390   25.3050   44.2860 O.2   275  ARG275     -0.2867
     96  CB        40.9690   28.2850   42.9500 C.3   275  ARG275      0.0307
     97  CG        40.9120   27.2870   41.7890 C.3   275  ARG275      0.0489
     98  CD        39.5350   26.6420   41.6280 C.3   275  ARG275      0.2205
     99  NE        39.4830   25.8730   40.3850 N.pl3 275  ARG275     -0.0865
    100  CZ        38.3770   25.4060   39.8160 C.cat 275  ARG275      0.5346
    101  NH1       37.1860   25.6110   40.3700 N.pl3 275  ARG275      0.1354
    102  NH2       38.4690   24.7310   38.6780 N.pl3 275  ARG275      0.1354
    103  N         38.9910   17.3460   33.2860 N.3   313  ASP313     -0.1239
    104  CA        39.9980   18.3960   33.0820 C.3   313  ASP313      0.1674
    105  C         41.1440   18.2930   34.1010 C.2   313  ASP313      0.2266
    106  O         41.2640   17.2860   34.7940 O.2   313  ASP313     -0.2867
    107  CB        39.3760   19.7960   33.0510 C.3   313  ASP313      0.1410
    108  CG        40.0470   20.6910   32.0340 C.2   313  ASP313      0.3668
    109  OD1       41.1450   21.2040   32.3300 O.co2 313  ASP313     -0.2456
    110  OD2       39.4980   20.8500   30.9230 O.co2 313  ASP313     -0.2456
    111  N         41.5340   20.1250   36.7140 N.3   315  HIS315     -0.1241
    112  CA        41.1440   20.6490   38.0240 C.3   315  HIS315      0.1621
    113  C         41.4510   19.6900   39.1880 C.2   315  HIS315      0.2264
    114  O         41.9010   20.1410   40.2420 O.2   315  HIS315     -0.2867
    115  CB        39.6870   21.1460   38.0420 C.3   315  HIS315      0.0745
    116  CG        39.3260   22.0130   36.8730 C.ar  315  HIS315      0.0817
    117  ND1       38.0450   22.0850   36.3720 N.ar  315  HIS315     -0.2268
    118  CD2       40.0780   22.8310   36.0980 C.ar  315  HIS315      0.1154
    119  CE1       38.0200   22.9180   35.3470 C.ar  315  HIS315      0.1986
    120  NE2       39.2420   23.3840   35.1590 N.ar  315  HIS315     -0.2212
    121  N         39.0600   19.6510   27.8240 N.3   351  HIS351     -0.1226
    122  CA        37.8270   20.3240   27.3850 C.3   351  HIS351      0.1752
    123  C         38.0090   21.6370   26.6060 C.2   351  HIS351      0.2596
    124  O         37.0190   22.2560   26.2140 O.2   351  HIS351     -0.2718
    125  CB        36.9000   20.5810   28.5820 C.3   351  HIS351      0.0759
    126  CG        36.4800   19.3390   29.3030 C.ar  351  HIS351      0.0818
    127  ND1       35.3470   18.6310   28.9650 N.ar  351  HIS351     -0.2268
    128  CD2       37.0350   18.6840   30.3500 C.ar  351  HIS351      0.1154
    129  CE1       35.2270   17.5890   29.7670 C.ar  351  HIS351      0.1986
    130  NE2       36.2370   17.6010   30.6190 N.ar  351  HIS351     -0.2212
    131  N         39.2510   22.0730   26.3950 N.am  352  THR352     -0.1953
    132  CA        39.5130   23.3000   25.6210 C.3   352  THR352      0.1897
    133  C         40.9690   23.4180   25.1840 C.2   352  THR352      0.2313
    134  O         41.8710   22.9280   25.8690 O.2   352  THR352     -0.2863
    135  CB        39.0810   24.6050   26.3700 C.3   352  THR352      0.1794
    136  OG1       39.2320   25.7440   25.5060 O.3   352  THR352     -0.2208
    137  CG2       39.8970   24.8230   27.6370 C.3   352  THR352      0.0378
    138  N         42.8070   29.3810   29.3700 N.3   357  ALA357     -0.1245
    139  CA        41.9870   28.5330   30.2310 C.3   357  ALA357      0.1562
    140  C         42.7940   27.4120   30.8890 C.2   357  ALA357      0.2260
    141  O         42.3080   26.7490   31.8090 O.2   357  ALA357     -0.2867
    142  CB        40.8090   27.9620   29.4440 C.3   357  ALA357      0.0290
    143  N         45.4440   25.5010   33.2180 N.3   359  GLU359     -0.1245
    144  CA        45.9630   25.6970   34.5720 C.3   359  GLU359      0.1567
    145  C         47.4840   25.6540   34.6100 C.2   359  GLU359      0.2260
    146  O         48.0910   24.6380   34.2800 O.2   359  GLU359     -0.2867
    147  CB        45.4030   24.6450   35.5340 C.3   359  GLU359      0.0388
    148  CG        43.9120   24.7620   35.7860 C.3   359  GLU359      0.1160
    149  CD        43.4820   23.9640   36.9930 C.2   359  GLU359      0.3649
    150  OE1       43.5460   22.7200   36.9440 O.co2 359  GLU359     -0.2457
    151  OE2       43.0930   24.5880   37.9970 O.co2 359  GLU359     -0.2457
    152  N         36.9790   15.6190   23.3580 N.3   429  VAL429     -0.1245
    153  CA        35.5380   15.4250   23.5680 C.3   429  VAL429      0.1561
    154  C         34.6980   15.5000   22.2870 C.2   429  VAL429      0.2260
    155  O         33.4630   15.4830   22.3350 O.2   429  VAL429     -0.2867
    156  CB        34.9990   16.3810   24.6690 C.3   429  VAL429      0.0252
    157  CG1       35.5830   15.9930   26.0300 C.3   429  VAL429      0.0019
    158  CG2       35.3240   17.8400   24.3490 C.3   429  VAL429      0.0019
    159  N         31.3340   13.6830   23.0920 N.3   458  ASN458     -0.1240
    160  CA        30.3580   13.9750   24.1480 C.3   458  ASN458      0.1653
    161  C         28.9390   13.5140   23.8070 C.2   458  ASN458      0.2266
    162  O         28.6240   13.1870   22.6600 O.2   458  ASN458     -0.2867
    163  CB        30.3300   15.4790   24.4600 C.3   458  ASN458      0.1155
    164  CG        31.4640   15.9310   25.3960 C.2   458  ASN458      0.2627
    165  OD1       31.7020   17.1340   25.5500 O.2   458  ASN458     -0.2716
    166  ND2       32.1390   14.9870   26.0290 N.am  458  ASN458     -0.0877
    167  N         34.6310   33.6080   22.0400 N.3   547  TYR547     -0.1227
    168  CA        34.7720   32.5070   21.0780 C.3   547  TYR547      0.1736
    169  C         33.4320   31.9470   20.6020 C.2   547  TYR547      0.2595
    170  O         33.3380   31.4340   19.4860 O.2   547  TYR547     -0.2718
    171  CB        35.7250   31.4050   21.5700 C.3   547  TYR547      0.0548
    172  CG        35.1270   30.3180   22.4370 C.ar  547  TYR547     -0.0200
    173  CD1       34.5840   29.1600   21.8670 C.ar  547  TYR547     -0.0009
    174  CD2       35.1520   30.4190   23.8260 C.ar  547  TYR547     -0.0009
    175  CE1       34.0560   28.1470   22.6610 C.ar  547  TYR547      0.0417
    176  CE2       34.6230   29.4150   24.6280 C.ar  547  TYR547      0.0417
    177  CZ        34.0800   28.2800   24.0440 C.ar  547  TYR547      0.1957
    178  OH        33.5620   27.2820   24.8420 O.3   547  TYR547     -0.2866
    179  N         32.4080   32.0530   21.4470 N.am  548  LYS548     -0.1980
    180  CA        31.0680   31.5630   21.1060 C.3   548  LYS548      0.1596
    181  C         30.3230   32.5220   20.1710 C.2   548  LYS548      0.2287
    182  O         29.2980   32.1660   19.5860 O.2   548  LYS548     -0.2864
    183  CB        30.2590   31.2880   22.3770 C.3   548  LYS548      0.0298
    184  CG        30.7570   30.0710   23.1640 C.3   548  LYS548      0.0038
    185  CD        30.0690   29.9860   24.5230 C.3   548  LYS548      0.0206
    186  CE        30.6220   28.8660   25.4020 C.3   548  LYS548      0.1093
    187  NZ        30.2120   27.4970   24.9340 N.3   548  LYS548     -0.1314
    188  N         35.3600   25.6940   19.9250 N.3   646  GLU646     -0.1231
    189  CA        34.4420   24.9410   20.7900 C.3   646  GLU646      0.1699
    190  C         34.8070   23.4600   20.7490 C.2   646  GLU646      0.2592
    191  O         34.6010   22.8090   19.7280 O.2   646  GLU646     -0.2718
    192  CB        32.9870   25.1400   20.3490 C.3   646  GLU646      0.0402
    193  CG        31.9590   24.5850   21.3280 C.3   646  GLU646      0.1161
    194  CD        31.7830   25.4780   22.5410 C.2   646  GLU646      0.3649
    195  OE1       31.0120   26.4570   22.4540 O.co2 646  GLU646     -0.2457
    196  OE2       32.4450   25.2220   23.5710 O.co2 646  GLU646     -0.2457
    197  N         35.3540   22.9370   21.8490 N.am  647  ALA647     -0.1966
    198  CA        35.8450   21.5510   21.8870 C.3   647  ALA647      0.1728
    199  C         34.7830   20.5560   21.4230 C.2   647  ALA647      0.2617
    200  O         35.0460   19.7160   20.5660 O.2   647  ALA647     -0.2715
    201  CB        36.3600   21.1870   23.2730 C.3   647  ALA647      0.0334
    202  N         33.5760   20.6730   21.9690 N.am  648  SER648     -0.1936
    203  CA        32.4710   19.8350   21.5220 C.3   648  SER648      0.2055
    204  C         31.1960   20.6490   21.4190 C.2   648  SER648      0.2644
    205  O         30.6200   20.7900   20.3320 O.2   648  SER648     -0.2714
    206  CB        32.2710   18.6570   22.4840 C.3   648  SER648      0.2130
    207  OG        31.1110   17.9000   22.1680 O.3   648  SER648     -0.2179
    208  N         30.7730   21.2010   22.5530 N.am  649  GLY649     -0.1939
    209  CA        29.4020   21.6830   22.7010 C.3   649  GLY649      0.2014
    210  C         28.5070   20.5140   23.0800 C.2   649  GLY649      0.2639
    211  O         28.7530   19.3730   22.6660 O.2   649  GLY649     -0.2714
    212  N         27.4920   20.7870   23.8930 N.am  650  THR650     -0.1950
    213  CA        26.4790   19.7880   24.2460 C.3   650  THR650      0.1897
    214  C         25.0730   20.3710   24.1290 C.2   650  THR650      0.2313
    215  O         24.1060   19.6310   23.9250 O.2   650  THR650     -0.2863
    216  CB        26.6700   19.2250   25.6620 C.3   650  THR650      0.1794
    217  OG1       26.7670   20.3070   26.5940 O.3   650  THR650     -0.2208
    218  CG2       27.9260   18.3520   25.7400 C.3   650  THR650      0.0378
@<TRIPOS>BOND
     1   170   169    2
     2   182   181    2
     3   191   190    2
     4   188   189    1
     5   181   180    1
     6   205   204    2
     7   192   189    1
     8   192   193    1
     9   200   199    2
    10   169   168    1
    11   169   179   am
    12   190   189    1
    13   190   197   am
    14   168   171    1
    15   168   167    1
    16   180   179    1
    17   180   183    1
    18   193   194    1
    19   204   203    1
    20   204   208   am
    21   199   198    1
    22   199   202   am
    23   203   202    1
    24   203   206    1
    25   171   172    1
    26   197   198    1
    27   173   172   ar
    28   173   175   ar
    29   198   201    1
    30   207   206    1
    31   154   155    2
    32   154   153    1
    33   183   184    1
    34   172   174   ar
    35   195   194   ar
    36   194   196   ar
    37   208   209    1
    38   162   161    2
    39   175   177   ar
    40   211   210    2
    41   209   210    1
    42   210   212   am
    43   159   160    1
    44   184   185    1
    45   152   153    1
    46   153   156    1
    47   161   160    1
    48   174   176   ar
    49   212   213    1
    50   215   214    2
    51   177   176   ar
    52   177   178    1
    53   214   213    1
    54   160   163    1
    55   213   216    1
    56   158   156    1
    57   163   164    1
    58   185   186    1
    59   156   157    1
    60   187   186    1
    61   133   132    1
    62   133   134    2
    63   164   165    2
    64   164   166   am
    65   136   135    1
    66   132   135    1
    67   132   131    1
    68   216   218    1
    69   216   217    1
    70   124   123    2
    71   135   137    1
    72   131   123   am
    73   123   122    1
    74   122   121    1
    75   122   125    1
    76    40    39    1
    77   125   126    1
    78   127   126   ar
    79   127   129   ar
    80   126   128   ar
    81   138   139    1
    82    41    39    1
    83   142   139    1
    84    23    22    1
    85    23    24    1
    86    39    38    1
    87   129   130   ar
    88   139   140    1
    89   128   130   ar
    90    22    20   am
    91    24    25    2
    92    24    26   am
    93    38    35    1
    94    65    64    2
    95   140   141    2
    96   110   108   ar
    97    26    27    1
    98    69    67   ar
    99    35    34    1
   100    35    36    1
   101    76    78   ar
   102    76    75   ar
   103    78    80   ar
   104    20    19    1
   105    20    21    2
   106    64    63    1
   107    27    30    1
   108    27    28    1
   109    67    68   ar
   110    67    66    1
   111    70    71    1
   112   108   109   ar
   113   108   107    1
   114    19    18    1
   115    30    31    1
   116    71    74    1
   117    71    72    1
   118    37    36    2
   119    74    75    1
   120    75    77   ar
   121    66    63    1
   122    80    79   ar
   123    32    31    1
   124    28    29    2
   125    63    62    1
   126   107   104    1
   127    31    33    1
   128   104   103    1
   129   104   105    1
   130   143   144    1
   131    18    12   am
   132    81    72   am
   133    81    82    1
   134    13    12    2
   135    72    73    2
   136    77    79   ar
   137    62    56   am
   138    12    11    1
   139   105   106    2
   140   146   145    2
   141    85    82    1
   142    85    86    1
   143   144   145    1
   144   144   147    1
   145    82    83    1
   146    14    11    1
   147    14    15    1
   148    56    57    2
   149    56    55    1
   150    84    83    2
   151   120   119   ar
   152   120   118   ar
   153    11    10    1
   154   119   117   ar
   155    86    88   ar
   156    86    87   ar
   157   147   148    1
   158    88    90   ar
   159   148   149    1
   160    55    58    1
   161    55    54    1
   162     8     7   ar
   163    15    16    2
   164    15    17   am
   165   118   116   ar
   166    58    59    1
   167   117   116   ar
   168    87    89   ar
   169     9     7   ar
   170   111   112    1
   171    90    91   ar
   172     7     6    1
   173    61    59   am
   174   116   115    1
   175   150   149   ar
   176   149   151   ar
   177    59    60    2
   178    89    91   ar
   179     5     6    1
   180     5     2    1
   181     4     3    2
   182   112   115    1
   183   112   113    1
   184   102   100    1
   185     3     2    1
   186     2     1    1
   187    45    44    2
   188   113   114    2
   189    44    43    1
   190   100   101    1
   191   100    99    2
   192    99    98    1
   193    46    43    1
   194    46    47    1
   195    43    42    1
   196    98    97    1
   197    97    96    1
   198    49    47   ar
   199    49    51   ar
   200    47    48   ar
   201    51    52   ar
   202    96    93    1
   203    48    50   ar
   204    52    50   ar
   205    52    53    1
   206    95    94    2
   207    93    94    1
   208    93    92    1
