@<TRIPOS>MOLECULE
tmp/3zcvA00.pdb
 99 100 0 0 0
SMALL
GASTEIGER

@<TRIPOS>ATOM
      1  N         11.5920   10.3310   47.7050 N.3    49  ARG49      -0.1245
      2  CA        12.8630    9.9500   48.2930 C.3    49  ARG49       0.1563
      3  C         12.8160    8.5830   48.9850 C.2    49  ARG49       0.2260
      4  O         13.7600    7.8020   48.8770 O.2    49  ARG49      -0.2867
      5  CB        13.2910   11.0310   49.2820 C.3    49  ARG49       0.0307
      6  CG        14.5570   10.7440   50.0280 C.3    49  ARG49       0.0489
      7  CD        14.8730   11.8940   50.9630 C.3    49  ARG49       0.2205
      8  NE        14.4740   11.6470   52.3470 N.pl3  49  ARG49      -0.0865
      9  CZ        14.7640   12.4650   53.3560 C.cat  49  ARG49       0.5346
     10  NH1       15.4480   13.5840   53.1370 N.pl3  49  ARG49       0.1354
     11  NH2       14.3740   12.1700   54.5870 N.pl3  49  ARG49       0.1354
     12  N         13.7330    5.5250   46.9910 N.3    52  LEU52      -0.1231
     13  CA        15.1330    5.3260   46.6200 C.3    52  LEU52       0.1693
     14  C         15.9110    4.4680   47.6110 C.2    52  LEU52       0.2591
     15  O         16.9100    3.8460   47.2470 O.2    52  LEU52      -0.2718
     16  CB        15.8450    6.6810   46.4730 C.3    52  LEU52       0.0284
     17  CG        15.5200    7.5370   45.2510 C.3    52  LEU52       0.0019
     18  CD1       15.9790    8.9760   45.4640 C.3    52  LEU52       0.0001
     19  CD2       16.1330    6.9460   43.9840 C.3    52  LEU52       0.0001
     20  N         15.4620    4.4470   48.8640 N.am   53  VAL53      -0.1980
     21  CA        16.2670    3.9180   49.9730 C.3    53  VAL53       0.1595
     22  C         16.6470    2.4410   49.8390 C.2    53  VAL53       0.2287
     23  O         17.8310    2.0950   49.8940 O.2    53  VAL53      -0.2864
     24  CB        15.6020    4.2040   51.3490 C.3    53  VAL53       0.0276
     25  CG1       16.3730    3.5300   52.4690 C.3    53  VAL53       0.0022
     26  CG2       15.5150    5.7120   51.5860 C.3    53  VAL53       0.0022
     27  N         18.9930    1.9080   47.0060 N.3    56  TRP56      -0.1241
     28  CA        20.2980    2.4980   47.3040 C.3    56  TRP56       0.1605
     29  C         21.1380    1.5850   48.1990 C.2    56  TRP56       0.2264
     30  O         22.3150    1.3510   47.9260 O.2    56  TRP56      -0.2867
     31  CB        20.1180    3.8810   47.9430 C.3    56  TRP56       0.0550
     32  CG        21.3030    4.8020   47.8280 C.ar   56  TRP56       0.0003
     33  CD1       22.4240    4.6240   47.0630 C.ar   56  TRP56       0.0946
     34  CD2       21.4550    6.0740   48.4690 C.ar   56  TRP56       0.0152
     35  NE1       23.2730    5.6990   47.2060 N.ar   56  TRP56      -0.2442
     36  CE2       22.7000    6.6050   48.0600 C.ar   56  TRP56       0.0810
     37  CE3       20.6630    6.8130   49.3570 C.ar   56  TRP56       0.0012
     38  CZ2       23.1740    7.8410   48.5140 C.ar   56  TRP56       0.0191
     39  CZ3       21.1340    8.0500   49.8070 C.ar   56  TRP56       0.0001
     40  CH2       22.3820    8.5430   49.3860 C.ar   56  TRP56       0.0015
     41  N         18.0610   20.6800   51.7050 N.3   176  ASN176     -0.1226
     42  CA        18.2040   19.8360   50.5270 C.3   176  ASN176      0.1770
     43  C         17.7770   18.4080   50.8720 C.2   176  ASN176      0.2439
     44  O         18.5280   17.6710   51.5080 O.2   176  ASN176     -0.2733
     45  CB        19.6560   19.8750   50.0180 C.3   176  ASN176      0.1168
     46  CG        19.9040   18.9350   48.8420 C.2   176  ASN176      0.2627
     47  OD1       18.9680   18.4580   48.1940 O.2   176  ASN176     -0.2716
     48  ND2       21.1790   18.6750   48.5550 N.am  176  ASN176     -0.0877
     49  N         16.5600   18.0120   50.4510 N.am  177  PRO177     -0.2718
     50  CA        16.0460   16.6880   50.8090 C.3   177  PRO177      0.1535
     51  C         16.8070   15.5330   50.1490 C.2   177  PRO177      0.2599
     52  O         16.7110   14.3990   50.6110 O.2   177  PRO177     -0.2715
     53  CB        14.5870   16.7310   50.3270 C.3   177  PRO177      0.0310
     54  CG        14.5670   17.7490   49.2540 C.3   177  PRO177      0.0237
     55  CD        15.6070   18.7730   49.6220 C.3   177  PRO177      0.0939
     56  N         17.5830   15.8280   49.1090 N.am  178  TRP178     -0.1960
     57  CA        18.2370   14.7860   48.3090 C.3   178  TRP178      0.1771
     58  C         19.6060   14.3300   48.8140 C.2   178  TRP178      0.2620
     59  O         20.1480   13.3480   48.3140 O.2   178  TRP178     -0.2715
     60  CB        18.3130   15.2160   46.8410 C.3   178  TRP178      0.0590
     61  CG        16.9920   15.6840   46.3300 C.ar  178  TRP178      0.0006
     62  CD1       16.6340   16.9650   46.0230 C.ar  178  TRP178      0.0946
     63  CD2       15.8360   14.8750   46.0990 C.ar  178  TRP178      0.0152
     64  NE1       15.3250   17.0030   45.6000 N.ar  178  TRP178     -0.2442
     65  CE2       14.8120   15.7320   45.6400 C.ar  178  TRP178      0.0810
     66  CE3       15.5670   13.5040   46.2340 C.ar  178  TRP178      0.0012
     67  CZ2       13.5340   15.2630   45.3060 C.ar  178  TRP178      0.0191
     68  CZ3       14.2990   13.0370   45.8970 C.ar  178  TRP178      0.0001
     69  CH2       13.3000   13.9150   45.4390 C.ar  178  TRP178      0.0015
     70  N         20.1600   15.0280   49.8020 N.am  179  GLU179     -0.1963
     71  CA        21.4550   14.6420   50.3610 C.3   179  GLU179      0.1733
     72  C         21.3120   13.9440   51.7130 C.2   179  GLU179      0.2616
     73  O         20.3970   14.2490   52.4800 O.2   179  GLU179     -0.2715
     74  CB        22.3660   15.8680   50.5100 C.3   179  GLU179      0.0429
     75  CG        21.8690   16.8730   51.5430 C.3   179  GLU179      0.1163
     76  CD        22.7050   18.1340   51.6190 C.2   179  GLU179      0.3649
     77  OE1       23.5500   18.3630   50.7270 O.co2 179  GLU179     -0.2457
     78  OE2       22.4990   18.9070   52.5780 O.co2 179  GLU179     -0.2457
     79  N         22.2230   13.0110   51.9860 N.am  180  LYS180     -0.1963
     80  CA        22.3720   12.4180   53.3130 C.3   180  LYS180      0.1728
     81  C         23.7660   12.7300   53.8480 C.2   180  LYS180      0.2616
     82  O         24.7700   12.2390   53.3200 O.2   180  LYS180     -0.2715
     83  CB        22.1490   10.8990   53.2730 C.3   180  LYS180      0.0311
     84  CG        22.3810   10.1840   54.6140 C.3   180  LYS180      0.0038
     85  CD        21.3180   10.5670   55.6370 C.3   180  LYS180      0.0206
     86  CE        21.5940    9.9640   57.0070 C.3   180  LYS180      0.1093
     87  NZ        22.5570   10.7830   57.7940 N.3   180  LYS180     -0.1314
     88  N         23.8190   13.5560   54.8890 N.am  181  ALA181     -0.1977
     89  CA        25.0740   13.8500   55.5710 C.3   181  ALA181      0.1597
     90  C         25.6440   12.5720   56.1690 C.2   181  ALA181      0.2287
     91  O         24.9080   11.7680   56.7510 O.2   181  ALA181     -0.2864
     92  CB        24.8580   14.8940   56.6540 C.3   181  ALA181      0.0319
     93  N         21.8300   10.2450   46.0580 N.3   218  PRO218     -0.2116
     94  CA        21.5420    9.0950   45.1980 C.3   218  PRO218      0.1372
     95  C         21.4460    9.4620   43.7180 C.2   218  PRO218      0.2244
     96  O         20.9160   10.5190   43.3630 O.2   218  PRO218     -0.2868
     97  CB        20.1840    8.5920   45.7180 C.3   218  PRO218      0.0268
     98  CG        19.5620    9.7650   46.3660 C.3   218  PRO218      0.0207
     99  CD        20.6870   10.5880   46.9240 C.3   218  PRO218      0.0892
@<TRIPOS>BOND
     1    96    95    2
     2    95    94    1
     3    19    17    1
     4    94    97    1
     5    94    93    1
     6    17    18    1
     7    17    16    1
     8    67    69   ar
     9    67    65   ar
    10    69    68   ar
    11    64    65   ar
    12    64    62   ar
    13    65    63   ar
    14    97    98    1
    15    68    66   ar
    16    62    61   ar
    17    93    99    1
    18    63    66   ar
    19    63    61   ar
    20    61    60    1
    21    98    99    1
    22    16    13    1
    23    13    12    1
    24    13    14    1
    25    60    57    1
    26    27    28    1
    27    33    35   ar
    28    33    32   ar
    29    35    36   ar
    30    15    14    2
    31    28    31    1
    32    28    29    1
    33    14    20   am
    34     1     2    1
    35    32    31    1
    36    32    34   ar
    37    30    29    2
    38    36    34   ar
    39    36    38   ar
    40    47    46    2
    41     2     3    1
    42     2     5    1
    43    57    58    1
    44    57    56    1
    45    59    58    2
    46    34    37   ar
    47    38    40   ar
    48    48    46   am
    49    58    70   am
    50    46    45    1
    51    20    21    1
    52     4     3    2
    53    56    51   am
    54    54    55    1
    55    54    53    1
    56     5     6    1
    57    37    39   ar
    58    40    39   ar
    59    55    49    1
    60    70    71    1
    61    22    23    2
    62    22    21    1
    63    21    24    1
    64    45    42    1
    65     6     7    1
    66    51    52    2
    67    51    50    1
    68    53    50    1
    69    71    74    1
    70    71    72    1
    71    49    50    1
    72    49    43   am
    73    74    75    1
    74    42    43    1
    75    42    41    1
    76    77    76   ar
    77    43    44    2
    78     7     8    1
    79    24    26    1
    80    24    25    1
    81    75    76    1
    82    76    78   ar
    83    72    79   am
    84    72    73    2
    85    79    80    1
    86     8     9    2
    87    10     9    1
    88    83    80    1
    89    83    84    1
    90    80    81    1
    91    82    81    2
    92     9    11    1
    93    81    88   am
    94    84    85    1
    95    88    89    1
    96    89    90    1
    97    89    92    1
    98    85    86    1
    99    90    91    2
   100    86    87    1
