@<TRIPOS>MOLECULE
tmp/3zcwA01.pdb
 189 179 0 0 0
SMALL
GASTEIGER

@<TRIPOS>ATOM
      1  N          4.0320   -2.1540   19.7910 N.3    83  PHE83      -0.1241
      2  CA         2.7030   -1.6010   19.4310 C.3    83  PHE83       0.1605
      3  C          1.5620   -2.2830   20.1880 C.2    83  PHE83       0.2264
      4  O          1.6560   -3.4700   20.4600 O.2    83  PHE83      -0.2867
      5  CB         2.3910   -1.8200   17.9400 C.3    83  PHE83       0.0534
      6  CG         3.3950   -1.1620   16.9920 C.ar   83  PHE83      -0.0203
      7  CD1        3.2600    0.1660   16.6700 C.ar   83  PHE83      -0.0042
      8  CD2        4.4250   -1.9050   16.4290 C.ar   83  PHE83      -0.0042
      9  CE1        4.1530    0.7850   15.7830 C.ar   83  PHE83      -0.0003
     10  CE2        5.3370   -1.3300   15.5510 C.ar   83  PHE83      -0.0003
     11  CZ         5.2140    0.0140   15.2180 C.ar   83  PHE83      -0.0000
     12  N         -2.3750   -2.8190   19.1580 N.3    85  TYR85      -0.1241
     13  CA        -3.2900   -2.6950   18.0080 C.3    85  TYR85       0.1605
     14  C         -4.6100   -3.4080   18.3090 C.2    85  TYR85       0.2264
     15  O         -4.5960   -4.5200   18.8440 O.2    85  TYR85      -0.2867
     16  CB        -2.6510   -3.3910   16.7910 C.3    85  TYR85       0.0534
     17  CG        -3.5500   -3.4530   15.5930 C.ar   85  TYR85      -0.0201
     18  CD1       -4.5530   -4.4580   15.4520 C.ar   85  TYR85      -0.0009
     19  CD2       -3.4450   -2.4910   14.5920 C.ar   85  TYR85      -0.0009
     20  CE1       -5.4170   -4.4800   14.3290 C.ar   85  TYR85       0.0417
     21  CE2       -4.2770   -2.5100   13.4870 C.ar   85  TYR85       0.0417
     22  CZ        -5.2640   -3.4990   13.3670 C.ar   85  TYR85       0.1957
     23  OH        -6.0430   -3.4690   12.2530 O.3    85  TYR85      -0.2866
     24  N         -1.8810    2.5080   19.3660 N.3   239  LEU239     -0.1245
     25  CA        -2.3810    2.8710   18.0290 C.3   239  LEU239      0.1561
     26  C         -3.8210    3.3580   18.0640 C.2   239  LEU239      0.2260
     27  O         -4.5540    3.0740   19.0030 O.2   239  LEU239     -0.2867
     28  CB        -2.2410    1.6830   17.0660 C.3   239  LEU239      0.0270
     29  CG        -0.7980    1.2740   16.7540 C.3   239  LEU239      0.0019
     30  CD1       -0.6890   -0.0140   15.9420 C.3   239  LEU239      0.0001
     31  CD2       -0.0860    2.4320   16.0230 C.3   239  LEU239      0.0001
     32  N         -7.7340    3.1840   17.1430 N.3   241  GLY241     -0.1210
     33  CA        -8.6130    2.0190   17.0500 C.3   241  GLY241      0.1956
     34  C         -8.7360    1.5120   15.6190 C.2   241  GLY241      0.2613
     35  O         -8.7740    2.2810   14.6600 O.2   241  GLY241     -0.2717
     36  N         -8.7750    0.1980   15.4880 N.am  242  SER242     -0.1938
     37  CA        -8.7100   -0.4400   14.1890 C.3   242  SER242      0.2055
     38  C        -10.0950   -0.6060   13.5050 C.2   242  SER242      0.2643
     39  O        -10.1570   -1.0400   12.3370 O.2   242  SER242     -0.2714
     40  CB        -8.0570   -1.8090   14.3590 C.3   242  SER242      0.2130
     41  OG        -8.8020   -2.5550   15.3070 O.3   242  SER242     -0.2179
     42  N        -11.1710   -0.2920   14.2330 N.am  243  GLU243     -0.1963
     43  CA       -12.5530   -0.4990   13.7490 C.3   243  GLU243      0.1733
     44  C        -12.8600    0.3490   12.5290 C.2   243  GLU243      0.2616
     45  O        -12.3540    1.4610   12.3840 O.2   243  GLU243     -0.2715
     46  CB       -13.6060   -0.2170   14.8460 C.3   243  GLU243      0.0429
     47  CG       -13.6620    1.2340   15.3920 C.3   243  GLU243      0.1163
     48  CD       -12.6830    1.4660   16.5670 C.2   243  GLU243      0.3649
     49  OE1      -11.8890    0.5560   16.8370 O.co2 243  GLU243     -0.2457
     50  OE2      -12.7130    2.5490   17.2020 O.co2 243  GLU243     -0.2457
     51  N        -13.6880   -0.1890   11.6380 N.am  244  ASN244     -0.1972
     52  CA       -14.1350    0.6020   10.5030 C.3   244  ASN244      0.1688
     53  C        -15.5370    1.1800   10.6840 C.2   244  ASN244      0.2292
     54  O        -15.7280    2.1080   11.4730 O.2   244  ASN244     -0.2864
     55  CB       -13.9980   -0.1970    9.2090 C.3   244  ASN244      0.1181
     56  CG       -12.5440   -0.4280    8.8320 C.2   244  ASN244      0.2629
     57  OD1      -11.8970   -1.3480    9.3500 O.2   244  ASN244     -0.2716
     58  ND2      -12.0100    0.4230    7.9540 N.am  244  ASN244     -0.0877
     59  N        -13.8190    5.5170    8.6460 N.3   245  ASN245     -0.1225
     60  CA       -12.9960    5.7290    7.4600 C.3   245  ASN245      0.1785
     61  C        -11.6260    5.0530    7.5640 C.2   245  ASN245      0.2597
     62  O        -11.4590    4.0990    8.3290 O.2   245  ASN245     -0.2718
     63  CB       -12.8490    7.2240    7.1610 C.3   245  ASN245      0.1169
     64  CG       -12.3560    8.0190    8.3620 C.2   245  ASN245      0.2627
     65  OD1      -11.2180    8.4930    8.3860 O.2   245  ASN245     -0.2716
     66  ND2      -13.2200    8.1800    9.3610 N.am  245  ASN245     -0.0877
     67  N        -10.6540    5.5480    6.7980 N.am  246  ILE246     -0.1966
     68  CA        -9.3000    4.9630    6.7600 C.3   246  ILE246      0.1727
     69  C         -8.2850    5.8560    7.4630 C.2   246  ILE246      0.2616
     70  O         -8.2030    7.0530    7.2000 O.2   246  ILE246     -0.2715
     71  CB        -8.8700    4.6500    5.3160 C.3   246  ILE246      0.0290
     72  CG1       -9.9340    3.7300    4.7160 C.3   246  ILE246      0.0022
     73  CG2       -7.4540    3.9670    5.2800 C.3   246  ILE246      0.0023
     74  CD1       -9.4710    2.9830    3.5150 C.3   246  ILE246      0.0001
     75  N         -7.5550    5.2790    8.4100 N.am  247  ASN247     -0.1972
     76  CA        -6.4780    6.0020    9.0800 C.3   247  ASN247      0.1688
     77  C         -5.1640    5.8880    8.3090 C.2   247  ASN247      0.2292
     78  O         -4.5620    4.8220    8.2420 O.2   247  ASN247     -0.2864
     79  CB        -6.2970    5.4580   10.4960 C.3   247  ASN247      0.1181
     80  CG        -5.3020    6.2730   11.3120 C.2   247  ASN247      0.2629
     81  OD1       -4.0940    6.3110   11.0030 O.2   247  ASN247     -0.2716
     82  ND2       -5.7990    6.9180   12.3760 N.am  247  ASN247     -0.0877
     83  N         -2.2080    4.3030   10.0310 N.3   250  LEU250     -0.1231
     84  CA        -2.3640    2.9120   10.4260 C.3   250  LEU250      0.1693
     85  C         -2.2240    2.0120    9.1930 C.2   250  LEU250      0.2591
     86  O         -1.5840    0.9800    9.2570 O.2   250  LEU250     -0.2718
     87  CB        -3.7370    2.7100   11.0760 C.3   250  LEU250      0.0284
     88  CG        -3.9420    1.4170   11.8630 C.3   250  LEU250      0.0019
     89  CD1       -2.8710    1.2090   12.9830 C.3   250  LEU250      0.0001
     90  CD2       -5.3780    1.4240   12.4310 C.3   250  LEU250      0.0001
     91  N         -2.8060    2.4370    8.0710 N.am  251  LEU251     -0.1980
     92  CA        -2.6870    1.6990    6.8050 C.3   251  LEU251      0.1596
     93  C         -1.2140    1.6730    6.3910 C.2   251  LEU251      0.2287
     94  O         -0.6790    0.6430    5.9740 O.2   251  LEU251     -0.2864
     95  CB        -3.4800    2.4130    5.7010 C.3   251  LEU251      0.0297
     96  CG        -3.4310    1.8000    4.2820 C.3   251  LEU251      0.0022
     97  CD1       -3.7910    0.2710    4.2550 C.3   251  LEU251      0.0001
     98  CD2       -4.3450    2.6090    3.3250 C.3   251  LEU251      0.0001
     99  N          1.5000    2.0380    8.2970 N.3   253  LEU253     -0.1231
    100  CA         2.2370    1.1580    9.1890 C.3   253  LEU253      0.1693
    101  C          2.0020   -0.3150    8.8040 C.2   253  LEU253      0.2593
    102  O          2.9380   -1.1000    8.8260 O.2   253  LEU253     -0.2718
    103  CB         1.8620    1.4320   10.6550 C.3   253  LEU253      0.0284
    104  CG         2.4780    0.5330   11.7170 C.3   253  LEU253      0.0019
    105  CD1        4.0180    0.6130   11.7370 C.3   253  LEU253      0.0001
    106  CD2        1.8960    0.8510   13.1040 C.3   253  LEU253      0.0001
    107  N          0.7610   -0.6750    8.4700 N.am  254  GLY254     -0.1942
    108  CA         0.4650   -2.0440    8.0520 C.3   254  GLY254      0.2014
    109  C          1.3060   -2.4360    6.8360 C.2   254  GLY254      0.2638
    110  O          1.9100   -3.5200    6.7700 O.2   254  GLY254     -0.2714
    111  N          1.3320   -1.5430    5.8560 N.am  255  ARG255     -0.1977
    112  CA         2.1610   -1.7350    4.6640 C.3   255  ARG255      0.1597
    113  C          3.6480   -1.8370    4.9700 C.2   255  ARG255      0.2287
    114  O          4.3900   -2.6290    4.3570 O.2   255  ARG255     -0.2864
    115  CB         1.8960   -0.5930    3.6670 C.3   255  ARG255      0.0334
    116  CG         0.5070   -0.6740    2.9900 C.3   255  ARG255      0.0492
    117  CD         0.1220    0.6470    2.3420 C.3   255  ARG255      0.2205
    118  NE        -1.1120    0.5550    1.5350 N.pl3 255  ARG255     -0.0865
    119  CZ        -1.7380    1.6080    1.0170 C.cat 255  ARG255      0.5346
    120  NH1       -1.2810    2.8380    1.2490 N.pl3 255  ARG255      0.1354
    121  NH2       -2.8390    1.4300    0.2830 N.pl3 255  ARG255      0.1354
    122  N          4.8490   -2.9090    7.8540 N.3   257  ILE257     -0.1231
    123  CA         5.0330   -4.2020    8.4990 C.3   257  ILE257      0.1692
    124  C          5.0280   -5.3350    7.4650 C.2   257  ILE257      0.2592
    125  O          5.8710   -6.2370    7.5040 O.2   257  ILE257     -0.2718
    126  CB         3.9490   -4.4310    9.5510 C.3   257  ILE257      0.0266
    127  CG1        4.2120   -3.5240   10.7630 C.3   257  ILE257      0.0019
    128  CG2        3.8820   -5.9190    9.9350 C.3   257  ILE257      0.0020
    129  CD1        2.9920   -3.3460   11.6240 C.3   257  ILE257      0.0001
    130  N          4.1060   -5.2730    6.5150 N.am  258  THR258     -0.1953
    131  CA         4.0740   -6.2290    5.4150 C.3   258  THR258      0.1897
    132  C          5.3870   -6.2220    4.6040 C.2   258  THR258      0.2313
    133  O          5.9400   -7.2940    4.3040 O.2   258  THR258     -0.2863
    134  CB         2.8670   -5.9580    4.4950 C.3   258  THR258      0.1794
    135  OG1        1.6580   -6.1890    5.2340 O.3   258  THR258     -0.2208
    136  CG2        2.8910   -6.8840    3.2920 C.3   258  THR258      0.0378
    137  N          4.1540   -6.6490   18.2910 N.3   290  ILE290     -0.1245
    138  CA         2.7940   -6.1630   18.1460 C.3   290  ILE290      0.1561
    139  C          1.9120   -6.9560   19.1050 C.2   290  ILE290      0.2260
    140  O          1.8900   -8.1850   19.0690 O.2   290  ILE290     -0.2867
    141  CB         2.3000   -6.3850   16.7140 C.3   290  ILE290      0.0252
    142  CG1        3.1150   -5.5040   15.7280 C.3   290  ILE290      0.0019
    143  CG2        0.8060   -6.0200   16.6370 C.3   290  ILE290      0.0019
    144  CD1        2.8790   -5.9250   14.2420 C.3   290  ILE290      0.0001
    145  N         -1.8060   -7.4950   19.7960 N.3   292  ALA292     -0.1245
    146  CA        -3.1320   -7.3080   19.2100 C.3   292  ALA292      0.1562
    147  C         -4.1680   -7.6040   20.2860 C.2   292  ALA292      0.2260
    148  O         -4.2370   -8.7100   20.8090 O.2   292  ALA292     -0.2867
    149  CB        -3.3080   -8.2800   18.0250 C.3   292  ALA292      0.0290
    150  N         -9.0350   -8.0490   13.2780 N.3   307  THR307     -0.1218
    151  CA        -7.7690   -7.9660   13.9930 C.3   307  THR307      0.1862
    152  C         -6.9490   -9.2550   13.8810 C.2   307  THR307      0.2287
    153  O         -5.7490   -9.2230   13.5920 O.2   307  THR307     -0.2866
    154  CB        -8.0220   -7.5930   15.4760 C.3   307  THR307      0.1770
    155  OG1       -8.5420   -6.2490   15.5050 O.3   307  THR307     -0.2211
    156  CG2       -6.7340   -7.7430   16.3620 C.3   307  THR307      0.0375
    157  N         -5.4790   -9.8180   10.2410 N.3   310  TYR310     -0.1227
    158  CA        -4.3120   -8.9830   10.0660 C.3   310  TYR310      0.1736
    159  C         -3.1050   -9.4850   10.8320 C.2   310  TYR310      0.2595
    160  O         -1.9820   -9.4850   10.3100 O.2   310  TYR310     -0.2718
    161  CB        -4.5670   -7.5470   10.5260 C.3   310  TYR310      0.0548
    162  CG        -5.3680   -6.6510    9.6060 C.ar  310  TYR310     -0.0200
    163  CD1       -4.9800   -6.4250    8.2720 C.ar  310  TYR310     -0.0009
    164  CD2       -6.5010   -5.9900   10.0870 C.ar  310  TYR310     -0.0009
    165  CE1       -5.7290   -5.5720    7.4370 C.ar  310  TYR310      0.0417
    166  CE2       -7.2410   -5.1430    9.2700 C.ar  310  TYR310      0.0417
    167  CZ        -6.8650   -4.9460    7.9520 C.ar  310  TYR310      0.1957
    168  OH        -7.6330   -4.0950    7.1770 O.3   310  TYR310     -0.2866
    169  N         -3.3090   -9.8410   12.1030 N.am  311  ALA311     -0.1980
    170  CA        -2.1850  -10.1860   12.9730 C.3   311  ALA311      0.1597
    171  C         -1.5980  -11.4840   12.4780 C.2   311  ALA311      0.2287
    172  O         -0.3830  -11.6560   12.4810 O.2   311  ALA311     -0.2864
    173  CB        -2.6490  -10.3410   14.4060 C.3   311  ALA311      0.0319
    174  N         -1.5560  -12.6140    9.3880 N.3   313  ARG313     -0.1231
    175  CA        -0.7780  -12.3690    8.1700 C.3   313  ARG313      0.1694
    176  C          0.5700  -11.7470    8.5000 C.2   313  ARG313      0.2591
    177  O          1.5890  -12.0240    7.8560 O.2   313  ARG313     -0.2718
    178  CB        -1.5350  -11.4660    7.2100 C.3   313  ARG313      0.0321
    179  CG        -2.5260  -12.1630    6.3280 C.3   313  ARG313      0.0489
    180  CD        -2.6020  -11.4420    5.0040 C.3   313  ARG313      0.2205
    181  NE        -2.2660  -10.0380    5.1890 N.pl3 313  ARG313     -0.0865
    182  CZ        -3.1410   -9.1000    5.5440 C.cat 313  ARG313      0.5346
    183  NH1       -4.4190   -9.4240    5.7420 N.pl3 313  ARG313      0.1354
    184  NH2       -2.7370   -7.8420    5.7010 N.pl3 313  ARG313      0.1354
    185  N          0.5780  -10.9040    9.5190 N.am  314  ALA314     -0.1980
    186  CA         1.8160  -10.2660    9.9510 C.3   314  ALA314      0.1597
    187  C          2.8490  -11.2650   10.4960 C.2   314  ALA314      0.2287
    188  O          4.0380  -10.9830   10.5470 O.2   314  ALA314     -0.2864
    189  CB         1.5180   -9.1980   11.0040 C.3   314  ALA314      0.0319
@<TRIPOS>BOND
     1   121   119    1
     2   119   120    1
     3   119   118    2
     4   118   117    1
     5   117   116    1
     6   116   115    1
     7   136   134    1
     8    98    96    1
     9    74    72    1
    10   115   112    1
    11    97    96    1
    12    96    95    1
    13   133   132    2
    14   114   113    2
    15   134   135    1
    16   134   131    1
    17   132   131    1
    18   112   113    1
    19   112   111    1
    20    72    71    1
    21   180   181    1
    22   180   179    1
    23   181   182    2
    24    73    71    1
    25    71    68    1
    26   131   130    1
    27   182   184    1
    28   182   183    1
    29    95    92    1
    30   111   109   am
    31    94    93    2
    32   179   178    1
    33    93    92    1
    34   130   124   am
    35    68    67    1
    36    68    69    1
    37   110   109    2
    38    67    61   am
    39    92    91    1
    40   109   108    1
    41    63    60    1
    42    63    64    1
    43   168   167    1
    44    70    69    2
    45   178   175    1
    46   165   167   ar
    47   165   163   ar
    48    60    61    1
    49    60    59    1
    50    69    75   am
    51   124   125    2
    52   124   123    1
    53    61    62    2
    54   122   123    1
    55   177   176    2
    56   167   166   ar
    57    58    56   am
    58   108   107    1
    59    91    85   am
    60   175   176    1
    61   175   174    1
    62    78    77    2
    63   163   162   ar
    64    99   100    1
    65    77    76    1
    66    64    65    2
    67    64    66   am
    68    75    76    1
    69   107   101   am
    70   123   126    1
    71   176   185   am
    72   101   102    2
    73   101   100    1
    74    56    55    1
    75    56    57    2
    76    76    79    1
    77   100   103    1
    78    85    86    2
    79    85    84    1
    80    55    52    1
    81   166   164   ar
    82   185   186    1
    83   126   128    1
    84   126   127    1
    85   162   164   ar
    86   162   161    1
    87   186   187    1
    88   186   189    1
    89    83    84    1
    90   158   157    1
    91   158   161    1
    92   158   159    1
    93   160   159    2
    94    84    87    1
    95   187   188    2
    96    79    80    1
    97    52    53    1
    98    52    51    1
    99   103   104    1
   100    53    54    2
   101   127   129    1
   102   159   169   am
   103    81    80    2
   104    87    88    1
   105    80    82   am
   106    51    44   am
   107   104   105    1
   108   104   106    1
   109    88    90    1
   110    88    89    1
   111   169   170    1
   112    23    22    1
   113    39    38    2
   114    45    44    2
   115   171   172    2
   116   171   170    1
   117    44    43    1
   118   170   173    1
   119   150   151    1
   120    22    21   ar
   121    22    20   ar
   122    21    19   ar
   123    38    37    1
   124    38    42   am
   125   153   152    2
   126    43    42    1
   127    43    46    1
   128   152   151    1
   129   151   154    1
   130    37    40    1
   131    37    36    1
   132   144   142    1
   133    20    18   ar
   134    40    41    1
   135    19    17   ar
   136    35    34    2
   137    46    47    1
   138    11    10   ar
   139    11     9   ar
   140    47    48    1
   141    18    17   ar
   142   154   155    1
   143   154   156    1
   144    36    34   am
   145    10     8   ar
   146    17    16    1
   147    34    33    1
   148   142   141    1
   149     9     7   ar
   150    30    29    1
   151    31    29    1
   152     8     6   ar
   153    48    49   ar
   154    48    50   ar
   155   143   141    1
   156     7     6   ar
   157   141   138    1
   158    29    28    1
   159    16    13    1
   160     6     5    1
   161    33    32    1
   162    28    25    1
   163     5     2    1
   164    13    14    1
   165    13    12    1
   166   149   146    1
   167    25    26    1
   168    25    24    1
   169    26    27    2
   170   138   137    1
   171   138   139    1
   172    14    15    2
   173   140   139    2
   174   146   145    1
   175   146   147    1
   176     2     1    1
   177     2     3    1
   178     3     4    2
   179   147   148    2
