@<TRIPOS>MOLECULE
tmp/3zcwA02.pdb
 181 170 0 0 0
SMALL
GASTEIGER

@<TRIPOS>ATOM
      1  N         -0.3930    1.6830   29.1840 N.3    97  GLU97      -0.1231
      2  CA        -0.2700    2.5860   30.3420 C.3    97  GLU97       0.1699
      3  C         -0.6600    1.9000   31.6200 C.2    97  GLU97       0.2592
      4  O          0.0370    2.0090   32.6620 O.2    97  GLU97      -0.2718
      5  CB        -1.1340    3.8350   30.1740 C.3    97  GLU97       0.0402
      6  CG        -0.7440    4.6840   29.0020 C.3    97  GLU97       0.1161
      7  CD        -1.6910    5.8620   28.7860 C.2    97  GLU97       0.3649
      8  OE1       -2.5970    6.0950   29.6320 O.co2  97  GLU97      -0.2457
      9  OE2       -1.5470    6.5210   27.7270 O.co2  97  GLU97      -0.2457
     10  N         -1.7740    1.1820   31.5410 N.am   98  GLY98      -0.1957
     11  CA        -2.3890    0.6100   32.7220 C.3    98  GLY98       0.1869
     12  C         -2.9580    1.7070   33.6170 C.2    98  GLY98       0.2309
     13  O         -3.2630    2.8190   33.1660 O.2    98  GLY98      -0.2863
     14  N          3.2360    3.2340   42.3160 N.3   108  TRP108     -0.1241
     15  CA         3.1830    2.9010   40.8970 C.3   108  TRP108      0.1605
     16  C          4.1500    1.7570   40.5870 C.2   108  TRP108      0.2264
     17  O          3.9100    0.9150   39.7050 O.2   108  TRP108     -0.2867
     18  CB         3.5550    4.1290   40.0580 C.3   108  TRP108      0.0550
     19  CG         2.3960    5.0120   39.6850 C.ar  108  TRP108      0.0003
     20  CD1        2.0310    6.2010   40.2640 C.ar  108  TRP108      0.0946
     21  CD2        1.4720    4.7890   38.6190 C.ar  108  TRP108      0.0152
     22  NE1        0.9250    6.7170   39.6340 N.ar  108  TRP108     -0.2442
     23  CE2        0.5620    5.8680   38.6180 C.ar  108  TRP108      0.0810
     24  CE3        1.3090    3.7660   37.6790 C.ar  108  TRP108      0.0012
     25  CZ2       -0.4880    5.9580   37.7010 C.ar  108  TRP108      0.0191
     26  CZ3        0.2670    3.8600   36.7720 C.ar  108  TRP108      0.0001
     27  CH2       -0.6060    4.9490   36.7840 C.ar  108  TRP108      0.0015
     28  N          4.3850    1.0080   30.0140 N.3   117  ILE117     -0.1231
     29  CA         5.1860    2.2420   30.1170 C.3   117  ILE117      0.1678
     30  C          5.7080    2.4340   31.5440 C.2   117  ILE117      0.2434
     31  O          6.9240    2.5550   31.7260 O.2   117  ILE117     -0.2733
     32  CB         4.3870    3.4620   29.6030 C.3   117  ILE117      0.0265
     33  CG1        4.1390    3.3080   28.0850 C.3   117  ILE117      0.0019
     34  CG2        5.1200    4.7800   29.9170 C.3   117  ILE117      0.0020
     35  CD1        3.0600    4.2750   27.5230 C.3   117  ILE117      0.0001
     36  N          4.8220    2.4280   32.5580 N.am  118  PRO118     -0.2729
     37  CA         5.3870    2.5870   33.9060 C.3   118  PRO118      0.1401
     38  C          6.3480    1.4750   34.2980 C.2   118  PRO118      0.2269
     39  O          7.3670    1.7610   34.9370 O.2   118  PRO118     -0.2865
     40  CB         4.1470    2.6370   34.8420 C.3   118  PRO118      0.0296
     41  CG         3.0020    2.1900   34.0020 C.3   118  PRO118      0.0237
     42  CD         3.3470    2.5120   32.5700 C.3   118  PRO118      0.0939
     43  N          6.2200   12.3160   24.6320 N.3   141  LEU141     -0.1245
     44  CA         4.9260   11.7120   24.3040 C.3   141  LEU141      0.1561
     45  C          4.1970   12.5510   23.2890 C.2   141  LEU141      0.2260
     46  O          3.8510   13.6870   23.5610 O.2   141  LEU141     -0.2867
     47  CB         4.0880   11.5790   25.5490 C.3   141  LEU141      0.0270
     48  CG         2.6920   10.9910   25.3770 C.3   141  LEU141      0.0019
     49  CD1        2.7720    9.5200   24.9380 C.3   141  LEU141      0.0001
     50  CD2        1.9630   11.0770   26.6940 C.3   141  LEU141      0.0001
     51  N          1.0730   12.7310   20.0500 N.3   143  GLU143     -0.1245
     52  CA        -0.1510   12.1760   19.5050 C.3   143  GLU143      0.1567
     53  C         -0.2140   12.4750   18.0160 C.2   143  GLU143      0.2260
     54  O          0.1140   13.5830   17.5920 O.2   143  GLU143     -0.2867
     55  CB        -1.3270   12.8420   20.1770 C.3   143  GLU143      0.0388
     56  CG        -2.6210   12.2790   19.7560 C.3   143  GLU143      0.1160
     57  CD        -3.7540   12.8740   20.5270 C.2   143  GLU143      0.3649
     58  OE1       -4.2060   13.9900   20.1610 O.co2 143  GLU143     -0.2457
     59  OE2       -4.1740   12.2260   21.5130 O.co2 143  GLU143     -0.2457
     60  N          1.9150   15.8240   23.7970 N.3   152  LEU152     -0.1231
     61  CA         1.0290   15.5300   24.9220 C.3   152  LEU152      0.1693
     62  C          1.6060   15.9830   26.2630 C.2   152  LEU152      0.2591
     63  O          0.8800   16.0610   27.2590 O.2   152  LEU152     -0.2718
     64  CB         0.6520   14.0510   25.0060 C.3   152  LEU152      0.0284
     65  CG        -0.4030   13.5540   24.0080 C.3   152  LEU152      0.0019
     66  CD1       -0.5850   12.0430   24.1140 C.3   152  LEU152      0.0001
     67  CD2       -1.7420   14.2710   24.1910 C.3   152  LEU152      0.0001
     68  N          2.9040   16.2710   26.2660 N.am  153  LEU153     -0.1980
     69  CA         3.5800   16.7610   27.4590 C.3   153  LEU153      0.1596
     70  C          3.5820   18.2960   27.4830 C.2   153  LEU153      0.2287
     71  O          3.8280   18.8910   28.5220 O.2   153  LEU153     -0.2864
     72  CB         5.0130   16.2270   27.4950 C.3   153  LEU153      0.0297
     73  CG         5.1490   14.6940   27.5200 C.3   153  LEU153      0.0022
     74  CD1        6.6260   14.2640   27.7270 C.3   153  LEU153      0.0001
     75  CD2        4.2200   14.0710   28.5780 C.3   153  LEU153      0.0001
     76  N         11.7250   15.3910   28.2440 N.3   175  ILE175     -0.1245
     77  CA        11.9450   15.6600   29.6540 C.3   175  ILE175      0.1561
     78  C         12.8980   14.6350   30.2480 C.2   175  ILE175      0.2260
     79  O         12.7610   13.4430   30.0090 O.2   175  ILE175     -0.2867
     80  CB        10.5840   15.6370   30.3910 C.3   175  ILE175      0.0252
     81  CG1        9.6930   16.7650   29.8650 C.3   175  ILE175      0.0019
     82  CG2       10.7610   15.7340   31.8970 C.3   175  ILE175      0.0019
     83  CD1        8.3120   16.7890   30.4650 C.3   175  ILE175      0.0001
     84  N          5.3560   11.9690   36.7440 N.3   186  ILE186     -0.1231
     85  CA         4.8380   11.9510   35.3810 C.3   186  ILE186      0.1692
     86  C          3.6090   11.0580   35.2660 C.2   186  ILE186      0.2591
     87  O          2.6720   11.3940   34.5410 O.2   186  ILE186     -0.2718
     88  CB         5.9030   11.4920   34.3730 C.3   186  ILE186      0.0266
     89  CG1        7.0630   12.4800   34.3710 C.3   186  ILE186      0.0019
     90  CG2        5.3180   11.3840   32.9520 C.3   186  ILE186      0.0020
     91  CD1        8.2810   11.9080   33.7520 C.3   186  ILE186      0.0001
     92  N          3.6110    9.9190   35.9660 N.am  187  LEU187     -0.1980
     93  CA         2.4720    8.9760   35.9400 C.3   187  LEU187      0.1596
     94  C          1.2540    9.5990   36.6370 C.2   187  LEU187      0.2287
     95  O          0.1210    9.4670   36.1660 O.2   187  LEU187     -0.2864
     96  CB         2.8450    7.6430   36.6160 C.3   187  LEU187      0.0297
     97  CG         4.0070    6.8710   35.9750 C.3   187  LEU187      0.0022
     98  CD1        4.4830    5.7220   36.8410 C.3   187  LEU187      0.0001
     99  CD2        3.6090    6.3680   34.5910 C.3   187  LEU187      0.0001
    100  N          0.6250   12.7630   36.8890 N.3   189  LYS189     -0.1231
    101  CA         0.1390   13.7730   35.9510 C.3   189  LYS189      0.1693
    102  C         -0.6580   13.1690   34.7990 C.2   189  LYS189      0.2593
    103  O         -1.7190   13.6890   34.4280 O.2   189  LYS189     -0.2718
    104  CB         1.2830   14.6240   35.4010 C.3   189  LYS189      0.0285
    105  CG         1.3830   15.9880   36.0600 C.3   189  LYS189      0.0035
    106  CD         2.7780   16.2790   36.5290 C.3   189  LYS189      0.0206
    107  CE         3.8100   16.0320   35.4480 C.3   189  LYS189      0.1093
    108  NZ         5.0740   16.7740   35.7430 N.3   189  LYS189     -0.1314
    109  N         -0.1510   12.0820   34.2210 N.am  190  GLY190     -0.1942
    110  CA        -0.8890   11.4320   33.1440 C.3   190  GLY190      0.2014
    111  C         -2.2340   10.8770   33.5930 C.2   190  GLY190      0.2638
    112  O         -3.2290   10.9720   32.8570 O.2   190  GLY190     -0.2714
    113  N         -2.2780   10.2850   34.7840 N.am  191  ALA191     -0.1977
    114  CA        -3.5260    9.7010   35.2670 C.3   191  ALA191      0.1597
    115  C         -4.5350   10.8030   35.5180 C.2   191  ALA191      0.2287
    116  O         -5.7190   10.6450   35.2140 O.2   191  ALA191     -0.2864
    117  CB        -3.3050    8.8520   36.5330 C.3   191  ALA191      0.0319
    118  N         -4.7550   13.6240   33.9390 N.3   193  LYS193     -0.1231
    119  CA        -5.2060   13.9590   32.5960 C.3   193  LYS193      0.1693
    120  C         -6.2320   12.9570   32.0580 C.2   193  LYS193      0.2591
    121  O         -7.2640   13.3570   31.5470 O.2   193  LYS193     -0.2718
    122  CB        -4.0290   14.0570   31.6220 C.3   193  LYS193      0.0285
    123  CG        -3.3500   15.4070   31.5700 C.3   193  LYS193      0.0035
    124  CD        -4.2720   16.4520   30.9590 C.3   193  LYS193      0.0206
    125  CE        -3.5030   17.3850   30.0220 C.3   193  LYS193      0.1093
    126  NZ        -2.3230   18.0340   30.6880 N.3   193  LYS193     -0.1314
    127  N         -5.9580   11.6570   32.1720 N.am  194  ARG194     -0.1980
    128  CA        -6.9200   10.6760   31.6870 C.3   194  ARG194      0.1597
    129  C         -8.2240   10.8170   32.4530 C.2   194  ARG194      0.2287
    130  O         -9.3010   10.9010   31.8570 O.2   194  ARG194     -0.2864
    131  CB        -6.3860    9.2460   31.8280 C.3   194  ARG194      0.0334
    132  CG        -5.2760    8.9000   30.8530 C.3   194  ARG194      0.0492
    133  CD        -5.8360    8.5360   29.4970 C.3   194  ARG194      0.2205
    134  NE        -4.7830    8.0600   28.6110 N.pl3 194  ARG194     -0.0865
    135  CZ        -4.9300    7.9210   27.3010 C.cat 194  ARG194      0.5346
    136  NH1       -6.0980    8.2180   26.7450 N.pl3 194  ARG194      0.1354
    137  NH2       -3.9160    7.4870   26.5530 N.pl3 194  ARG194      0.1354
    138  N        -10.2550   13.9640   31.6510 N.3   197  ALA197     -0.1245
    139  CA       -10.5880   14.1810   30.2500 C.3   197  ALA197      0.1562
    140  C        -12.0960   14.0730   30.0130 C.2   197  ALA197      0.2260
    141  O        -12.7580   13.1510   30.5120 O.2   197  ALA197     -0.2867
    142  CB        -9.8390   13.1960   29.3570 C.3   197  ALA197      0.0290
    143  N        -12.6790   14.2720   24.3750 N.3   201  MET201     -0.1230
    144  CA       -11.2250   14.1040   24.4110 C.3   201  MET201      0.1702
    145  C        -10.8180   12.6310   24.3470 C.2   201  MET201      0.2592
    146  O         -9.8930   12.2620   23.6110 O.2   201  MET201     -0.2718
    147  CB       -10.6270   14.7900   25.6480 C.3   201  MET201      0.0401
    148  CG        -9.4780   15.7180   25.3050 C.3   201  MET201      0.0596
    149  SD        -9.9410   16.8570   23.9790 S.3   201  MET201     -0.1393
    150  CE        -8.3480   17.5030   23.4660 C.3   201  MET201      0.0692
    151  N        -11.5070   11.7970   25.1230 N.am  202  ASN202     -0.1974
    152  CA       -11.3100   10.3500   25.0560 C.3   202  ASN202      0.1688
    153  C        -11.5680    9.8240   23.6440 C.2   202  ASN202      0.2292
    154  O        -10.8580    8.9360   23.1400 O.2   202  ASN202     -0.2864
    155  CB       -12.2160    9.6370   26.0690 C.3   202  ASN202      0.1181
    156  CG       -11.8130    9.9140   27.5010 C.2   202  ASN202      0.2629
    157  OD1      -10.6540   10.2190   27.7740 O.2   202  ASN202     -0.2716
    158  ND2      -12.7680    9.8240   28.4190 N.am  202  ASN202     -0.0877
    159  N         -8.8770   10.5430   21.3990 N.3   205  SER205     -0.1217
    160  CA        -7.7590    9.6680   21.7450 C.3   205  SER205      0.1889
    161  C         -7.9390    8.3030   21.1010 C.2   205  SER205      0.2288
    162  O         -6.9780    7.6730   20.6580 O.2   205  SER205     -0.2866
    163  CB        -7.6280    9.5320   23.2630 C.3   205  SER205      0.2089
    164  OG        -6.4100    8.9060   23.6080 O.3   205  SER205     -0.2183
    165  N         -0.7560    7.2820   19.9320 N.3   210  SER210     -0.1217
    166  CA         0.0800    7.8520   20.9950 C.3   210  SER210      0.1889
    167  C          1.4780    7.2080   20.8970 C.2   210  SER210      0.2288
    168  O          1.5830    5.9850   20.8320 O.2   210  SER210     -0.2866
    169  CB        -0.5130    7.4930   22.3650 C.3   210  SER210      0.2089
    170  OG         0.3160    7.9400   23.4280 O.3   210  SER210     -0.2183
    171  N          4.8670    7.0550   22.9350 N.3   212  PHE212     -0.1241
    172  CA         5.6930    7.3910   24.0960 C.3   212  PHE212      0.1605
    173  C          7.0980    6.9010   23.8080 C.2   212  PHE212      0.2264
    174  O          7.2980    5.6940   23.5810 O.2   212  PHE212     -0.2867
    175  CB         5.2010    6.6160   25.3020 C.3   212  PHE212      0.0534
    176  CG         5.7610    7.1020   26.6150 C.ar  212  PHE212     -0.0203
    177  CD1        7.0090    6.7130   27.0440 C.ar  212  PHE212     -0.0042
    178  CD2        5.0160    7.9650   27.4150 C.ar  212  PHE212     -0.0042
    179  CE1        7.5330    7.1800   28.2820 C.ar  212  PHE212     -0.0003
    180  CE2        5.5190    8.4210   28.6220 C.ar  212  PHE212     -0.0003
    181  CZ         6.7710    8.0100   29.0550 C.ar  212  PHE212     -0.0000
@<TRIPOS>BOND
     1    54    53    2
     2    53    52    1
     3    52    51    1
     4    52    55    1
     5    56    55    1
     6    56    57    1
     7   165   166    1
     8    58    57   ar
     9    57    59   ar
    10   162   161    2
    11   168   167    2
    12   167   166    1
    13   166   169    1
    14   161   160    1
    15   159   160    1
    16   160   163    1
    17   169   170    1
    18   171   172    1
    19   154   153    2
    20   163   164    1
    21    45    46    2
    22    45    44    1
    23   150   149    1
    24   174   173    2
    25   146   145    2
    26   153   152    1
    27    60    61    1
    28   173   172    1
    29   149   148    1
    30    65    66    1
    31    65    67    1
    32    65    64    1
    33   172   175    1
    34    44    43    1
    35    44    47    1
    36   145   144    1
    37   145   151   am
    38   143   144    1
    39   144   147    1
    40    61    64    1
    41    61    62    1
    42    49    48    1
    43   152   151    1
    44   152   155    1
    45   175   176    1
    46   148   147    1
    47    48    47    1
    48    48    50    1
    49   155   156    1
    50    62    68   am
    51    62    63    2
    52    68    69    1
    53   137   135    1
    54   176   177   ar
    55   176   178   ar
    56   136   135    1
    57   177   179   ar
    58   135   134    2
    59   178   180   ar
    60    69    70    1
    61    69    72    1
    62    70    71    2
    63    72    73    1
    64   156   157    2
    65   156   158   am
    66    73    74    1
    67    73    75    1
    68    35    33    1
    69     9     7   ar
    70    33    32    1
    71    76    77    1
    72   179   181   ar
    73   134   133    1
    74   180   181   ar
    75     7     6    1
    76     7     8   ar
    77     6     5    1
    78     1     2    1
    79   142   139    1
    80   133   132    1
    81    32    34    1
    82    32    29    1
    83    77    78    1
    84    77    80    1
    85    81    80    1
    86    81    83    1
    87    79    78    2
    88   140   139    1
    89   140   141    2
    90    28    29    1
    91   125   126    1
    92   125   124    1
    93    29    30    1
    94     5     2    1
    95   139   138    1
    96     2     3    1
    97    80    82    1
    98   132   131    1
    99   124   123    1
   100    10     3   am
   101    10    11    1
   102    30    31    2
   103    30    36   am
   104   121   120    2
   105   123   122    1
   106     3     4    2
   107   122   119    1
   108   128   131    1
   109   128   127    1
   110   128   129    1
   111   130   129    2
   112   120   127   am
   113   120   119    1
   114    36    42    1
   115    36    37    1
   116    42    41    1
   117   119   118    1
   118    11    12    1
   119   112   111    2
   120    90    88    1
   121   110   111    1
   122   110   109    1
   123    13    12    2
   124   111   113   am
   125    91    89    1
   126    37    38    1
   127    37    40    1
   128    41    40    1
   129   109   102   am
   130    38    39    2
   131    89    88    1
   132    88    85    1
   133   103   102    2
   134    87    86    2
   135    99    97    1
   136   113   114    1
   137   102   101    1
   138   116   115    2
   139    86    85    1
   140    86    92   am
   141   114   115    1
   142   114   117    1
   143    85    84    1
   144   104   101    1
   145   104   105    1
   146   107   108    1
   147   107   106    1
   148    93    92    1
   149    93    96    1
   150    93    94    1
   151   101   100    1
   152    97    96    1
   153    97    98    1
   154   105   106    1
   155    95    94    2
   156    26    27   ar
   157    26    24   ar
   158    27    25   ar
   159    24    21   ar
   160    25    23   ar
   161    23    21   ar
   162    23    22   ar
   163    21    19   ar
   164    22    20   ar
   165    19    18    1
   166    19    20   ar
   167    17    16    2
   168    18    15    1
   169    16    15    1
   170    15    14    1
