@<TRIPOS>MOLECULE
tmp/3zcwA03.pdb
 89 84 0 0 0
SMALL
GASTEIGER

@<TRIPOS>ATOM
      1  N          1.0730   12.7310   20.0500 N.3   143  GLU143     -0.1245
      2  CA        -0.1510   12.1760   19.5050 C.3   143  GLU143      0.1567
      3  C         -0.2140   12.4750   18.0160 C.2   143  GLU143      0.2260
      4  O          0.1140   13.5830   17.5920 O.2   143  GLU143     -0.2867
      5  CB        -1.3270   12.8420   20.1770 C.3   143  GLU143      0.0388
      6  CG        -2.6210   12.2790   19.7560 C.3   143  GLU143      0.1160
      7  CD        -3.7540   12.8740   20.5270 C.2   143  GLU143      0.3649
      8  OE1       -4.2060   13.9900   20.1610 O.co2 143  GLU143     -0.2457
      9  OE2       -4.1740   12.2260   21.5130 O.co2 143  GLU143     -0.2457
     10  N         -2.9610   12.7130   15.1790 N.3   145  TYR145     -0.1227
     11  CA        -4.3940   12.7310   14.9350 C.3   145  TYR145      0.1736
     12  C         -4.5990   13.4110   13.6010 C.2   145  TYR145      0.2595
     13  O         -4.1500   14.5350   13.4230 O.2   145  TYR145     -0.2718
     14  CB        -5.1200   13.5120   16.0340 C.3   145  TYR145      0.0548
     15  CG        -6.6050   13.6710   15.7670 C.ar  145  TYR145     -0.0200
     16  CD1       -7.5110   12.6820   16.1430 C.ar  145  TYR145     -0.0009
     17  CD2       -7.0970   14.7950   15.1180 C.ar  145  TYR145     -0.0009
     18  CE1       -8.8730   12.8160   15.8970 C.ar  145  TYR145      0.0417
     19  CE2       -8.4490   14.9340   14.8610 C.ar  145  TYR145      0.0417
     20  CZ        -9.3330   13.9480   15.2490 C.ar  145  TYR145      0.1957
     21  OH       -10.6820   14.0970   14.9860 O.3   145  TYR145     -0.2866
     22  N         -5.2490   12.7230   12.6580 N.am  146  ASN146     -0.1974
     23  CA        -5.4910   13.2860   11.3210 C.3   146  ASN146      0.1688
     24  C         -4.2020   13.7050   10.6110 C.2   146  ASN146      0.2292
     25  O         -4.1390   14.7710    9.9840 O.2   146  ASN146     -0.2864
     26  CB        -6.4530   14.4750   11.4160 C.3   146  ASN146      0.1181
     27  CG        -7.9130   14.0650   11.2730 C.2   146  ASN146      0.2629
     28  OD1       -8.5860   14.4660   10.3230 O.2   146  ASN146     -0.2716
     29  ND2       -8.4060   13.2580   12.2090 N.am  146  ASN146     -0.0877
     30  N         -1.5690   14.8390   11.7960 N.3   148  GLU148     -0.1245
     31  CA        -0.9050   15.9800   12.4140 C.3   148  GLU148      0.1567
     32  C         -0.3920   15.6160   13.8000 C.2   148  GLU148      0.2260
     33  O         -0.9860   14.7810   14.4870 O.2   148  GLU148     -0.2867
     34  CB        -1.8270   17.1820   12.5010 C.3   148  GLU148      0.0388
     35  CG        -2.0390   17.8460   11.1500 C.3   148  GLU148      0.1160
     36  CD        -3.0050   19.0040   11.2310 C.2   148  GLU148      0.3649
     37  OE1       -3.8200   19.0270   12.1810 O.co2 148  GLU148     -0.2457
     38  OE2       -2.9490   19.8900   10.3480 O.co2 148  GLU148     -0.2457
     39  N          0.9190   16.3050   17.7450 N.3   150  PHE150     -0.1241
     40  CA         0.5920   17.0850   18.9270 C.3   150  PHE150      0.1605
     41  C          1.4620   16.6310   20.0900 C.2   150  PHE150      0.2264
     42  O          1.6870   15.4340   20.2920 O.2   150  PHE150     -0.2867
     43  CB        -0.8910   16.9690   19.2940 C.3   150  PHE150      0.0534
     44  CG        -1.8120   17.4700   18.2070 C.ar  150  PHE150     -0.0203
     45  CD1       -2.1100   18.8270   18.1020 C.ar  150  PHE150     -0.0042
     46  CD2       -2.3250   16.5920   17.2540 C.ar  150  PHE150     -0.0042
     47  CE1       -2.9120   19.2890   17.0830 C.ar  150  PHE150     -0.0003
     48  CE2       -3.1210   17.0420   16.2390 C.ar  150  PHE150     -0.0003
     49  CZ        -3.4250   18.3990   16.1480 C.ar  150  PHE150     -0.0000
     50  N          1.9150   15.8240   23.7970 N.3   152  LEU152     -0.1245
     51  CA         1.0290   15.5300   24.9220 C.3   152  LEU152      0.1561
     52  C          1.6060   15.9830   26.2630 C.2   152  LEU152      0.2260
     53  O          0.8800   16.0610   27.2590 O.2   152  LEU152     -0.2867
     54  CB         0.6520   14.0510   25.0060 C.3   152  LEU152      0.0270
     55  CG        -0.4030   13.5540   24.0080 C.3   152  LEU152      0.0019
     56  CD1       -0.5850   12.0430   24.1140 C.3   152  LEU152      0.0001
     57  CD2       -1.7420   14.2710   24.1910 C.3   152  LEU152      0.0001
     58  N        -12.6790   14.2720   24.3750 N.3   201  MET201     -0.1245
     59  CA       -11.2250   14.1040   24.4110 C.3   201  MET201      0.1570
     60  C        -10.8180   12.6310   24.3470 C.2   201  MET201      0.2261
     61  O         -9.8930   12.2620   23.6110 O.2   201  MET201     -0.2867
     62  CB       -10.6270   14.7900   25.6480 C.3   201  MET201      0.0387
     63  CG        -9.4780   15.7180   25.3050 C.3   201  MET201      0.0595
     64  SD        -9.9410   16.8570   23.9790 S.3   201  MET201     -0.1393
     65  CE        -8.3480   17.5030   23.4660 C.3   201  MET201      0.0692
     66  N        -11.3080   11.5780   20.7790 N.3   204  TYR204     -0.1227
     67  CA       -10.1840   11.9620   19.9420 C.3   204  TYR204      0.1736
     68  C         -9.0990   10.9080   20.1360 C.2   204  TYR204      0.2596
     69  O         -8.4820   10.4370   19.1700 O.2   204  TYR204     -0.2718
     70  CB        -9.6260   13.3310   20.3510 C.3   204  TYR204      0.0548
     71  CG       -10.3280   14.5200   19.7370 C.ar  204  TYR204     -0.0200
     72  CD1      -10.1210   14.8640   18.4060 C.ar  204  TYR204     -0.0009
     73  CD2      -11.1840   15.3140   20.4970 C.ar  204  TYR204     -0.0009
     74  CE1      -10.7640   15.9650   17.8380 C.ar  204  TYR204      0.0417
     75  CE2      -11.8310   16.4130   19.9430 C.ar  204  TYR204      0.0417
     76  CZ       -11.6200   16.7350   18.6140 C.ar  204  TYR204      0.1957
     77  OH       -12.2660   17.8280   18.0680 O.3   204  TYR204     -0.2866
     78  N         -8.8770   10.5430   21.3990 N.am  205  SER205     -0.1952
     79  CA        -7.7590    9.6680   21.7450 C.3   205  SER205      0.1924
     80  C         -7.9390    8.3030   21.1010 C.2   205  SER205      0.2314
     81  O         -6.9780    7.6730   20.6580 O.2   205  SER205     -0.2863
     82  CB        -7.6280    9.5320   23.2630 C.3   205  SER205      0.2116
     83  OG        -6.4100    8.9060   23.6080 O.3   205  SER205     -0.2180
     84  N         -6.6040    8.3760   17.6980 N.3   208  SER208     -0.1217
     85  CA        -5.2570    8.9060   17.5640 C.3   208  SER208      0.1889
     86  C         -4.2260    7.8500   17.8800 C.2   208  SER208      0.2288
     87  O         -4.5370    6.9130   18.6030 O.2   208  SER208     -0.2866
     88  CB        -5.0530    9.9970   18.6110 C.3   208  SER208      0.2089
     89  OG        -6.0160   11.0230   18.5210 O.3   208  SER208     -0.2183
@<TRIPOS>BOND
     1    25    24    2
     2    28    27    2
     3    38    36   ar
     4    24    23    1
     5    35    36    1
     6    35    34    1
     7    36    37   ar
     8    27    26    1
     9    27    29   am
    10    23    26    1
    11    23    22    1
    12    30    31    1
    13    31    34    1
    14    31    32    1
    15    22    12   am
    16    13    12    2
    17    12    11    1
    18    32    33    2
    19    19    17   ar
    20    19    20   ar
    21    11    10    1
    22    11    14    1
    23    21    20    1
    24    17    15   ar
    25    20    18   ar
    26    15    14    1
    27    15    16   ar
    28    18    16   ar
    29    49    48   ar
    30    49    47   ar
    31    48    46   ar
    32    47    45   ar
    33    46    44   ar
    34    85    84    1
    35    85    86    1
    36    85    88    1
    37     4     3    2
    38    39    40    1
    39    74    72   ar
    40    74    76   ar
    41    86    87    2
    42     3     2    1
    43    77    76    1
    44    45    44   ar
    45    44    43    1
    46    72    71   ar
    47    89    88    1
    48    76    75   ar
    49    40    43    1
    50    40    41    1
    51    69    68    2
    52     2     1    1
    53     2     5    1
    54    71    70    1
    55    71    73   ar
    56     6     5    1
    57     6     7    1
    58    67    68    1
    59    67    70    1
    60    67    66    1
    61    75    73   ar
    62    41    42    2
    63    68    78   am
    64     8     7   ar
    65     7     9   ar
    66    81    80    2
    67    80    79    1
    68    78    79    1
    69    79    82    1
    70    82    83    1
    71    65    64    1
    72    61    60    2
    73    50    51    1
    74    64    63    1
    75    55    56    1
    76    55    57    1
    77    55    54    1
    78    60    59    1
    79    58    59    1
    80    59    62    1
    81    51    54    1
    82    51    52    1
    83    63    62    1
    84    52    53    2
