@<TRIPOS>MOLECULE
tmp/3zczD00.pdb
 156 149 0 0 0
SMALL
GASTEIGER

@<TRIPOS>ATOM
      1  N         48.9570   82.4270   23.8020 N.3    48  ALA48      -0.1231
      2  CA        48.8660   83.3970   22.7050 C.3    48  ALA48       0.1694
      3  C         47.8370   82.9010   21.6890 C.2    48  ALA48       0.2592
      4  O         46.7660   82.4530   22.0840 O.2    48  ALA48      -0.2718
      5  CB        50.2290   83.6510   22.0600 C.3    48  ALA48       0.0304
      6  N         48.1650   82.9370   20.4010 N.am   49  SER49      -0.1952
      7  CA        47.2010   82.5840   19.3580 C.3    49  SER49       0.1924
      8  C         46.7790   81.1110   19.2930 C.2    49  SER49       0.2314
      9  O         45.8530   80.7700   18.5470 O.2    49  SER49      -0.2863
     10  CB        47.6990   83.0440   17.9960 C.3    49  SER49       0.2116
     11  OG        47.8280   84.4520   17.9730 O.3    49  SER49      -0.2180
     12  N         43.1390   80.2080   19.7870 N.3    52  LYS52      -0.1245
     13  CA        42.2500   80.1490   18.6260 C.3    52  LYS52       0.1561
     14  C         41.8490   78.7250   18.2410 C.2    52  LYS52       0.2260
     15  O         40.8130   78.5260   17.6050 O.2    52  LYS52      -0.2867
     16  CB        42.8870   80.8390   17.4230 C.3    52  LYS52       0.0271
     17  CG        43.0160   82.3360   17.5550 C.3    52  LYS52       0.0035
     18  CD        43.4450   82.9530   16.2350 C.3    52  LYS52       0.0206
     19  CE        43.6030   84.4520   16.3560 C.3    52  LYS52       0.1093
     20  NZ        44.7830   84.8130   17.1900 N.3    52  LYS52      -0.1314
     21  N         45.9030   95.4500   26.4730 N.3   139  TRP139     -0.1241
     22  CA        46.7010   96.6480   26.6630 C.3   139  TRP139      0.1605
     23  C         46.2860   97.7680   25.7080 C.2   139  TRP139      0.2264
     24  O         46.2440   97.5600   24.4940 O.2   139  TRP139     -0.2867
     25  CB        48.1830   96.3270   26.4650 C.3   139  TRP139      0.0550
     26  CG        48.7750   95.3940   27.4930 C.ar  139  TRP139      0.0003
     27  CD1       48.1830   94.9450   28.6460 C.ar  139  TRP139      0.0946
     28  CD2       50.0950   94.8330   27.4790 C.ar  139  TRP139      0.0152
     29  NE1       49.0440   94.1220   29.3310 N.ar  139  TRP139     -0.2442
     30  CE2       50.2270   94.0420   28.6420 C.ar  139  TRP139      0.0810
     31  CE3       51.1790   94.9170   26.5930 C.ar  139  TRP139      0.0012
     32  CZ2       51.4020   93.3390   28.9440 C.ar  139  TRP139      0.0191
     33  CZ3       52.3460   94.2140   26.8920 C.ar  139  TRP139      0.0001
     34  CH2       52.4460   93.4380   28.0580 C.ar  139  TRP139      0.0015
     35  N         48.1580   98.6950   22.3950 N.3   142  ASP142     -0.1239
     36  CA        48.0120   97.8740   21.1860 C.3   142  ASP142      0.1674
     37  C         46.8640   98.3040   20.2870 C.2   142  ASP142      0.2266
     38  O         46.7780   97.8790   19.1270 O.2   142  ASP142     -0.2867
     39  CB        47.8420   96.4110   21.5630 C.3   142  ASP142      0.1410
     40  CG        49.0570   95.8540   22.2540 C.2   142  ASP142      0.3668
     41  OD1       50.1450   96.4480   22.0770 O.co2 142  ASP142     -0.2456
     42  OD2       48.9220   94.8310   22.9730 O.co2 142  ASP142     -0.2456
     43  N         45.3980   93.8010   14.9580 N.3   147  TYR147     -0.1241
     44  CA        45.1180   92.6560   15.8200 C.3   147  TYR147      0.1605
     45  C         44.3200   93.0160   17.0780 C.2   147  TYR147      0.2264
     46  O         43.7800   92.1340   17.7510 O.2   147  TYR147     -0.2867
     47  CB        46.4130   91.9070   16.1830 C.3   147  TYR147      0.0534
     48  CG        47.4170   92.7200   16.9590 C.ar  147  TYR147     -0.0201
     49  CD1       47.3160   92.8490   18.3470 C.ar  147  TYR147     -0.0009
     50  CD2       48.4730   93.3640   16.3120 C.ar  147  TYR147     -0.0009
     51  CE1       48.2310   93.6100   19.0670 C.ar  147  TYR147      0.0417
     52  CE2       49.3970   94.1230   17.0280 C.ar  147  TYR147      0.0417
     53  CZ        49.2650   94.2390   18.4030 C.ar  147  TYR147      0.1957
     54  OH        50.1690   94.9820   19.1190 O.3   147  TYR147     -0.2866
     55  N         46.1640   83.0560    9.1350 N.3   297  PHE297     -0.1227
     56  CA        46.8380   84.3070    9.4630 C.3   297  PHE297      0.1736
     57  C         46.6090   84.7710   10.8970 C.2   297  PHE297      0.2596
     58  O         47.0610   85.8560   11.2720 O.2   297  PHE297     -0.2718
     59  CB        46.4060   85.4100    8.4960 C.3   297  PHE297      0.0547
     60  CG        46.5880   85.0540    7.0500 C.ar  297  PHE297     -0.0202
     61  CD1       47.8630   84.8640    6.5190 C.ar  297  PHE297     -0.0042
     62  CD2       45.4830   84.9230    6.2150 C.ar  297  PHE297     -0.0042
     63  CE1       48.0360   84.5380    5.1820 C.ar  297  PHE297     -0.0003
     64  CE2       45.6420   84.6020    4.8720 C.ar  297  PHE297     -0.0003
     65  CZ        46.9230   84.4060    4.3550 C.ar  297  PHE297     -0.0000
     66  N         45.9040   83.9540   11.6810 N.am  298  SER298     -0.1952
     67  CA        45.6570   84.2080   13.1070 C.3   298  SER298      0.1924
     68  C         44.8840   85.5090   13.3650 C.2   298  SER298      0.2314
     69  O         45.3500   86.3890   14.0830 O.2   298  SER298     -0.2863
     70  CB        46.9720   84.1770   13.8900 C.3   298  SER298      0.2116
     71  OG        46.7390   83.8490   15.2480 O.3   298  SER298     -0.2180
     72  N         42.6860   87.8900   15.0420 N.3   300  ASN300     -0.1240
     73  CA        42.1490   88.1380   16.3870 C.3   300  ASN300      0.1653
     74  C         40.6780   88.5700   16.4210 C.2   300  ASN300      0.2266
     75  O         39.8930   88.0590   17.2230 O.2   300  ASN300     -0.2867
     76  CB        43.0100   89.1620   17.1360 C.3   300  ASN300      0.1155
     77  CG        44.3330   88.5880   17.6140 C.2   300  ASN300      0.2627
     78  OD1       44.5670   87.3790   17.5650 O.2   300  ASN300     -0.2716
     79  ND2       45.2070   89.4590   18.0830 N.am  300  ASN300     -0.0877
     80  N         40.8410   84.9480   21.0220 N.3   347  SER347     -0.1202
     81  CA        41.9980   85.1640   20.1590 C.3   347  SER347      0.2020
     82  C         43.3050   84.7090   20.7910 C.2   347  SER347      0.2619
     83  O         44.2280   84.2940   20.0910 O.2   347  SER347     -0.2717
     84  CB        42.1030   86.6380   19.7800 C.3   347  SER347      0.2103
     85  OG        42.4190   87.4190   20.9200 O.3   347  SER347     -0.2182
     86  N         43.3820   84.8030   22.1110 N.am  348  GLY348     -0.1942
     87  CA        44.6250   84.5300   22.8190 C.3   348  GLY348      0.2014
     88  C         45.4610   85.7780   23.0410 C.2   348  GLY348      0.2638
     89  O         46.5640   85.7060   23.5890 O.2   348  GLY348     -0.2714
     90  N         44.9380   86.9250   22.6180 N.am  349  LEU349     -0.1977
     91  CA        45.6020   88.1980   22.8840 C.3   349  LEU349      0.1596
     92  C         45.6920   88.4850   24.3850 C.2   349  LEU349      0.2287
     93  O         46.6740   89.0500   24.8410 O.2   349  LEU349     -0.2864
     94  CB        44.9190   89.3550   22.1340 C.3   349  LEU349      0.0297
     95  CG        45.4420   90.7820   22.3440 C.3   349  LEU349      0.0022
     96  CD1       46.8810   90.9010   21.8970 C.3   349  LEU349      0.0001
     97  CD2       44.5760   91.8090   21.6300 C.3   349  LEU349      0.0001
     98  N         46.3460   88.2100   28.2690 N.3   351  ARG351     -0.1245
     99  CA        47.3130   87.5960   29.1740 C.3   351  ARG351      0.1563
    100  C         46.6530   86.8780   30.3480 C.2   351  ARG351      0.2260
    101  O         47.3390   86.2890   31.1830 O.2   351  ARG351     -0.2867
    102  CB        48.3160   88.6360   29.6800 C.3   351  ARG351      0.0307
    103  CG        49.2620   89.1120   28.6020 C.3   351  ARG351      0.0489
    104  CD        50.5200   89.7310   29.1580 C.3   351  ARG351      0.2205
    105  NE        51.4600   89.9980   28.0740 N.pl3 351  ARG351     -0.0865
    106  CZ        52.5120   89.2380   27.7720 C.cat 351  ARG351      0.5346
    107  NH1       52.8000   88.1480   28.4820 N.pl3 351  ARG351      0.1354
    108  NH2       53.2880   89.5830   26.7520 N.pl3 351  ARG351      0.1354
    109  N         50.9810   81.7360    8.6380 N.3   393  THR393     -0.1218
    110  CA        52.0410   82.1880    9.5390 C.3   393  THR393      0.1862
    111  C         53.2430   81.2510    9.4950 C.2   393  THR393      0.2287
    112  O         54.2860   81.5390   10.0870 O.2   393  THR393     -0.2866
    113  CB        51.5460   82.3490   11.0030 C.3   393  THR393      0.1770
    114  OG1       50.8220   81.1800   11.4090 O.3   393  THR393     -0.2211
    115  CG2       50.6410   83.5700   11.1440 C.3   393  THR393      0.0375
    116  N         49.5100   75.4220   14.3510 N.3   410  LYS410     -0.1231
    117  CA        49.1010   76.7740   14.7170 C.3   410  LYS410      0.1693
    118  C         50.1740   77.4910   15.5160 C.2   410  LYS410      0.2593
    119  O         50.7080   76.9600   16.4910 O.2   410  LYS410     -0.2718
    120  CB        47.7810   76.7640   15.4970 C.3   410  LYS410      0.0285
    121  CG        47.1910   78.1530   15.7690 C.3   410  LYS410      0.0035
    122  CD        46.6750   78.8220   14.4870 C.3   410  LYS410      0.0206
    123  CE        46.1130   80.2180   14.7440 C.3   410  LYS410      0.1093
    124  NZ        47.1750   81.2080   15.0610 N.3   410  LYS410     -0.1314
    125  N         50.4710   78.7120   15.0890 N.am  411  THR411     -0.1939
    126  CA        51.4660   79.5490   15.7390 C.3   411  THR411      0.2028
    127  C         50.8300   80.3310   16.8750 C.2   411  THR411      0.2643
    128  O         49.6120   80.3380   17.0340 O.2   411  THR411     -0.2714
    129  CB        52.0730   80.5310   14.7390 C.3   411  THR411      0.1808
    130  OG1       51.0260   81.0660   13.9210 O.3   411  THR411     -0.2208
    131  CG2       53.0850   79.8300   13.8470 C.3   411  THR411      0.0379
    132  N         51.6640   80.9820   17.6710 N.am  412  GLY412     -0.1939
    133  CA        51.1820   81.8870   18.6940 C.3   412  GLY412      0.2014
    134  C         52.3480   82.5750   19.3570 C.2   412  GLY412      0.2640
    135  O         53.0940   81.9400   20.0830 O.2   412  GLY412     -0.2714
    136  N         52.5210   83.8690   19.0950 N.am  413  THR413     -0.1936
    137  CA        53.5680   84.6310   19.7730 C.3   413  THR413      0.2028
    138  C         53.1500   86.0460   20.1560 C.2   413  THR413      0.2642
    139  O         52.3820   86.7080   19.4550 O.2   413  THR413     -0.2714
    140  CB        54.9120   84.7240   18.9680 C.3   413  THR413      0.1808
    141  OG1       54.9260   85.9230   18.1790 O.3   413  THR413     -0.2208
    142  CG2       55.1650   83.4780   18.0800 C.3   413  THR413      0.0379
    143  N         53.6700   86.4760   21.2980 N.am  414  MET414     -0.1962
    144  CA        53.6880   87.8650   21.7130 C.3   414  MET414      0.1736
    145  C         54.8400   87.9920   22.7080 C.2   414  MET414      0.2617
    146  O         55.5690   87.0210   22.9280 O.2   414  MET414     -0.2715
    147  CB        52.3430   88.3080   22.3050 C.3   414  MET414      0.0427
    148  CG        51.8250   87.4920   23.4760 C.3   414  MET414      0.0599
    149  SD        50.1060   87.9150   23.8440 S.3   414  MET414     -0.1393
    150  CE        49.8970   87.1000   25.4230 C.3   414  MET414      0.0692
    151  N         55.0100   89.1720   23.2950 N.am  415  SER415     -0.1950
    152  CA        56.1340   89.4410   24.1890 C.3   415  SER415      0.1924
    153  C         56.3000   88.3740   25.2760 C.2   415  SER415      0.2314
    154  O         55.4880   88.2710   26.1940 O.2   415  SER415     -0.2863
    155  CB        55.9930   90.8340   24.8100 C.3   415  SER415      0.2116
    156  OG        57.0290   91.0830   25.7390 O.3   415  SER415     -0.2180
@<TRIPOS>BOND
     1    65    64   ar
     2    65    63   ar
     3    64    62   ar
     4    63    61   ar
     5    62    60   ar
     6    61    60   ar
     7    60    59    1
     8    59    56    1
     9   109   110    1
    10    55    56    1
    11    56    57    1
    12   111   110    1
    13   111   112    2
    14   110   113    1
    15    57    58    2
    16    57    66   am
    17   113   115    1
    18   113   114    1
    19    66    67    1
    20    67    68    1
    21    67    70    1
    22    68    69    2
    23   131   129    1
    24    70    71    1
    25   130   129    1
    26   116   117    1
    27   122   123    1
    28   122   121    1
    29   117   120    1
    30   117   118    1
    31   129   126    1
    32   123   124    1
    33    43    44    1
    34    72    73    1
    35   125   118   am
    36   125   126    1
    37   120   121    1
    38   118   119    2
    39   126   127    1
    40    44    47    1
    41    44    45    1
    42    47    48    1
    43    18    19    1
    44    18    17    1
    45    50    48   ar
    46    50    52   ar
    47    19    20    1
    48    73    74    1
    49    73    76    1
    50    74    75    2
    51   127   128    2
    52   127   132   am
    53    48    49   ar
    54    52    53   ar
    55    45    46    2
    56    76    77    1
    57    16    17    1
    58    16    13    1
    59    78    77    2
    60    15    14    2
    61    77    79   am
    62   132   133    1
    63    11    10    1
    64    10     7    1
    65   142   140    1
    66   141   140    1
    67    14    13    1
    68    49    51   ar
    69    53    51   ar
    70    53    54    1
    71     9     8    2
    72    13    12    1
    73   133   134    1
    74   140   137    1
    75   136   134   am
    76   136   137    1
    77    38    37    2
    78     8     7    1
    79   134   135    2
    80     7     6    1
    81   139   138    2
    82   137   138    1
    83    84    81    1
    84    84    85    1
    85    83    82    2
    86   138   143   am
    87    81    82    1
    88    81    80    1
    89    37    36    1
    90     6     3   am
    91    82    86   am
    92    36    39    1
    93    36    35    1
    94   143   144    1
    95    39    40    1
    96    97    95    1
    97     3     4    2
    98     3     2    1
    99   144   147    1
   100   144   145    1
   101    96    95    1
   102     5     2    1
   103    41    40   ar
   104    86    87    1
   105    94    95    1
   106    94    91    1
   107    40    42   ar
   108   147   148    1
   109    90    91    1
   110    90    88   am
   111     2     1    1
   112   145   146    2
   113   145   151   am
   114    87    88    1
   115    91    92    1
   116    88    89    2
   117   151   152    1
   118   148   149    1
   119   149   150    1
   120   152   155    1
   121   152   153    1
   122    92    93    2
   123    24    23    2
   124   155   156    1
   125   153   154    2
   126    23    22    1
   127    25    22    1
   128    25    26    1
   129    21    22    1
   130    31    33   ar
   131    31    28   ar
   132   108   106    1
   133    33    34   ar
   134    28    26   ar
   135    28    30   ar
   136    26    27   ar
   137   106   105    2
   138   106   107    1
   139    34    32   ar
   140   105   104    1
   141    98    99    1
   142   103   104    1
   143   103   102    1
   144    30    32   ar
   145    30    29   ar
   146    27    29   ar
   147    99   102    1
   148    99   100    1
   149   100   101    2
