@<TRIPOS>MOLECULE
tmp/3zdiA00.pdb
 169 158 0 0 0
SMALL
GASTEIGER

@<TRIPOS>ATOM
      1  N         -4.1100   -0.1890    9.4720 N.3    27  ILE27      -0.1231
      2  CA        -4.8180   -1.0120   10.4410 C.3    27  ILE27       0.1692
      3  C         -4.0810   -2.3310   10.6490 C.2    27  ILE27       0.2593
      4  O         -3.8690   -2.7600   11.7810 O.2    27  ILE27      -0.2718
      5  CB        -6.2650   -1.2920    9.9970 C.3    27  ILE27       0.0266
      6  CG1       -7.0280    0.0220    9.8170 C.3    27  ILE27       0.0019
      7  CG2       -6.9690   -2.1960   11.0040 C.3    27  ILE27       0.0020
      8  CD1       -8.4880   -0.1580    9.4550 C.3    27  ILE27       0.0001
      9  N         -3.6860   -2.9680    9.5500 N.am   28  GLY28      -0.1942
     10  CA        -2.9680   -4.2280    9.6190 C.3    28  GLY28       0.2014
     11  C         -2.9600   -4.9890    8.3060 C.2    28  GLY28       0.2639
     12  O         -3.3290   -4.4500    7.2600 O.2    28  GLY28      -0.2714
     13  N         -2.5380   -6.2490    8.3650 N.am   29  ASN29      -0.1958
     14  CA        -2.4500   -7.0970    7.1800 C.3    29  ASN29       0.1819
     15  C         -3.7040   -7.9350    6.9500 C.2    29  ASN29       0.2621
     16  O         -4.0360   -8.8000    7.7580 O.2    29  ASN29      -0.2715
     17  CB        -1.2370   -8.0250    7.2790 C.3    29  ASN29       0.1195
     18  CG         0.0760   -7.2700    7.3160 C.2    29  ASN29       0.2630
     19  OD1        0.2200   -6.2180    6.6940 O.2    29  ASN29      -0.2716
     20  ND2        1.0450   -7.8090    8.0460 N.am   29  ASN29      -0.0877
     21  N         -4.3930   -7.6830    5.8410 N.am   30  GLY30      -0.1954
     22  CA        -5.5480   -8.4790    5.4650 C.3    30  GLY30       0.1869
     23  C         -5.1070   -9.8060    4.8810 C.2    30  GLY30       0.2309
     24  O         -3.9260  -10.1470    4.9480 O.2    30  GLY30      -0.2863
     25  N         -4.2350   -3.5260    5.0830 N.3    35  VAL35      -0.1245
     26  CA        -5.4700   -2.7690    5.2550 C.3    35  VAL35       0.1561
     27  C         -5.2230   -1.4120    5.9160 C.2    35  VAL35       0.2260
     28  O         -4.6140   -1.3320    6.9820 O.2    35  VAL35      -0.2867
     29  CB        -6.4940   -3.5670    6.0840 C.3    35  VAL35       0.0252
     30  CG1       -7.7860   -2.7840    6.2370 C.3    35  VAL35       0.0019
     31  CG2       -6.7600   -4.9140    5.4320 C.3    35  VAL35       0.0019
     32  N        -12.3030    1.4420    5.8870 N.3    48  ALA48      -0.1245
     33  CA       -11.1440    0.5760    5.7580 C.3    48  ALA48       0.1562
     34  C        -10.8420    0.3760    4.2770 C.2    48  ALA48       0.2260
     35  O        -11.7520    0.1930    3.4670 O.2    48  ALA48      -0.2867
     36  CB       -11.3880   -0.7550    6.4460 C.3    48  ALA48       0.0290
     37  N         -8.5360   -1.9890    1.8340 N.3    50  LYS50      -0.1245
     38  CA        -7.6130   -3.0910    1.5970 C.3    50  LYS50       0.1561
     39  C         -7.0290   -2.9990    0.1940 C.2    50  LYS50       0.2260
     40  O         -7.7280   -3.2200   -0.7930 O.2    50  LYS50      -0.2867
     41  CB        -8.2930   -4.4480    1.7980 C.3    50  LYS50       0.0271
     42  CG        -7.3370   -5.6200    1.6360 C.3    50  LYS50       0.0035
     43  CD        -7.9390   -6.9350    2.1010 C.3    50  LYS50       0.0206
     44  CE        -8.5850   -7.6950    0.9570 C.3    50  LYS50       0.1093
     45  NZ        -8.9030   -9.1020    1.3370 N.3    50  LYS50      -0.1314
     46  N        -12.4420  -11.9920   -5.1180 N.3    62  GLU62      -0.1245
     47  CA       -12.9800  -11.2770   -3.9670 C.3    62  GLU62       0.1567
     48  C        -13.8960  -10.1440   -4.4050 C.2    62  GLU62       0.2260
     49  O        -14.9770   -9.9630   -3.8470 O.2    62  GLU62      -0.2867
     50  CB       -11.8480  -10.7230   -3.1010 C.3    62  GLU62       0.0388
     51  CG       -12.3190  -10.0040   -1.8440 C.3    62  GLU62       0.1160
     52  CD       -11.1710   -9.6320   -0.9200 C.2    62  GLU62       0.3649
     53  OE1      -10.0000   -9.8010   -1.3250 O.co2  62  GLU62      -0.2457
     54  OE2      -11.4380   -9.1750    0.2140 O.co2  62  GLU62      -0.2457
     55  N        -19.3010   -6.6680    6.5880 N.3    75  VAL75      -0.1245
     56  CA       -18.6380   -5.4310    6.1820 C.3    75  VAL75       0.1561
     57  C        -18.9040   -5.1540    4.7050 C.2    75  VAL75       0.2260
     58  O        -18.6400   -5.9960    3.8450 O.2    75  VAL75      -0.2867
     59  CB       -17.1190   -5.4880    6.4260 C.3    75  VAL75       0.0252
     60  CG1      -16.4370   -4.2810    5.8060 C.3    75  VAL75       0.0019
     61  CG2      -16.8250   -5.5590    7.9150 C.3    75  VAL75       0.0019
     62  N        -14.0500   -0.2200    2.3400 N.3    97  LEU97      -0.1231
     63  CA       -14.9880   -0.9680    3.1720 C.3    97  LEU97       0.1693
     64  C        -15.5070   -0.1630    4.3610 C.2    97  LEU97       0.2592
     65  O        -15.0070    0.9200    4.6560 O.2    97  LEU97      -0.2718
     66  CB       -14.3030   -2.2300    3.6940 C.3    97  LEU97       0.0284
     67  CG       -13.7430   -3.1620    2.6220 C.3    97  LEU97       0.0019
     68  CD1      -12.5590   -3.9510    3.1570 C.3    97  LEU97       0.0001
     69  CD2      -14.8320   -4.0950    2.1460 C.3    97  LEU97       0.0001
     70  N        -16.5170   -0.7020    5.0370 N.am   98  ASP98      -0.1960
     71  CA       -16.9640   -0.1510    6.3100 C.3    98  ASP98       0.1840
     72  C        -15.8200   -0.2370    7.3060 C.2    98  ASP98       0.2622
     73  O        -15.0930   -1.2290    7.3340 O.2    98  ASP98      -0.2715
     74  CB       -18.1460   -0.9490    6.8620 C.3    98  ASP98       0.1450
     75  CG       -19.4450   -0.6540    6.1430 C.2    98  ASP98       0.3671
     76  OD1      -19.5870    0.4620    5.5950 O.co2  98  ASP98      -0.2456
     77  OD2      -20.3310   -1.5380    6.1380 O.co2  98  ASP98      -0.2456
     78  N        -15.6520    0.7950    8.1230 N.am   99  TYR99      -0.1960
     79  CA       -14.7040    0.7010    9.2230 C.3    99  TYR99       0.1771
     80  C        -15.4120    0.2820   10.5000 C.2    99  TYR99       0.2619
     81  O        -16.4270    0.8670   10.8770 O.2    99  TYR99      -0.2715
     82  CB       -13.9620    2.0120    9.4610 C.3    99  TYR99       0.0574
     83  CG       -13.1050    1.9480   10.7000 C.ar   99  TYR99      -0.0198
     84  CD1      -11.9180    1.2250   10.7060 C.ar   99  TYR99      -0.0009
     85  CD2      -13.4920    2.5850   11.8740 C.ar   99  TYR99      -0.0009
     86  CE1      -11.1340    1.1500   11.8410 C.ar   99  TYR99       0.0417
     87  CE2      -12.7130    2.5170   13.0130 C.ar   99  TYR99       0.0417
     88  CZ       -11.5350    1.7970   12.9910 C.ar   99  TYR99       0.1957
     89  OH       -10.7540    1.7240   14.1210 O.3    99  TYR99      -0.2866
     90  N        -14.8760   -0.7340   11.1660 N.am  100  VAL100     -0.1964
     91  CA       -15.4270   -1.1550   12.4430 C.3   100  VAL100      0.1712
     92  C        -14.2690   -1.2030   13.4400 C.2   100  VAL100      0.2458
     93  O        -13.2030   -1.7370   13.1270 O.2   100  VAL100     -0.2730
     94  CB       -16.1010   -2.5370   12.2900 C.3   100  VAL100      0.0289
     95  CG1      -16.7470   -2.9880   13.5790 C.3   100  VAL100      0.0023
     96  CG2      -17.1410   -2.4910   11.1770 C.3   100  VAL100      0.0023
     97  N        -14.4850   -0.6590   14.6510 N.am  101  PRO101     -0.2727
     98  CA       -13.4070   -0.4050   15.6220 C.3   101  PRO101      0.1402
     99  C        -12.8090   -1.6190   16.3360 C.2   101  PRO101      0.2269
    100  O        -11.6320   -1.5810   16.6960 O.2   101  PRO101     -0.2865
    101  CB       -14.0720    0.5270   16.6410 C.3   101  PRO101      0.0296
    102  CG       -15.5210    0.2080   16.5430 C.3   101  PRO101      0.0237
    103  CD       -15.7630   -0.0750   15.0950 C.3   101  PRO101      0.0939
    104  N        -12.6020   -6.1140   17.3620 N.3   103  THR103     -0.1218
    105  CA       -12.6900   -7.5020   16.9350 C.3   103  THR103      0.1862
    106  C        -13.0670   -8.3750   18.1260 C.2   103  THR103      0.2287
    107  O        -12.8290   -8.0010   19.2750 O.2   103  THR103     -0.2866
    108  CB       -11.3520   -8.0030   16.3480 C.3   103  THR103      0.1770
    109  OG1      -10.3560   -8.0470   17.3780 O.3   103  THR103     -0.2211
    110  CG2      -10.8750   -7.0860   15.2380 C.3   103  THR103      0.0375
    111  N         -9.8360   -9.3410   20.1050 N.3   106  ARG106     -0.1245
    112  CA        -9.4090   -8.3450   21.0830 C.3   106  ARG106      0.1563
    113  C        -10.2690   -8.3550   22.3510 C.2   106  ARG106      0.2260
    114  O         -9.7550   -8.2030   23.4580 O.2   106  ARG106     -0.2867
    115  CB        -9.3960   -6.9510   20.4530 C.3   106  ARG106      0.0307
    116  CG        -8.2010   -6.6960   19.5470 C.3   106  ARG106      0.0489
    117  CD        -8.3720   -5.4200   18.7360 C.3   106  ARG106      0.2205
    118  NE        -8.7910   -4.2900   19.5610 N.pl3 106  ARG106     -0.0865
    119  CZ        -7.9560   -3.4930   20.2210 C.cat 106  ARG106      0.5346
    120  NH1       -6.6480   -3.7030   20.1600 N.pl3 106  ARG106      0.1354
    121  NH2       -8.4300   -2.4870   20.9450 N.pl3 106  ARG106      0.1354
    122  N        -12.9090  -16.8770   11.7800 N.3   148  LYS148     -0.1245
    123  CA       -12.0110  -16.8590   12.9310 C.3   148  LYS148      0.1561
    124  C        -12.2120  -15.5270   13.6580 C.2   148  LYS148      0.2260
    125  O        -12.5980  -14.5380   13.0300 O.2   148  LYS148     -0.2867
    126  CB       -10.5520  -17.0090   12.4820 C.3   148  LYS148      0.0271
    127  CG        -9.9880  -15.7910   11.7680 C.3   148  LYS148      0.0035
    128  CD        -8.5730  -16.0400   11.2750 C.3   148  LYS148      0.0206
    129  CE        -7.9590  -14.7780   10.6930 C.3   148  LYS148      0.1093
    130  NZ        -6.6220  -15.0370   10.0900 N.3   148  LYS148     -0.1314
    131  N        -10.4900  -13.0790   14.5900 N.3   150  GLN150     -0.1231
    132  CA        -9.8780  -11.8720   14.0450 C.3   150  GLN150      0.1698
    133  C        -10.7250  -11.2280   12.9470 C.2   150  GLN150      0.2592
    134  O        -10.6850  -10.0120   12.7620 O.2   150  GLN150     -0.2718
    135  CB        -8.4690  -12.1630   13.5210 C.3   150  GLN150      0.0381
    136  CG        -7.4430  -12.4980   14.5960 C.3   150  GLN150      0.0905
    137  CD        -7.4500  -13.9660   14.9900 C.2   150  GLN150      0.2608
    138  OE1       -8.4610  -14.6570   14.8540 O.2   150  GLN150     -0.2717
    139  NE2       -6.3130  -14.4500   15.4780 N.am  150  GLN150     -0.0878
    140  N        -11.4880  -12.0420   12.2210 N.am  151  ASN151     -0.1974
    141  CA       -12.3230  -11.5400   11.1270 C.3   151  ASN151      0.1688
    142  C        -13.7590  -11.2680   11.5490 C.2   151  ASN151      0.2292
    143  O        -14.6500  -11.1500   10.7040 O.2   151  ASN151     -0.2864
    144  CB       -12.3170  -12.5040    9.9380 C.3   151  ASN151      0.1181
    145  CG       -10.9660  -12.5910    9.2660 C.2   151  ASN151      0.2629
    146  OD1      -10.5040  -13.6770    8.9170 O.2   151  ASN151     -0.2716
    147  ND2      -10.3210  -11.4450    9.0830 N.am  151  ASN151     -0.0877
    148  N        -15.6050   -8.4510   13.2500 N.3   153  LEU153     -0.1245
    149  CA       -15.4780   -7.0720   13.7030 C.3   153  LEU153      0.1561
    150  C        -16.6450   -6.6640   14.5960 C.2   153  LEU153      0.2260
    151  O        -17.7620   -7.1520   14.4300 O.2   153  LEU153     -0.2867
    152  CB       -15.3360   -6.1240   12.5090 C.3   153  LEU153      0.0270
    153  CG       -14.2080   -6.4610   11.5260 C.3   153  LEU153      0.0019
    154  CD1      -14.0380   -5.3590   10.4910 C.3   153  LEU153      0.0001
    155  CD2      -12.8980   -6.7170   12.2580 C.3   153  LEU153      0.0001
    156  N        -15.8260   -9.9840    8.0470 N.3   164  CYS164     -0.1221
    157  CA       -14.9540   -9.2280    7.1560 C.3   164  CYS164      0.1808
    158  C        -13.9290  -10.0990    6.4300 C.2   164  CYS164      0.2601
    159  O        -13.7590  -11.2750    6.7450 O.2   164  CYS164     -0.2717
    160  CB       -14.2280   -8.1240    7.9290 C.3   164  CYS164      0.0970
    161  SG       -12.6550   -8.6370    8.6690 S.3   164  CYS164     -0.0800
    162  N        -13.2580   -9.4910    5.4530 N.am  165  ASP165     -0.1973
    163  CA       -12.1800  -10.1150    4.6810 C.3   165  ASP165      0.1709
    164  C        -12.5870  -11.3730    3.9130 C.2   165  ASP165      0.2293
    165  O        -12.5320  -12.4850    4.4390 O.2   165  ASP165     -0.2864
    166  CB       -10.9560  -10.3880    5.5570 C.3   165  ASP165      0.1436
    167  CG        -9.6720  -10.4630    4.7520 C.2   165  ASP165      0.3671
    168  OD1       -9.7310  -10.8610    3.5690 O.co2 165  ASP165     -0.2456
    169  OD2       -8.6030  -10.1170    5.2970 O.co2 165  ASP165     -0.2456
@<TRIPOS>BOND
     1    46    47    1
     2    48    47    1
     3    48    49    2
     4    47    50    1
     5    50    51    1
     6    51    52    1
     7    53    52   ar
     8    52    54   ar
     9    40    39    2
    10    39    38    1
    11    44    45    1
    12    44    43    1
    13    38    41    1
    14    38    37    1
    15    42    41    1
    16    42    43    1
    17    69    67    1
    18    62    63    1
    19    67    68    1
    20    67    66    1
    21    63    66    1
    22    63    64    1
    23    35    34    2
    24   168   167   ar
    25    58    57    2
    26   164   165    2
    27   164   163    1
    28    34    33    1
    29    64    65    2
    30    64    70   am
    31   163   162    1
    32   163   166    1
    33    57    56    1
    34   167   169   ar
    35   167   166    1
    36    23    24    2
    37    23    22    1
    38    70    71    1
    39    25    26    1
    40    26    27    1
    41    26    29    1
    42    31    29    1
    43   162   158   am
    44    22    21    1
    45    76    75   ar
    46    33    32    1
    47    33    36    1
    48    60    59    1
    49    21    15   am
    50    27    28    2
    51    29    30    1
    52    77    75   ar
    53    75    74    1
    54    56    59    1
    55    56    55    1
    56    71    74    1
    57    71    72    1
    58    59    61    1
    59   158   159    2
    60   158   157    1
    61    19    18    2
    62    15    14    1
    63    15    16    2
    64   157   160    1
    65   157   156    1
    66    14    17    1
    67    14    13    1
    68    12    11    2
    69    17    18    1
    70    72    73    2
    71    72    78   am
    72    18    20   am
    73   160   161    1
    74    78    79    1
    75    11    13   am
    76    11    10    1
    77   146   145    2
    78   147   145   am
    79    79    82    1
    80    79    80    1
    81   145   144    1
    82     8     6    1
    83    82    83    1
    84     1     2    1
    85     9    10    1
    86     9     3   am
    87     6     5    1
    88   144   141    1
    89     5     2    1
    90     5     7    1
    91   130   129    1
    92     2     3    1
    93   154   153    1
    94    80    81    2
    95    80    90   am
    96     3     4    2
    97   129   128    1
    98    83    84   ar
    99    83    85   ar
   100   143   142    2
   101    84    86   ar
   102   141   142    1
   103   141   140    1
   104    90    91    1
   105    96    94    1
   106   128   127    1
   107   153   155    1
   108   153   152    1
   109   127   126    1
   110   122   123    1
   111    86    88   ar
   112    85    87   ar
   113   140   133   am
   114    94    91    1
   115    94    95    1
   116    91    92    1
   117   126   123    1
   118   152   149    1
   119   134   133    2
   120   123   124    1
   121   133   132    1
   122    88    87   ar
   123    88    89    1
   124   125   124    2
   125    93    92    2
   126   148   149    1
   127    92    97   am
   128   135   132    1
   129   135   136    1
   130   149   150    1
   131   132   131    1
   132   151   150    2
   133   136   137    1
   134    97   103    1
   135    97    98    1
   136   138   137    2
   137   137   139   am
   138   103   102    1
   139   110   108    1
   140    98    99    1
   141    98   101    1
   142    99   100    2
   143   108   105    1
   144   108   109    1
   145   102   101    1
   146   105   104    1
   147   105   106    1
   148   106   107    2
   149   117   116    1
   150   117   118    1
   151   116   115    1
   152   118   119    2
   153   111   112    1
   154   120   119    1
   155   119   121    1
   156   115   112    1
   157   112   113    1
   158   113   114    2
