@<TRIPOS>MOLECULE
tmp/3zdqA04.pdb
 91 85 0 0 0
SMALL
GASTEIGER

@<TRIPOS>ATOM
      1  N        -66.0230   70.8620    4.7680 N.3    28  MET28      -0.1230
      2  CA       -66.7800   71.7710    5.6300 C.3    28  MET28       0.1702
      3  C        -65.8250   72.8050    6.2530 C.2    28  MET28       0.2593
      4  O        -65.9630   73.9970    5.9890 O.2    28  MET28      -0.2718
      5  CB       -67.5100   70.9480    6.7130 C.3    28  MET28       0.0401
      6  CG       -68.5030   71.7410    7.5410 C.3    28  MET28       0.0596
      7  SD       -69.1020   70.8280    9.0030 S.3    28  MET28      -0.1393
      8  CE       -67.7820   71.1570   10.1500 C.3    28  MET28       0.0692
      9  N        -64.8220   72.3210    7.0070 N.am   29  SER29      -0.1952
     10  CA       -63.7900   73.0930    7.6920 C.3    29  SER29       0.1924
     11  C        -62.9710   73.9920    6.7300 C.2    29  SER29       0.2314
     12  O        -62.7420   75.1480    7.0550 O.2    29  SER29      -0.2863
     13  CB       -62.8560   72.1410    8.4400 C.3    29  SER29       0.2116
     14  OG       -62.1080   72.7740    9.4660 O.3    29  SER29      -0.2180
     15  N        -65.4920   76.7950    4.9580 N.3    32  ILE32      -0.1231
     16  CA       -65.9410   77.7790    5.9570 C.3    32  ILE32       0.1692
     17  C        -64.7360   78.6800    6.3300 C.2    32  ILE32       0.2592
     18  O        -64.8770   79.8970    6.3940 O.2    32  ILE32      -0.2718
     19  CB       -66.6180   77.1080    7.1960 C.3    32  ILE32       0.0266
     20  CG1      -68.0600   76.6600    6.8380 C.3    32  ILE32       0.0019
     21  CG2      -66.6320   78.0370    8.4260 C.3    32  ILE32       0.0020
     22  CD1      -68.7050   75.5390    7.7400 C.3    32  ILE32       0.0001
     23  N        -63.5640   78.0830    6.5180 N.am   33  SER33      -0.1952
     24  CA       -62.2970   78.7420    6.8020 C.3    33  SER33       0.1924
     25  C        -61.9540   79.7840    5.7100 C.2    33  SER33       0.2314
     26  O        -61.6160   80.9110    6.0640 O.2    33  SER33      -0.2863
     27  CB       -61.1980   77.6870    6.8980 C.3    33  SER33       0.2116
     28  OG       -59.9210   78.2030    7.2160 O.3    33  SER33      -0.2180
     29  N        -68.2470   78.8130   16.5760 N.3    69  VAL69      -0.1231
     30  CA       -67.7070   78.3410   15.2900 C.3    69  VAL69       0.1692
     31  C        -66.3950   77.5690   15.5520 C.2    69  VAL69       0.2592
     32  O        -66.2560   76.4450   15.0660 O.2    69  VAL69      -0.2718
     33  CB       -67.5290   79.4860   14.2560 C.3    69  VAL69       0.0266
     34  CG1      -66.8490   78.9990   12.9730 C.3    69  VAL69       0.0020
     35  CG2      -68.8670   80.1370   13.9290 C.3    69  VAL69       0.0020
     36  N        -65.4860   78.1360   16.3800 N.am   70  PHE70      -0.1976
     37  CA       -64.2120   77.5170   16.7490 C.3    70  PHE70       0.1639
     38  C        -64.3900   76.1900   17.4910 C.2    70  PHE70       0.2290
     39  O        -63.6090   75.2750   17.2370 O.2    70  PHE70      -0.2864
     40  CB       -63.3450   78.4720   17.5810 C.3    70  PHE70       0.0560
     41  CG       -62.7630   79.6110   16.7800 C.ar   70  PHE70      -0.0200
     42  CD1      -62.2500   79.3980   15.5090 C.ar   70  PHE70      -0.0042
     43  CD2      -62.6860   80.8860   17.3120 C.ar   70  PHE70      -0.0042
     44  CE1      -61.7260   80.4500   14.7670 C.ar   70  PHE70      -0.0003
     45  CE2      -62.1780   81.9480   16.5560 C.ar   70  PHE70      -0.0003
     46  CZ       -61.6920   81.7180   15.2920 C.ar   70  PHE70      -0.0000
     47  N        -66.9160   74.1060   17.1130 N.3    72  CYS72      -0.1221
     48  CA       -67.4110   73.2210   16.0590 C.3    72  CYS72       0.1808
     49  C        -66.2690   72.7600   15.1780 C.2    72  CYS72       0.2602
     50  O        -66.1750   71.5670   14.9070 O.2    72  CYS72      -0.2717
     51  CB       -68.4930   73.9100   15.2350 C.3    72  CYS72       0.0970
     52  SG       -70.0630   74.1110   16.1060 S.3    72  CYS72      -0.0800
     53  N        -65.4260   73.7070   14.7500 N.am   73  GLY73      -0.1942
     54  CA       -64.2570   73.4630   13.9100 C.3    73  GLY73       0.2014
     55  C        -63.2560   72.5200   14.5450 C.2    73  GLY73       0.2638
     56  O        -62.6610   71.6930   13.8460 O.2    73  GLY73      -0.2714
     57  N        -63.0930   72.6320   15.8940 N.am   74  ALA74      -0.1977
     58  CA       -62.2180   71.8050   16.7240 C.3    74  ALA74       0.1597
     59  C        -62.7600   70.4050   16.7860 C.2    74  ALA74       0.2287
     60  O        -61.9930   69.4620   16.6150 O.2    74  ALA74      -0.2864
     61  CB       -62.1080   72.3880   18.1280 C.3    74  ALA74       0.0319
     62  N        -62.3750   68.7830   13.3440 N.3    77  ASN77      -0.1240
     63  CA       -60.9750   68.4150   13.1140 C.3    77  ASN77       0.1653
     64  C        -60.5900   67.1600   13.8830 C.2    77  ASN77       0.2266
     65  O        -60.0160   66.2520   13.2790 O.2    77  ASN77      -0.2867
     66  CB       -60.0290   69.5570   13.4330 C.3    77  ASN77       0.1155
     67  CG       -59.9200   70.4960   12.2650 C.2    77  ASN77       0.2627
     68  OD1      -59.3820   70.1460   11.2030 O.2    77  ASN77      -0.2716
     69  ND2      -60.5010   71.6790   12.4020 N.am   77  ASN77      -0.0877
     70  N        -62.2100   64.2510   12.1110 N.3    80  ARG80      -0.1245
     71  CA       -61.5290   64.0850   10.8270 C.3    80  ARG80       0.1563
     72  C        -60.1660   63.3950   10.9640 C.2    80  ARG80       0.2260
     73  O        -59.8900   62.4740   10.2020 O.2    80  ARG80      -0.2867
     74  CB       -61.3390   65.4410   10.1520 C.3    80  ARG80       0.0307
     75  CG       -60.8490   65.3440    8.7200 C.3    80  ARG80       0.0489
     76  CD       -59.8830   66.4590    8.4140 C.3    80  ARG80       0.2205
     77  NE       -58.4970   66.0140    8.5340 N.pl3  80  ARG80      -0.0865
     78  CZ       -57.5000   66.7830    8.9580 C.cat  80  ARG80       0.5346
     79  NH1      -57.7300   68.0410    9.3250 N.pl3  80  ARG80       0.1354
     80  NH2      -56.2650   66.3010    9.0230 N.pl3  80  ARG80       0.1354
     81  N        -57.3170   69.0730    0.3410 N.3   143  ARG143     -0.1245
     82  CA       -57.4790   70.3690    1.0130 C.3   143  ARG143      0.1563
     83  C        -56.7770   71.4540    0.1970 C.2   143  ARG143      0.2260
     84  O        -57.4410   72.3780   -0.2370 O.2   143  ARG143     -0.2867
     85  CB       -56.9460   70.3150    2.4550 C.3   143  ARG143      0.0307
     86  CG       -56.8200   71.6720    3.1350 C.3   143  ARG143      0.0489
     87  CD       -56.4470   71.5830    4.6040 C.3   143  ARG143      0.2205
     88  NE       -55.1800   70.8770    4.8000 N.pl3 143  ARG143     -0.0865
     89  CZ       -54.9790   69.9270    5.7090 C.cat 143  ARG143      0.5346
     90  NH1      -55.9510   69.5790    6.5450 N.pl3 143  ARG143      0.1354
     91  NH2      -53.8000   69.3300    5.8010 N.pl3 143  ARG143      0.1354
@<TRIPOS>BOND
     1    84    83    2
     2    83    82    1
     3    81    82    1
     4    82    85    1
     5    85    86    1
     6    86    87    1
     7    87    88    1
     8     1     2    1
     9    88    89    2
    10    15    16    1
    11     2     3    1
    12     2     5    1
    13    89    91    1
    14    89    90    1
    15    25    26    2
    16    25    24    1
    17    16    17    1
    18    16    19    1
    19     4     3    2
    20     3     9   am
    21    17    18    2
    22    17    23   am
    23    23    24    1
    24     5     6    1
    25    11    12    2
    26    11    10    1
    27    24    27    1
    28    20    19    1
    29    20    22    1
    30    27    28    1
    31     9    10    1
    32    19    21    1
    33     6     7    1
    34    10    13    1
    35    76    77    1
    36    76    75    1
    37    13    14    1
    38    77    78    2
    39    75    74    1
    40    78    80    1
    41    78    79    1
    42     7     8    1
    43    74    71    1
    44    73    72    2
    45    71    72    1
    46    71    70    1
    47    68    67    2
    48    67    69   am
    49    67    66    1
    50    34    33    1
    51    63    62    1
    52    63    66    1
    53    63    64    1
    54    65    64    2
    55    56    55    2
    56    54    55    1
    57    54    53    1
    58    35    33    1
    59    33    30    1
    60    55    57   am
    61    53    49   am
    62    44    46   ar
    63    44    42   ar
    64    50    49    2
    65    32    31    2
    66    49    48    1
    67    51    48    1
    68    51    52    1
    69    30    31    1
    70    30    29    1
    71    46    45   ar
    72    42    41   ar
    73    31    36   am
    74    57    58    1
    75    48    47    1
    76    36    37    1
    77    45    43   ar
    78    60    59    2
    79    58    59    1
    80    58    61    1
    81    37    38    1
    82    37    40    1
    83    41    43   ar
    84    41    40    1
    85    39    38    2
