@<TRIPOS>MOLECULE
tmp/3zdqA01.pdb
 131 126 0 0 0
SMALL
GASTEIGER

@<TRIPOS>ATOM
      1  N        -59.7640   86.4850   -8.2540 N.3   156  PHE156     -0.1241
      2  CA       -60.4120   87.0310   -9.4400 C.3   156  PHE156      0.1605
      3  C        -61.7250   87.7250   -9.0420 C.2   156  PHE156      0.2264
      4  O        -61.9980   88.8050   -9.5510 O.2   156  PHE156     -0.2867
      5  CB       -60.6390   85.9550  -10.5080 C.3   156  PHE156      0.0534
      6  CG       -59.4410   85.7080  -11.3990 C.ar  156  PHE156     -0.0203
      7  CD1      -59.2140   86.4960  -12.5210 C.ar  156  PHE156     -0.0042
      8  CD2      -58.5580   84.6690  -11.1320 C.ar  156  PHE156     -0.0042
      9  CE1      -58.1030   86.2690  -13.3410 C.ar  156  PHE156     -0.0003
     10  CE2      -57.4520   84.4370  -11.9580 C.ar  156  PHE156     -0.0003
     11  CZ       -57.2350   85.2350  -13.0580 C.ar  156  PHE156     -0.0000
     12  N        -60.2440   91.2510  -10.6470 N.3   160  PRO160     -0.2102
     13  CA       -59.6960   90.5930  -11.8620 C.3   160  PRO160      0.1504
     14  C        -58.4130   91.2620  -12.4230 C.2   160  PRO160      0.2575
     15  O        -57.6530   90.5840  -13.0910 O.2   160  PRO160     -0.2718
     16  CB       -60.8540   90.6590  -12.8640 C.3   160  PRO160      0.0282
     17  CG       -62.0870   90.8690  -12.0200 C.3   160  PRO160      0.0208
     18  CD       -61.6250   91.7160  -10.8680 C.3   160  PRO160      0.0893
     19  N        -58.1220   92.5390  -12.0910 N.am  161  ASN161     -0.1975
     20  CA       -56.8960   93.2240  -12.5200 C.3   161  ASN161      0.1688
     21  C        -55.6980   92.7070  -11.7510 C.2   161  ASN161      0.2292
     22  O        -54.7190   92.2560  -12.3780 O.2   161  ASN161     -0.2864
     23  CB       -57.0000   94.7410  -12.3500 C.3   161  ASN161      0.1181
     24  CG       -55.7240   95.4880  -12.6210 C.2   161  ASN161      0.2629
     25  OD1      -54.8290   95.5940  -11.7740 O.2   161  ASN161     -0.2716
     26  ND2      -55.6260   96.0460  -13.7960 N.am  161  ASN161     -0.0877
     27  N        -55.0140   88.9830  -12.4900 N.3   164  THR164     -0.1203
     28  CA       -54.3610   88.8200  -13.8040 C.3   164  THR164      0.1994
     29  C        -52.8790   89.2450  -13.7420 C.2   164  THR164      0.2617
     30  O        -52.0220   88.6170  -14.3730 O.2   164  THR164     -0.2717
     31  CB       -55.1100   89.5870  -14.9050 C.3   164  THR164      0.1784
     32  OG1      -56.4810   89.2170  -14.8510 O.3   164  THR164     -0.2211
     33  CG2      -54.5880   89.2580  -16.2800 C.3   164  THR164      0.0376
     34  N        -52.5940   90.3160  -13.0030 N.am  165  PHE165     -0.1975
     35  CA       -51.2370   90.8130  -12.7980 C.3   165  PHE165      0.1639
     36  C        -50.3830   89.7030  -12.1190 C.2   165  PHE165      0.2290
     37  O        -49.3990   89.2570  -12.7100 O.2   165  PHE165     -0.2864
     38  CB       -51.2850   92.1230  -11.9610 C.3   165  PHE165      0.0560
     39  CG       -49.9550   92.6080  -11.4430 C.ar  165  PHE165     -0.0200
     40  CD1      -49.0500   93.2320  -12.2900 C.ar  165  PHE165     -0.0042
     41  CD2      -49.5960   92.4150  -10.1110 C.ar  165  PHE165     -0.0042
     42  CE1      -47.7950   93.6230  -11.8320 C.ar  165  PHE165     -0.0003
     43  CE2      -48.3450   92.8280   -9.6420 C.ar  165  PHE165     -0.0003
     44  CZ       -47.4500   93.4240  -10.5100 C.ar  165  PHE165     -0.0000
     45  N        -50.8680   86.5060  -11.8040 N.3   167  LEU167     -0.1231
     46  CA       -50.8310   85.3680  -12.7320 C.3   167  LEU167      0.1693
     47  C        -49.8370   85.5970  -13.8970 C.2   167  LEU167      0.2593
     48  O        -49.3530   84.6220  -14.4530 O.2   167  LEU167     -0.2718
     49  CB       -52.2650   85.1210  -13.2680 C.3   167  LEU167      0.0284
     50  CG       -52.5390   83.9510  -14.2400 C.3   167  LEU167      0.0019
     51  CD1      -52.2840   82.6030  -13.6030 C.3   167  LEU167      0.0001
     52  CD2      -53.9570   84.0080  -14.7530 C.3   167  LEU167      0.0001
     53  N        -49.5170   86.8550  -14.2550 N.am  168  SER168     -0.1938
     54  CA       -48.5550   87.1500  -15.3330 C.3   168  SER168      0.2055
     55  C        -47.0930   87.1810  -14.8280 C.2   168  SER168      0.2642
     56  O        -46.1640   86.9030  -15.5960 O.2   168  SER168     -0.2714
     57  CB       -48.8860   88.4810  -16.0080 C.3   168  SER168      0.2130
     58  OG       -48.5230   89.6030  -15.2160 O.3   168  SER168     -0.2179
     59  N        -46.9120   87.5210  -13.5410 N.am  169  VAL169     -0.1977
     60  CA       -45.6240   87.7140  -12.8900 C.3   169  VAL169      0.1596
     61  C        -45.0770   86.4260  -12.2460 C.2   169  VAL169      0.2287
     62  O        -43.8980   86.1150  -12.4480 O.2   169  VAL169     -0.2864
     63  CB       -45.7460   88.8600  -11.8510 C.3   169  VAL169      0.0276
     64  CG1      -44.5020   88.9720  -10.9850 C.3   169  VAL169      0.0022
     65  CG2      -46.0200   90.1930  -12.5420 C.3   169  VAL169      0.0022
     66  N        -43.2380   83.3310  -14.8440 N.3   172  PRO172     -0.2102
     67  CA       -41.8330   83.5310  -15.2870 C.3   172  PRO172      0.1504
     68  C        -40.7990   83.3760  -14.1460 C.2   172  PRO172      0.2575
     69  O        -39.7560   82.7360  -14.3400 O.2   172  PRO172     -0.2718
     70  CB       -41.8270   84.9670  -15.8470 C.3   172  PRO172      0.0282
     71  CG       -43.2240   85.2520  -16.2010 C.3   172  PRO172      0.0208
     72  CD       -44.0760   84.4900  -15.2220 C.3   172  PRO172      0.0893
     73  N        -41.1120   83.9310  -12.9530 N.am  173  VAL173     -0.1980
     74  CA       -40.2680   83.8540  -11.7610 C.3   173  VAL173      0.1595
     75  C        -40.1370   82.3960  -11.3160 C.2   173  VAL173      0.2287
     76  O        -39.0330   81.9510  -11.0180 O.2   173  VAL173     -0.2864
     77  CB       -40.8160   84.7620  -10.6300 C.3   173  VAL173      0.0276
     78  CG1      -40.2130   84.4120   -9.2660 C.3   173  VAL173      0.0022
     79  CG2      -40.5960   86.2330  -10.9590 C.3   173  VAL173      0.0022
     80  N        -37.8980   80.3070  -13.9060 N.3   176  ILE176     -0.1231
     81  CA       -36.4890   80.6510  -13.6750 C.3   176  ILE176      0.1692
     82  C        -35.9860   79.9980  -12.3640 C.2   176  ILE176      0.2591
     83  O        -34.9100   79.4100  -12.3810 O.2   176  ILE176     -0.2718
     84  CB       -36.2650   82.1840  -13.6890 C.3   176  ILE176      0.0266
     85  CG1      -36.5190   82.7690  -15.1040 C.3   176  ILE176      0.0019
     86  CG2      -34.8600   82.5390  -13.2030 C.3   176  ILE176      0.0020
     87  CD1      -36.8540   84.3320  -15.1570 C.3   176  ILE176      0.0001
     88  N        -36.7790   80.0440  -11.2680 N.am  177  ALA177     -0.1980
     89  CA       -36.4390   79.4400   -9.9720 C.3   177  ALA177      0.1597
     90  C        -36.3290   77.9140  -10.0490 C.2   177  ALA177      0.2287
     91  O        -35.5200   77.3270   -9.3250 O.2   177  ALA177     -0.2864
     92  CB       -37.4630   79.8210   -8.9230 C.3   177  ALA177      0.0319
     93  N        -32.9280   77.1780  -11.7600 N.3   180  TYR180     -0.1241
     94  CA       -31.8670   77.4530  -10.7780 C.3   180  TYR180      0.1605
     95  C        -31.8450   76.3500   -9.7140 C.2   180  TYR180      0.2264
     96  O        -30.7800   75.9990   -9.2170 O.2   180  TYR180     -0.2867
     97  CB       -32.1030   78.8380  -10.1150 C.3   180  TYR180      0.0534
     98  CG       -30.9090   79.5260   -9.4620 C.ar  180  TYR180     -0.0201
     99  CD1      -29.7330   78.8210   -9.1750 C.ar  180  TYR180     -0.0009
    100  CD2      -30.9550   80.8790   -9.1270 C.ar  180  TYR180     -0.0009
    101  CE1      -28.6450   79.4420   -8.5600 C.ar  180  TYR180      0.0417
    102  CE2      -29.8600   81.5200   -8.5430 C.ar  180  TYR180      0.0417
    103  CZ       -28.7140   80.7920   -8.2420 C.ar  180  TYR180      0.1957
    104  OH       -27.6420   81.4170   -7.6460 O.3   180  TYR180     -0.2866
    105  N        -31.7740   85.3730   -4.5280 N.3   249  ALA249     -0.1231
    106  CA       -32.6060   85.5970   -5.7140 C.3   249  ALA249      0.1694
    107  C        -34.0720   85.2580   -5.4740 C.2   249  ALA249      0.2592
    108  O        -34.9270   86.0240   -5.9050 O.2   249  ALA249     -0.2718
    109  CB       -32.0820   84.7800   -6.8840 C.3   249  ALA249      0.0304
    110  N        -34.3710   84.1250   -4.8100 N.am  250  THR250     -0.1953
    111  CA       -35.7600   83.7220   -4.5610 C.3   250  THR250      0.1897
    112  C        -36.4050   84.5960   -3.4920 C.2   250  THR250      0.2313
    113  O        -37.5960   84.8880   -3.6050 O.2   250  THR250     -0.2863
    114  CB       -35.8930   82.2420   -4.2130 C.3   250  THR250      0.1794
    115  OG1      -35.1370   81.9500   -3.0280 O.3   250  THR250     -0.2208
    116  CG2      -35.5410   81.3230   -5.3900 C.3   250  THR250      0.0378
    117  N        -37.0960   88.1000   -5.1110 N.3   253  SER253     -0.1217
    118  CA       -38.1960   87.9260   -6.0490 C.3   253  SER253      0.1889
    119  C        -39.5270   87.8250   -5.3250 C.2   253  SER253      0.2288
    120  O        -40.4760   88.5020   -5.7230 O.2   253  SER253     -0.2866
    121  CB       -37.9690   86.7090   -6.9380 C.3   253  SER253      0.2089
    122  OG       -36.9010   86.9940   -7.8270 O.3   253  SER253     -0.2183
    123  N        -49.4940   98.2060   -6.8030 N.3   264  LYS264     -0.1245
    124  CA       -50.5950   98.2300   -7.7820 C.3   264  LYS264      0.1561
    125  C        -51.9390   98.3800   -7.0600 C.2   264  LYS264      0.2260
    126  O        -52.7760   99.1750   -7.5130 O.2   264  LYS264     -0.2867
    127  CB       -50.5880   96.9750   -8.6740 C.3   264  LYS264      0.0271
    128  CG       -51.4760   97.0720   -9.9150 C.3   264  LYS264      0.0035
    129  CD       -50.7100   96.5870  -11.1250 C.3   264  LYS264      0.0206
    130  CE       -51.5720   96.0490  -12.2230 C.3   264  LYS264      0.1093
    131  NZ       -52.4330   97.0860  -12.8170 N.3   264  LYS264     -0.1314
@<TRIPOS>BOND
     1    33    31    1
     2    71    70    1
     3    71    72    1
     4    57    54    1
     5    57    58    1
     6    70    67    1
     7    56    55    2
     8    54    55    1
     9    54    53    1
    10    67    66    1
    11    67    68    1
    12    72    66    1
    13    87    85    1
    14    85    84    1
    15    31    32    1
    16    31    28    1
    17    55    59   am
    18    52    50    1
    19    48    47    2
    20    30    29    2
    21    69    68    2
    22    53    47   am
    23    50    51    1
    24    50    49    1
    25    68    73   am
    26    80    81    1
    27    47    46    1
    28    28    29    1
    29    28    27    1
    30    26    24   am
    31    29    34   am
    32    84    81    1
    33    84    86    1
    34    81    82    1
    35    59    60    1
    36     9    11   ar
    37     9     7   ar
    38    49    46    1
    39    15    14    2
    40    11    10   ar
    41    34    35    1
    42    73    74    1
    43    60    61    1
    44    60    63    1
    45    16    17    1
    46    16    13    1
    47   131   130    1
    48    35    36    1
    49    35    38    1
    50    46    45    1
    51    37    36    2
    52    24    23    1
    53    24    25    2
    54    65    63    1
    55     7     6   ar
    56    20    23    1
    57    20    19    1
    58    20    21    1
    59    62    61    2
    60    14    19   am
    61    14    13    1
    62    83    82    2
    63    22    21    2
    64    82    88   am
    65    40    42   ar
    66    40    39   ar
    67   130   129    1
    68    17    18    1
    69    38    39    1
    70    10     8   ar
    71    13    12    1
    72    63    64    1
    73    42    44   ar
    74    74    75    1
    75    74    77    1
    76    93    94    1
    77    39    41   ar
    78     6     8   ar
    79     6     5    1
    80    75    76    2
    81    88    89    1
    82   129   128    1
    83    79    77    1
    84    18    12    1
    85    94    97    1
    86    94    95    1
    87    77    78    1
    88    44    43   ar
    89     5     2    1
    90    97    98    1
    91    41    43   ar
    92    90    89    1
    93    90    91    2
    94    89    92    1
    95   128   127    1
    96    95    96    2
    97     4     3    2
    98    98    99   ar
    99    98   100   ar
   100     2     3    1
   101     2     1    1
   102    99   101   ar
   103   100   102   ar
   104   127   124    1
   105   101   103   ar
   106   102   103   ar
   107   103   104    1
   108   122   121    1
   109   124   125    1
   110   124   123    1
   111   126   125    2
   112   121   118    1
   113   109   106    1
   114   118   119    1
   115   118   117    1
   116   108   107    2
   117   120   119    2
   118   106   107    1
   119   106   105    1
   120   107   110   am
   121   116   114    1
   122   110   111    1
   123   111   114    1
   124   111   112    1
   125   114   115    1
   126   113   112    2
