@<TRIPOS>MOLECULE
tmp/3zduA00.pdb
 180 172 0 0 0
SMALL
GASTEIGER

@<TRIPOS>ATOM
      1  N         22.7980   19.8370   53.7760 N.3    10  VAL10      -0.1231
      2  CA        24.1020   19.2880   54.1940 C.3    10  VAL10       0.1696
      3  C         24.0060   17.9060   54.8470 C.2    10  VAL10       0.2632
      4  O         25.0320   17.3530   55.2670 O.2    10  VAL10      -0.2714
      5  CB        24.9190   20.2580   55.0960 C.3    10  VAL10       0.0266
      6  CG1       25.4310   21.4430   54.2860 C.3    10  VAL10       0.0020
      7  CG2       24.1260   20.7260   56.3230 C.3    10  VAL10       0.0020
      8  N         22.8040   17.3280   54.9300 N.am   11  GLY11      -0.1718
      9  CA        22.6700   15.9970   55.5260 C.2    11  GLY11       0.1480
     10  C         21.3180   15.3590   55.3760 C.2    11  GLY11       0.2820
     11  O         20.3430   16.0300   55.0930 O.2    11  GLY11      -0.2669
     12  N         21.2830   14.0410   55.5570 N.am   12  GLU12      -0.1943
     13  CA        20.0490   13.2530   55.4730 C.3    12  GLU12       0.1605
     14  C         20.2100   11.8340   56.0630 C.2    12  GLU12       0.2287
     15  O         21.2710   11.2050   55.9480 O.2    12  GLU12      -0.2864
     16  CB        19.5970   13.1360   54.0210 C.3    12  GLU12       0.0415
     17  CG        20.2550   12.0030   53.2390 C.3    12  GLU12       0.1163
     18  CD        19.5580   11.7240   51.9450 C.2    12  GLU12       0.3649
     19  OE1       18.6600   12.5230   51.6050 O.co2  12  GLU12      -0.2457
     20  OE2       19.8870   10.7010   51.2960 O.co2  12  GLU12      -0.2457
     21  N         16.2440    9.2540   59.6480 N.3    15  TYR15      -0.1241
     22  CA        15.5060   10.1820   60.5310 C.3    15  TYR15       0.1605
     23  C         14.8410   11.3810   59.8420 C.2    15  TYR15       0.2264
     24  O         13.8120   11.8860   60.2920 O.2    15  TYR15      -0.2867
     25  CB        16.4830   10.7480   61.5780 C.3    15  TYR15       0.0534
     26  CG        17.5390   11.6850   61.0000 C.ar   15  TYR15      -0.0201
     27  CD1       17.2980   13.0740   60.8900 C.ar   15  TYR15      -0.0009
     28  CD2       18.7750   11.1940   60.5570 C.ar   15  TYR15      -0.0009
     29  CE1       18.2610   13.9290   60.3610 C.ar   15  TYR15       0.0417
     30  CE2       19.7410   12.0470   60.0280 C.ar   15  TYR15       0.0417
     31  CZ        19.4820   13.4070   59.9290 C.ar   15  TYR15       0.1957
     32  OH        20.4480   14.2380   59.4060 O.3    15  TYR15      -0.2866
     33  N         19.0700   17.5440   57.3830 N.3    18  VAL18      -0.1245
     34  CA        19.7000   18.7560   57.8690 C.3    18  VAL18       0.1561
     35  C         19.8190   19.7240   56.7110 C.2    18  VAL18       0.2260
     36  O         20.3590   19.3660   55.6730 O.2    18  VAL18      -0.2867
     37  CB        21.1210   18.5120   58.4280 C.3    18  VAL18       0.0252
     38  CG1       21.7570   19.8370   58.8770 C.3    18  VAL18       0.0019
     39  CG2       21.0810   17.5210   59.5830 C.3    18  VAL18       0.0019
     40  N         21.8130   25.5270   60.9110 N.3    31  ALA31      -0.1245
     41  CA        21.6050   24.1790   60.4390 C.3    31  ALA31       0.1562
     42  C         20.3270   23.6330   61.0590 C.2    31  ALA31       0.2260
     43  O         20.2430   23.4610   62.2630 O.2    31  ALA31      -0.2867
     44  CB        22.7960   23.2910   60.7870 C.3    31  ALA31       0.0290
     45  N         17.6180   20.7470   61.5940 N.3    33  LYS33      -0.1245
     46  CA        17.3240   19.3270   61.5460 C.3    33  LYS33       0.1561
     47  C         15.8130   19.2180   61.4290 C.2    33  LYS33       0.2260
     48  O         15.1100   19.9100   62.1440 O.2    33  LYS33      -0.2867
     49  CB        17.8400   18.6430   62.8110 C.3    33  LYS33       0.0271
     50  CG        18.1430   17.1560   62.6710 C.3    33  LYS33       0.0035
     51  CD        18.9100   16.7050   63.9050 C.3    33  LYS33       0.0206
     52  CE        18.9080   15.1940   64.0780 C.3    33  LYS33       0.1093
     53  NZ        19.8360   14.7020   65.1450 N.3    33  LYS33      -0.1314
     54  N         16.2470   14.2480   71.9150 N.3    43  GLU43      -0.1245
     55  CA        17.3230   15.1630   71.5520 C.3    43  GLU43       0.1567
     56  C         17.1110   16.5490   72.1470 C.2    43  GLU43       0.2260
     57  O         18.0270   17.1190   72.7400 O.2    43  GLU43      -0.2867
     58  CB        17.4960   15.2760   70.0440 C.3    43  GLU43       0.0388
     59  CG        18.6320   16.2120   69.6730 C.3    43  GLU43       0.1160
     60  CD        19.3040   15.8520   68.3760 C.2    43  GLU43       0.3649
     61  OE1       18.6050   15.5570   67.3890 O.co2  43  GLU43      -0.2457
     62  OE2       20.5460   15.8740   68.3470 O.co2  43  GLU43      -0.2457
     63  N         27.4860   21.1660   70.3010 N.3    56  VAL56      -0.1245
     64  CA        26.8180   22.0750   69.3660 C.3    56  VAL56       0.1561
     65  C         25.6800   22.8490   70.0560 C.2    56  VAL56       0.2260
     66  O         24.9530   22.2800   70.8680 O.2    56  VAL56      -0.2867
     67  CB        26.3040   21.3410   68.0980 C.3    56  VAL56       0.0252
     68  CG1       25.1620   20.3780   68.3780 C.3    56  VAL56       0.0019
     69  CG2       25.8750   22.3460   67.0390 C.3    56  VAL56       0.0019
     70  N         19.9770   24.6820   64.8440 N.3    72  PHE72      -0.1227
     71  CA        21.2820   24.7630   65.5050 C.3    72  PHE72       0.1736
     72  C         22.1160   25.8760   64.9180 C.2    72  PHE72       0.2595
     73  O         21.9000   26.2630   63.7650 O.2    72  PHE72      -0.2718
     74  CB        22.0690   23.4840   65.2890 C.3    72  PHE72       0.0547
     75  CG        21.4520   22.2870   65.9280 C.ar   72  PHE72      -0.0202
     76  CD1       20.4820   21.5530   65.2590 C.ar   72  PHE72      -0.0042
     77  CD2       21.8390   21.8930   67.2040 C.ar   72  PHE72      -0.0042
     78  CE1       19.8990   20.4470   65.8510 C.ar   72  PHE72      -0.0003
     79  CE2       21.2560   20.7910   67.8090 C.ar   72  PHE72      -0.0003
     80  CZ        20.2840   20.0620   67.1290 C.ar   72  PHE72      -0.0000
     81  N         23.1120   26.3350   65.6800 N.am   73  GLU73      -0.1965
     82  CA        24.2400   27.1070   65.0990 C.3    73  GLU73       0.1733
     83  C         24.8850   26.3050   63.9400 C.2    73  GLU73       0.2616
     84  O         24.7610   25.0520   63.8690 O.2    73  GLU73      -0.2715
     85  CB        25.3100   27.4330   66.1500 C.3    73  GLU73       0.0429
     86  CG        25.9340   26.1940   66.7850 C.3    73  GLU73       0.1163
     87  CD        27.2150   26.4860   67.5630 C.2    73  GLU73       0.3649
     88  OE1       27.6980   27.6280   67.5190 O.co2  73  GLU73      -0.2457
     89  OE2       27.7370   25.5610   68.2440 O.co2  73  GLU73      -0.2457
     90  N         25.5220   27.0310   63.0160 N.am   74  PHE74      -0.1960
     91  CA        26.1260   26.4050   61.8520 C.3    74  PHE74       0.1771
     92  C         27.6320   26.4180   62.0210 C.2    74  PHE74       0.2619
     93  O         28.2420   27.4550   62.2940 O.2    74  PHE74      -0.2715
     94  CB        25.7330   27.0770   60.5360 C.3    74  PHE74       0.0574
     95  CG        26.3800   26.4430   59.3360 C.ar   74  PHE74      -0.0200
     96  CD1       25.8780   25.2640   58.8060 C.ar   74  PHE74      -0.0042
     97  CD2       27.5470   26.9860   58.7790 C.ar   74  PHE74      -0.0042
     98  CE1       26.4900   24.6460   57.7170 C.ar   74  PHE74      -0.0003
     99  CE2       28.1710   26.3670   57.6840 C.ar   74  PHE74      -0.0003
    100  CZ        27.6440   25.1770   57.1630 C.ar   74  PHE74      -0.0000
    101  N         28.2270   25.2380   61.8650 N.am   75  ILE75      -0.1963
    102  CA        29.6580   25.0910   61.9660 C.3    75  ILE75       0.1727
    103  C         30.1960   24.6470   60.6240 C.2    75  ILE75       0.2616
    104  O         29.6250   23.7970   59.9580 O.2    75  ILE75      -0.2715
    105  CB        30.0410   24.1300   63.1000 C.3    75  ILE75       0.0290
    106  CG1       29.8160   24.8320   64.4440 C.3    75  ILE75       0.0022
    107  CG2       31.4900   23.6810   63.0010 C.3    75  ILE75       0.0023
    108  CD1       28.4270   24.6160   64.9980 C.3    75  ILE75       0.0001
    109  N         31.3230   25.2370   60.2650 N.am   76  ASP76      -0.1957
    110  CA        31.8450   25.1330   58.9240 C.3    76  ASP76       0.1840
    111  C         31.7780   23.7650   58.2840 C.2    76  ASP76       0.2622
    112  O         31.2250   23.6490   57.2350 O.2    76  ASP76      -0.2715
    113  CB        33.2830   25.6250   58.8510 C.3    76  ASP76       0.1450
    114  CG        33.7760   25.6690   57.4270 C.2    76  ASP76       0.3671
    115  OD1       33.3610   26.5930   56.6950 O.co2  76  ASP76      -0.2456
    116  OD2       34.5240   24.7620   57.0350 O.co2  76  ASP76      -0.2456
    117  N         32.3550   22.7370   58.8860 N.am   77  HIS77      -0.1959
    118  CA        32.2670   21.3780   58.3080 C.3    77  HIS77       0.1787
    119  C         32.3500   20.3060   59.3670 C.2    77  HIS77       0.2620
    120  O         32.2450   20.5900   60.5140 O.2    77  HIS77      -0.2715
    121  CB        33.3680   21.1470   57.2680 C.3    77  HIS77       0.0785
    122  CG        34.7540   21.2160   57.8310 C.ar   77  HIS77       0.0821
    123  ND1       35.4290   22.4080   57.9710 N.ar   77  HIS77      -0.2267
    124  CD2       35.6040   20.2480   58.2530 C.ar   77  HIS77       0.1154
    125  CE1       36.6220   22.1770   58.4870 C.ar   77  HIS77       0.1986
    126  NE2       36.7530   20.8740   58.6720 N.ar   77  HIS77      -0.2212
    127  N         32.4760   19.0590   58.9430 N.am   78  THR78      -0.1951
    128  CA        32.6640   17.9630   59.8420 C.3    78  THR78       0.1897
    129  C         34.0140   17.2890   59.5870 C.2    78  THR78       0.2313
    130  O         34.6760   17.5890   58.6010 O.2    78  THR78      -0.2863
    131  CB        31.5910   16.9000   59.6050 C.3    78  THR78       0.1794
    132  OG1       31.9340   16.1500   58.4510 O.3    78  THR78      -0.2208
    133  CG2       30.2340   17.5230   59.4260 C.3    78  THR78       0.0378
    134  N         33.8990   15.3810   56.3990 N.3    81  ASP81      -0.1239
    135  CA        34.3080   16.2210   55.2680 C.3    81  ASP81       0.1674
    136  C         35.8030   16.1890   55.0560 C.2    81  ASP81       0.2266
    137  O         36.2750   16.2010   53.9160 O.2    81  ASP81      -0.2867
    138  CB        33.8720   17.7370   55.4240 C.3    81  ASP81       0.1410
    139  CG        32.3490   17.9070   55.4440 C.2    81  ASP81       0.3668
    140  OD1       31.6770   17.1810   54.6960 O.co2  81  ASP81      -0.2456
    141  OD2       31.8170   18.7200   56.2210 O.co2  81  ASP81      -0.2456
    142  N         31.0010   12.1050   61.0730 N.3   122  GLU122     -0.1231
    143  CA        30.0140   13.0810   60.6730 C.3   122  GLU122      0.1699
    144  C         29.4990   13.8860   61.8580 C.2   122  GLU122      0.2592
    145  O         29.0780   15.0290   61.6960 O.2   122  GLU122     -0.2718
    146  CB        28.8490   12.4210   59.9450 C.3   122  GLU122      0.0402
    147  CG        27.9060   13.4190   59.2970 C.3   122  GLU122      0.1161
    148  CD        26.7350   12.7660   58.5830 C.2   122  GLU122      0.3649
    149  OE1       26.2120   11.7430   59.0890 O.co2 122  GLU122     -0.2457
    150  OE2       26.2900   13.3370   57.5470 O.co2 122  GLU122     -0.2457
    151  N         29.5550   13.3140   63.0580 N.am  123  ASN123     -0.1974
    152  CA        28.9650   13.9710   64.2350 C.3   123  ASN123      0.1688
    153  C         30.0170   14.7310   65.0060 C.2   123  ASN123      0.2292
    154  O         29.7690   15.1820   66.1190 O.2   123  ASN123     -0.2864
    155  CB        28.2510   12.9270   65.1400 C.3   123  ASN123      0.1181
    156  CG        27.0080   12.3270   64.4750 C.2   123  ASN123      0.2629
    157  OD1       26.4310   12.9090   63.5530 O.2   123  ASN123     -0.2716
    158  ND2       26.5830   11.2160   64.9480 N.am  123  ASN123     -0.0877
    159  N         31.8100   18.2240   64.4430 N.3   125  LEU125     -0.1245
    160  CA        31.7670   19.4360   63.6560 C.3   125  LEU125      0.1561
    161  C         33.0720   20.1780   63.8640 C.2   125  LEU125      0.2260
    162  O         33.6270   20.1350   64.9720 O.2   125  LEU125     -0.2867
    163  CB        30.5810   20.2850   64.0760 C.3   125  LEU125      0.0270
    164  CG        29.2180   19.6010   64.1020 C.3   125  LEU125      0.0019
    165  CD1       28.1910   20.6260   64.5490 C.3   125  LEU125      0.0001
    166  CD2       28.8480   19.0470   62.7510 C.3   125  LEU125      0.0001
    167  N         27.9450   16.5970   68.2130 N.3   135  CYS135     -0.1221
    168  CA        26.5050   16.7180   68.0040 C.3   135  CYS135      0.1808
    169  C         25.7840   15.3860   67.8500 C.2   135  CYS135      0.2601
    170  O         26.4080   14.3080   67.9070 O.2   135  CYS135     -0.2717
    171  CB        26.2420   17.5650   66.7750 C.3   135  CYS135      0.0970
    172  SG        26.7570   16.7730   65.2560 S.3   135  CYS135     -0.0800
    173  N         24.4570   15.4790   67.6900 N.am  136  ASP136     -0.1973
    174  CA        23.5660   14.3510   67.4100 C.3   136  ASP136      0.1709
    175  C         23.3660   13.5300   68.6870 C.2   136  ASP136      0.2293
    176  O         24.1570   12.6120   69.0010 O.2   136  ASP136     -0.2864
    177  CB        24.0640   13.5360   66.2030 C.3   136  ASP136      0.1436
    178  CG        23.1410   12.3840   65.8060 C.2   136  ASP136      0.3671
    179  OD1       21.9570   12.3420   66.2380 O.co2 136  ASP136     -0.2456
    180  OD2       23.6350   11.4970   65.0620 O.co2 136  ASP136     -0.2456
@<TRIPOS>BOND
     1    20    18   ar
     2    19    18   ar
     3    18    17    1
     4    17    16    1
     5     1     2    1
     6   137   136    2
     7    16    13    1
     8     2     3    1
     9     2     5    1
    10     6     5    1
    11   140   139   ar
    12     3     8    1
    13     3     4    2
    14     8     9    2
    15   136   135    1
    16    11    10    2
    17     5     7    1
    18   135   138    1
    19   135   134    1
    20    10     9    1
    21    10    12   am
    22   138   139    1
    23   139   141   ar
    24    13    12    1
    25    13    14    1
    26    36    35    2
    27    15    14    2
    28   115   114   ar
    29    35    34    1
    30   116   114   ar
    31   100    99   ar
    32   100    98   ar
    33   112   111    2
    34   121   122    1
    35   121   118    1
    36    33    34    1
    37   114   113    1
    38   150   148   ar
    39    99    97   ar
    40    98    96   ar
    41   122   123   ar
    42   122   124   ar
    43    34    37    1
    44   123   125   ar
    45   124   126   ar
    46   111   117   am
    47   111   110    1
    48   118   117    1
    49   118   119    1
    50    37    38    1
    51    37    39    1
    52   132   131    1
    53   125   126   ar
    54   148   149   ar
    55   148   147    1
    56   130   129    2
    57    97    95   ar
    58    96    95   ar
    59   113   110    1
    60   110   109    1
    61   127   119   am
    62   127   128    1
    63   147   146    1
    64    95    94    1
    65   119   120    2
    66    32    31    1
    67   133   131    1
    68   129   128    1
    69   131   128    1
    70    21    22    1
    71    23    24    2
    72    23    22    1
    73    31    30   ar
    74    31    29   ar
    75   146   143    1
    76   104   103    2
    77    30    28   ar
    78   109   103   am
    79    29    27   ar
    80    41    44    1
    81    41    40    1
    82    41    42    1
    83    22    25    1
    84    94    91    1
    85    28    26   ar
    86   103   102    1
    87   143   142    1
    88   143   144    1
    89    27    26   ar
    90    26    25    1
    91    42    43    2
    92    47    46    1
    93    47    48    2
    94    46    45    1
    95    46    49    1
    96   145   144    2
    97    91    92    1
    98    91    90    1
    99   144   151   am
   100   101   102    1
   101   101    92   am
   102   102   105    1
   103    92    93    2
   104    50    49    1
   105    50    51    1
   106   166   164    1
   107   107   105    1
   108    90    83   am
   109   151   152    1
   110   105   106    1
   111   157   156    2
   112   160   161    1
   113   160   163    1
   114   160   159    1
   115    73    72    2
   116   161   162    2
   117    84    83    2
   118    51    52    1
   119    83    82    1
   120   163   164    1
   121    52    53    1
   122   164   165    1
   123   152   153    1
   124   152   155    1
   125   106   108    1
   126   156   158   am
   127   156   155    1
   128    70    71    1
   129    72    71    1
   130    72    81   am
   131   153   154    2
   132   180   178   ar
   133    82    81    1
   134    82    85    1
   135   172   171    1
   136    76    78   ar
   137    76    75   ar
   138    74    71    1
   139    74    75    1
   140   178   177    1
   141   178   179   ar
   142    78    80   ar
   143    75    77   ar
   144    85    86    1
   145   177   174    1
   146   171   168    1
   147    86    87    1
   148    69    67    1
   149    80    79   ar
   150    77    79   ar
   151    61    60   ar
   152   174   173    1
   153   174   175    1
   154    88    87   ar
   155    87    89   ar
   156   173   169   am
   157   169   170    2
   158   169   168    1
   159   168   167    1
   160    67    68    1
   161    67    64    1
   162    62    60   ar
   163    60    59    1
   164   175   176    2
   165    64    65    1
   166    64    63    1
   167    59    58    1
   168    58    55    1
   169    65    66    2
   170    55    54    1
   171    55    56    1
   172    56    57    2
