@<TRIPOS>MOLECULE
tmp/3zdvB01.pdb
 68 64 0 0 0
SMALL
GASTEIGER

@<TRIPOS>ATOM
      1  N         12.3340  -12.8100   24.8300 N.3    22  SER22      -0.1202
      2  CA        13.5220  -13.6170   24.6500 C.3    22  SER22       0.2020
      3  C         13.9320  -14.2220   25.9830 C.2    22  SER22       0.2619
      4  O         13.6350  -13.6950   27.0390 O.2    22  SER22      -0.2717
      5  CB        14.6850  -12.7180   24.2200 C.3    22  SER22       0.2103
      6  OG        15.9070  -13.4480   24.1410 O.3    22  SER22      -0.2182
      7  N         14.5860  -15.3660   25.9180 N.am   23  SER23      -0.1937
      8  CA        15.1980  -15.9520   27.1280 C.3    23  SER23       0.2055
      9  C         16.4160  -15.1650   27.6260 C.2    23  SER23       0.2644
     10  O         16.7890  -15.3000   28.7720 O.2    23  SER23      -0.2714
     11  CB        15.6150  -17.4150   26.8650 C.3    23  SER23       0.2130
     12  OG        14.4700  -18.2130   26.6440 O.3    23  SER23      -0.2179
     13  N         17.0140  -14.3660   26.7610 N.am   24  GLY24      -0.1939
     14  CA        18.1360  -13.5640   27.1530 C.3    24  GLY24       0.2014
     15  C         17.7050  -12.1820   27.6700 C.2    24  GLY24       0.2639
     16  O         16.6900  -11.6170   27.2320 O.2    24  GLY24      -0.2714
     17  N         18.4270  -11.6330   28.6310 N.am   25  THR25      -0.1950
     18  CA        18.1610  -10.2890   29.1520 C.3    25  THR25       0.1897
     19  C         18.5410   -9.2500   28.0950 C.2    25  THR25       0.2313
     20  O         19.6740   -9.2470   27.5930 O.2    25  THR25      -0.2863
     21  CB        18.9530  -10.0430   30.4530 C.3    25  THR25       0.1794
     22  OG1       18.5220  -10.9970   31.4360 O.3    25  THR25      -0.2208
     23  CG2       18.7210   -8.6600   30.9490 C.3    25  THR25       0.0378
     24  N         22.6760   -8.0800   24.1730 N.3    69  VAL69      -0.1231
     25  CA        22.3790   -9.1040   25.1570 C.3    69  VAL69       0.1692
     26  C         23.7250   -9.5260   25.7530 C.2    69  VAL69       0.2592
     27  O         24.5810  -10.0150   25.0230 O.2    69  VAL69      -0.2718
     28  CB        21.6270  -10.2720   24.5210 C.3    69  VAL69       0.0266
     29  CG1       21.4040  -11.3910   25.5320 C.3    69  VAL69       0.0020
     30  CG2       20.3110   -9.7630   23.9320 C.3    69  VAL69       0.0020
     31  N         23.9030   -9.2010   27.0420 N.am   70  ASN70      -0.1974
     32  CA        25.1810   -9.4180   27.7530 C.3    70  ASN70       0.1688
     33  C         26.3780   -8.9430   26.9180 C.2    70  ASN70       0.2292
     34  O         27.4070   -9.6120   26.8180 O.2    70  ASN70      -0.2864
     35  CB        25.3010  -10.8700   28.1370 C.3    70  ASN70       0.1181
     36  CG        24.1620  -11.3180   29.0770 C.2    70  ASN70       0.2629
     37  OD1       23.3940  -12.2220   28.7480 O.2    70  ASN70      -0.2716
     38  ND2       24.0320  -10.6570   30.2290 N.am   70  ASN70      -0.0877
     39  N         26.6440   -8.3760   23.6350 N.3    72  ARG72      -0.1245
     40  CA        26.7230   -8.7210   22.2100 C.3    72  ARG72       0.1563
     41  C         25.6570   -8.0140   21.4190 C.2    72  ARG72       0.2260
     42  O         24.4770   -8.1680   21.7590 O.2    72  ARG72      -0.2867
     43  CB        26.4590  -10.2070   22.0600 C.3    72  ARG72       0.0307
     44  CG        26.5600  -10.7520   20.6330 C.3    72  ARG72       0.0489
     45  CD        25.9080  -12.1270   20.5460 C.3    72  ARG72       0.2205
     46  NE        25.7220  -12.6720   19.1980 N.pl3  72  ARG72      -0.0865
     47  CZ        24.7110  -12.3790   18.3780 C.cat  72  ARG72       0.5346
     48  NH1       23.7820  -11.5010   18.7270 N.pl3  72  ARG72       0.1354
     49  NH2       24.6400  -12.9570   17.1860 N.pl3  72  ARG72       0.1354
     50  N         18.6500  -11.8170   18.7120 N.3    96  ASP96      -0.1225
     51  CA        19.7930  -12.1530   19.5760 C.3    96  ASP96       0.1805
     52  C         20.2720  -13.5990   19.4090 C.2    96  ASP96       0.2598
     53  O         21.2130  -14.0110   20.0820 O.2    96  ASP96      -0.2718
     54  CB        19.4430  -11.8710   21.0460 C.3    96  ASP96       0.1424
     55  CG        18.3390  -12.7350   21.5920 C.2    96  ASP96       0.3668
     56  OD1       18.0930  -13.8240   21.0440 O.co2  96  ASP96      -0.2456
     57  OD2       17.7450  -12.3630   22.6210 O.co2  96  ASP96      -0.2456
     58  N         19.6520  -14.3320   18.5190 N.am   97  GLY97      -0.1942
     59  CA        19.8910  -15.7630   18.4010 C.3    97  GLY97       0.2014
     60  C         19.7660  -16.2740   17.0030 C.2    97  GLY97       0.2639
     61  O         20.2150  -15.6180   16.0480 O.2    97  GLY97      -0.2714
     62  N         19.1390  -17.4420   16.8680 N.am   98  THR98      -0.1950
     63  CA        19.0840  -18.1540   15.5890 C.3    98  THR98       0.1897
     64  C         17.6960  -18.3310   14.9750 C.2    98  THR98       0.2313
     65  O         17.5820  -18.7280   13.8100 O.2    98  THR98      -0.2863
     66  CB        19.6880  -19.5570   15.7310 C.3    98  THR98       0.1794
     67  OG1       18.9380  -20.2710   16.7150 O.3    98  THR98      -0.2208
     68  CG2       21.1350  -19.4590   16.1660 C.3    98  THR98       0.0378
@<TRIPOS>BOND
     1    65    64    2
     2    64    63    1
     3    63    66    1
     4    63    62    1
     5    66    68    1
     6    66    67    1
     7    61    60    2
     8    62    60   am
     9    60    59    1
    10    49    47    1
    11    47    48    1
    12    47    46    2
    13    59    58    1
    14    58    52   am
    15    50    51    1
    16    46    45    1
    17    52    51    1
    18    52    53    2
    19    51    54    1
    20    45    44    1
    21    44    43    1
    22    56    55   ar
    23    54    55    1
    24    41    42    2
    25    41    40    1
    26    55    57   ar
    27    43    40    1
    28    40    39    1
    29    30    28    1
    30     6     5    1
    31    24    25    1
    32     5     2    1
    33    28    25    1
    34    28    29    1
    35     2     1    1
    36     2     3    1
    37    27    26    2
    38    25    26    1
    39    26    31   am
    40     7     3   am
    41     7     8    1
    42     3     4    2
    43    12    11    1
    44    13    14    1
    45    13     9   am
    46    34    33    2
    47    11     8    1
    48    33    32    1
    49    31    32    1
    50     8     9    1
    51    14    15    1
    52    16    15    2
    53    20    19    2
    54     9    10    2
    55    15    17   am
    56    32    35    1
    57    19    18    1
    58    35    36    1
    59    17    18    1
    60    37    36    2
    61    36    38   am
    62    18    21    1
    63    21    23    1
    64    21    22    1
