@<TRIPOS>MOLECULE
tmp/3ze0B00.pdb
 108 106 0 0 0
SMALL
GASTEIGER

@<TRIPOS>ATOM
      1  N         59.9600  118.6110   67.8140 N.3   120  SER120     -0.1202
      2  CA        58.6880  117.9790   68.1170 C.3   120  SER120      0.2020
      3  C         58.2400  118.4110   69.5130 C.2   120  SER120      0.2619
      4  O         59.0370  118.9340   70.2900 O.2   120  SER120     -0.2717
      5  CB        58.8160  116.4590   68.0290 C.3   120  SER120      0.2103
      6  OG        59.7470  115.9640   68.9750 O.3   120  SER120     -0.2182
      7  N         56.9670  118.2010   69.8260 N.am  121  TYR121     -0.1961
      8  CA        56.4060  118.6690   71.0900 C.3   121  TYR121      0.1771
      9  C         57.1870  118.1340   72.2870 C.2   121  TYR121      0.2620
     10  O         57.3580  118.8290   73.2870 O.2   121  TYR121     -0.2715
     11  CB        54.9330  118.2670   71.2030 C.3   121  TYR121      0.0574
     12  CG        54.1620  119.0510   72.2410 C.ar  121  TYR121     -0.0198
     13  CD1       53.8080  120.3760   72.0150 C.ar  121  TYR121     -0.0009
     14  CD2       53.7800  118.4670   73.4410 C.ar  121  TYR121     -0.0009
     15  CE1       53.0990  121.0980   72.9590 C.ar  121  TYR121      0.0417
     16  CE2       53.0700  119.1820   74.3910 C.ar  121  TYR121      0.0417
     17  CZ        52.7320  120.4960   74.1430 C.ar  121  TYR121      0.1957
     18  OH        52.0270  121.2130   75.0840 O.3   121  TYR121     -0.2866
     19  N         57.6690  116.9000   72.1790 N.am  122  SER122     -0.1950
     20  CA        58.4070  116.2760   73.2710 C.3   122  SER122      0.1924
     21  C         59.6850  117.0460   73.5990 C.2   122  SER122      0.2314
     22  O         60.3080  116.8090   74.6320 O.2   122  SER122     -0.2863
     23  CB        58.7470  114.8220   72.9280 C.3   122  SER122      0.2116
     24  OG        59.5260  114.7350   71.7470 O.3   122  SER122     -0.2180
     25  N         59.9280  120.2070   74.2810 N.3   124  LYS124     -0.1231
     26  CA        59.6300  121.4250   75.0250 C.3   124  LYS124      0.1693
     27  C         60.6180  121.6030   76.1730 C.2   124  LYS124      0.2592
     28  O         61.1650  122.6880   76.3760 O.2   124  LYS124     -0.2718
     29  CB        58.2040  121.3790   75.5770 C.3   124  LYS124      0.0285
     30  CG        57.1950  122.1810   74.7770 C.3   124  LYS124      0.0035
     31  CD        57.5000  123.6720   74.8440 C.3   124  LYS124      0.0206
     32  CE        56.3900  124.5070   74.2210 C.3   124  LYS124      0.1093
     33  NZ        55.1180  124.4480   74.9970 N.3   124  LYS124     -0.1314
     34  N         60.8430  120.5220   76.9140 N.am  125  ASP125     -0.1974
     35  CA        61.7040  120.5540   78.0910 C.3   125  ASP125      0.1709
     36  C         63.1720  120.2970   77.7510 C.2   125  ASP125      0.2293
     37  O         63.9830  120.0450   78.6440 O.2   125  ASP125     -0.2864
     38  CB        61.2290  119.5230   79.1190 C.3   125  ASP125      0.1436
     39  CG        61.2540  118.1040   78.5790 C.2   125  ASP125      0.3671
     40  OD1       61.0320  117.9270   77.3620 O.co2 125  ASP125     -0.2456
     41  OD2       61.4930  117.1650   79.3710 O.co2 125  ASP125     -0.2456
     42  N         54.0120  119.4670   66.8790 N.3   213  ARG213     -0.1231
     43  CA        53.4810  118.2930   67.5600 C.3   213  ARG213      0.1694
     44  C         53.0630  117.2490   66.5380 C.2   213  ARG213      0.2592
     45  O         52.5330  117.5830   65.4750 O.2   213  ARG213     -0.2718
     46  CB        52.2890  118.6630   68.4460 C.3   213  ARG213      0.0321
     47  CG        51.8200  117.5350   69.3400 C.3   213  ARG213      0.0489
     48  CD        50.3790  117.7350   69.7460 C.3   213  ARG213      0.2205
     49  NE        49.9600  116.7670   70.7540 N.pl3 213  ARG213     -0.0865
     50  CZ        48.6980  116.5540   71.1110 C.cat 213  ARG213      0.5346
     51  NH1       47.7130  117.2320   70.5390 N.pl3 213  ARG213      0.1354
     52  NH2       48.4210  115.6520   72.0400 N.pl3 213  ARG213      0.1354
     53  N         53.3160  115.9860   66.8640 N.am  214  ASN214     -0.1960
     54  CA        52.8770  114.8720   66.0340 C.3   214  ASN214      0.1819
     55  C         52.4160  113.7320   66.9360 C.2   214  ASN214      0.2621
     56  O         52.4240  113.8720   68.1570 O.2   214  ASN214     -0.2715
     57  CB        53.9770  114.4330   65.0530 C.3   214  ASN214      0.1195
     58  CG        55.0990  113.6680   65.7190 C.2   214  ASN214      0.2630
     59  OD1       55.3470  112.5070   65.3920 O.2   214  ASN214     -0.2716
     60  ND2       55.8010  114.3180   66.6380 N.am  214  ASN214     -0.0877
     61  N         52.0060  112.6140   66.3440 N.am  215  ARG215     -0.1963
     62  CA        51.3440  111.5560   67.1070 C.3   215  ARG215      0.1729
     63  C         52.2980  110.5240   67.7090 C.2   215  ARG215      0.2616
     64  O         52.2030  110.2140   68.8950 O.2   215  ARG215     -0.2715
     65  CB        50.2990  110.8460   66.2400 C.3   215  ARG215      0.0348
     66  CG        49.5410  109.7470   66.9800 C.3   215  ARG215      0.0492
     67  CD        48.4200  109.1540   66.1420 C.3   215  ARG215      0.2205
     68  NE        47.2150  109.9880   66.1480 N.pl3 215  ARG215     -0.0865
     69  CZ        46.6500  110.5300   65.0700 C.cat 215  ARG215      0.5346
     70  NH1       47.1620  110.3470   63.8570 N.pl3 215  ARG215      0.1354
     71  NH2       45.5560  111.2660   65.2040 N.pl3 215  ARG215      0.1354
     72  N         53.2040  109.9850   66.8990 N.am  216  ASP216     -0.1957
     73  CA        54.0430  108.8750   67.3440 C.3   216  ASP216      0.1840
     74  C         55.4220  109.3340   67.8180 C.2   216  ASP216      0.2622
     75  O         55.9990  110.2800   67.2750 O.2   216  ASP216     -0.2715
     76  CB        54.1700  107.8210   66.2380 C.3   216  ASP216      0.1450
     77  CG        55.1070  108.2460   65.1250 C.2   216  ASP216      0.3671
     78  OD1       55.2380  109.4660   64.8770 O.co2 216  ASP216     -0.2456
     79  OD2       55.7120  107.3500   64.4970 O.co2 216  ASP216     -0.2456
     80  N         55.9420  108.6350   68.8260 N.am  217  ALA217     -0.1964
     81  CA        57.1730  109.0230   69.5150 C.3   217  ALA217      0.1713
     82  C         58.4070  109.0630   68.6140 C.2   217  ALA217      0.2458
     83  O         59.1880  110.0100   68.6790 O.2   217  ALA217     -0.2730
     84  CB        57.4220  108.0930   70.6940 C.3   217  ALA217      0.0333
     85  N         58.6080  108.0280   67.7860 N.am  218  PRO218     -0.2716
     86  CA        59.7590  108.1030   66.8830 C.3   218  PRO218      0.1536
     87  C         59.6120  109.2900   65.9380 C.2   218  PRO218      0.2598
     88  O         58.4900  109.6160   65.5520 O.2   218  PRO218     -0.2715
     89  CB        59.6860  106.7860   66.1040 C.3   218  PRO218      0.0310
     90  CG        58.8110  105.8930   66.9130 C.3   218  PRO218      0.0237
     91  CD        57.8320  106.7930   67.5880 C.3   218  PRO218      0.0939
     92  N         60.7200  109.9250   65.5730 N.am  219  GLU219     -0.1978
     93  CA        60.6650  111.1210   64.7400 C.3   219  GLU219      0.1602
     94  C         61.4400  110.9310   63.4360 C.2   219  GLU219      0.2287
     95  O         62.2080  109.9810   63.2900 O.2   219  GLU219     -0.2864
     96  CB        61.2060  112.3270   65.5160 C.3   219  GLU219      0.0415
     97  CG        60.6400  112.4820   66.9260 C.3   219  GLU219      0.1163
     98  CD        59.1380  112.7590   66.9570 C.2   219  GLU219      0.3649
     99  OE1       58.4420  112.4810   65.9540 O.co2 219  GLU219     -0.2457
    100  OE2       58.6510  113.2550   67.9970 O.co2 219  GLU219     -0.2457
    101  N         65.3600  113.8060   71.7880 N.3   250  ASP250     -0.1239
    102  CA        65.0560  113.2000   73.0780 C.3   250  ASP250      0.1674
    103  C         64.2920  111.8900   72.9200 C.2   250  ASP250      0.2266
    104  O         63.7740  111.3500   73.8970 O.2   250  ASP250     -0.2867
    105  CB        64.2040  114.1550   73.9100 C.3   250  ASP250      0.1410
    106  CG        62.7770  114.2640   73.3930 C.2   250  ASP250      0.3668
    107  OD1       62.5700  114.1310   72.1690 O.co2 250  ASP250     -0.2456
    108  OD2       61.8580  114.4760   74.2090 O.co2 250  ASP250     -0.2456
@<TRIPOS>BOND
     1    95    94    2
     2    94    93    1
     3    70    69    1
     4    79    77   ar
     5    93    96    1
     6    93    92    1
     7    78    77   ar
     8    57    58    1
     9    57    54    1
    10    69    71    1
    11    69    68    2
    12    77    76    1
    13    59    58    2
    14    45    44    2
    15    96    97    1
    16    88    87    2
    17    92    87   am
    18    58    60   am
    19    87    86    1
    20    99    98   ar
    21    54    53    1
    22    54    55    1
    23    89    86    1
    24    89    90    1
    25    67    68    1
    26    67    66    1
    27    76    73    1
    28    65    66    1
    29    65    62    1
    30    61    55   am
    31    61    62    1
    32    44    53   am
    33    44    43    1
    34    42    43    1
    35    86    85    1
    36    72    73    1
    37    72    63   am
    38    90    91    1
    39    97    98    1
    40    55    56    2
    41    98   100   ar
    42    62    63    1
    43    75    74    2
    44    73    74    1
    45    43    46    1
    46    91    85    1
    47    63    64    2
    48    85    82   am
    49     1     2    1
    50    74    80   am
    51     5     2    1
    52     5     6    1
    53     2     3    1
    54    46    47    1
    55    82    83    2
    56    82    81    1
    57    80    81    1
    58    47    48    1
    59     3     7   am
    60     3     4    2
    61    81    84    1
    62    48    49    1
    63     7     8    1
    64    51    50    1
    65    49    50    2
    66     8    11    1
    67     8     9    1
    68    50    52    1
    69    11    12    1
    70    24    23    1
    71   101   102    1
    72    13    12   ar
    73    13    15   ar
    74   107   106   ar
    75    19     9   am
    76    19    20    1
    77    12    14   ar
    78     9    10    2
    79   103   102    1
    80   103   104    2
    81    23    20    1
    82    15    17   ar
    83   102   105    1
    84    20    21    1
    85   106   105    1
    86   106   108   ar
    87    14    16   ar
    88    21    22    2
    89    17    16   ar
    90    17    18    1
    91    32    31    1
    92    32    33    1
    93    25    26    1
    94    30    31    1
    95    30    29    1
    96    26    29    1
    97    26    27    1
    98    27    28    2
    99    27    34   am
   100    34    35    1
   101    40    39   ar
   102    36    35    1
   103    36    37    2
   104    35    38    1
   105    39    38    1
   106    39    41   ar
