@<TRIPOS>MOLECULE
tmp/3ze0A00.pdb
 121 124 0 0 0
SMALL
GASTEIGER

@<TRIPOS>ATOM
      1  N         44.9580  107.2360   79.6100 N.3   159  ASP159     -0.1225
      2  CA        46.3860  107.1130   79.3360 C.3   159  ASP159      0.1805
      3  C         46.6610  106.3290   78.0550 C.2   159  ASP159      0.2598
      4  O         47.6820  105.6550   77.9360 O.2   159  ASP159     -0.2718
      5  CB        47.0870  106.4470   80.5200 C.3   159  ASP159      0.1424
      6  CG        46.5850  106.9650   81.8560 C.2   159  ASP159      0.3668
      7  OD1       46.8220  108.1540   82.1590 O.co2 159  ASP159     -0.2456
      8  OD2       45.9540  106.1860   82.6030 O.co2 159  ASP159     -0.2456
      9  N         45.7380  106.4240   77.1040 N.am  160  PHE160     -0.1962
     10  CA        45.9090  105.8220   75.7870 C.3   160  PHE160      0.1771
     11  C         46.1720  104.3230   75.8600 C.2   160  PHE160      0.2620
     12  O         47.0950  103.8110   75.2250 O.2   160  PHE160     -0.2715
     13  CB        47.0440  106.5130   75.0290 C.3   160  PHE160      0.0574
     14  CG        46.7420  107.9350   74.6590 C.ar  160  PHE160     -0.0200
     15  CD1       46.1250  108.2350   73.4570 C.ar  160  PHE160     -0.0042
     16  CD2       47.0700  108.9710   75.5150 C.ar  160  PHE160     -0.0042
     17  CE1       45.8430  109.5420   73.1160 C.ar  160  PHE160     -0.0003
     18  CE2       46.7890  110.2800   75.1790 C.ar  160  PHE160     -0.0003
     19  CZ        46.1750  110.5650   73.9780 C.ar  160  PHE160     -0.0000
     20  N         45.3530  103.6250   76.6370 N.am  161  SER161     -0.1936
     21  CA        45.4150  102.1730   76.6980 C.3   161  SER161      0.2055
     22  C         44.3750  101.5980   75.7470 C.2   161  SER161      0.2643
     23  O         43.3180  102.1910   75.5450 O.2   161  SER161     -0.2714
     24  CB        45.1480  101.6860   78.1200 C.3   161  SER161      0.2130
     25  OG        43.8160  101.9680   78.5100 O.3   161  SER161     -0.2179
     26  N         44.6800  100.4470   75.1580 N.am  162  TRP162     -0.1973
     27  CA        43.7590   99.7930   74.2380 C.3   162  TRP162      0.1640
     28  C         43.3050  100.7630   73.1500 C.2   162  TRP162      0.2290
     29  O         42.1420  100.7670   72.7450 O.2   162  TRP162     -0.2864
     30  CB        42.5600   99.2330   75.0060 C.3   162  TRP162      0.0576
     31  CG        42.9760   98.3610   76.1520 C.ar  162  TRP162      0.0006
     32  CD1       43.0790   98.7240   77.4630 C.ar  162  TRP162      0.0946
     33  CD2       43.3670   96.9840   76.0860 C.ar  162  TRP162      0.0152
     34  NE1       43.5020   97.6570   78.2180 N.ar  162  TRP162     -0.2442
     35  CE2       43.6860   96.5770   77.3960 C.ar  162  TRP162      0.0810
     36  CE3       43.4740   96.0550   75.0470 C.ar  162  TRP162      0.0012
     37  CZ2       44.1050   95.2830   77.6940 C.ar  162  TRP162      0.0191
     38  CZ3       43.8880   94.7720   75.3460 C.ar  162  TRP162      0.0001
     39  CH2       44.2010   94.3980   76.6570 C.ar  162  TRP162      0.0015
     40  N         47.1490   99.6220   69.1820 N.3   189  TYR189     -0.1227
     41  CA        47.5970   99.9340   70.5340 C.3   189  TYR189      0.1736
     42  C         48.7440  100.9380   70.5180 C.2   189  TYR189      0.2595
     43  O         49.8060  100.6930   71.0900 O.2   189  TYR189     -0.2718
     44  CB        48.0310   98.6540   71.2470 C.3   189  TYR189      0.0548
     45  CG        46.9310   97.6250   71.3600 C.ar  189  TYR189     -0.0200
     46  CD1       45.6150   98.0090   71.5850 C.ar  189  TYR189     -0.0009
     47  CD2       47.2050   96.2710   71.2330 C.ar  189  TYR189     -0.0009
     48  CE1       44.6080   97.0750   71.6860 C.ar  189  TYR189      0.0417
     49  CE2       46.2020   95.3280   71.3320 C.ar  189  TYR189      0.0417
     50  CZ        44.9050   95.7360   71.5580 C.ar  189  TYR189      0.1957
     51  OH        43.9010   94.8030   71.6570 O.3   189  TYR189     -0.2866
     52  N         48.5150  102.0710   69.8650 N.am  190  TYR190     -0.1962
     53  CA        49.5250  103.1150   69.7350 C.3   190  TYR190      0.1771
     54  C         50.8500  102.5640   69.2060 C.2   190  TYR190      0.2620
     55  O         51.9090  102.7860   69.7920 O.2   190  TYR190     -0.2715
     56  CB        49.7370  103.8330   71.0690 C.3   190  TYR190      0.0574
     57  CG        49.7960  105.3380   70.9320 C.ar  190  TYR190     -0.0198
     58  CD1       50.9800  105.9800   70.5970 C.ar  190  TYR190     -0.0009
     59  CD2       48.6620  106.1170   71.1270 C.ar  190  TYR190     -0.0009
     60  CE1       51.0360  107.3550   70.4650 C.ar  190  TYR190      0.0417
     61  CE2       48.7080  107.4900   70.9970 C.ar  190  TYR190      0.0417
     62  CZ        49.8970  108.1050   70.6660 C.ar  190  TYR190      0.1957
     63  OH        49.9480  109.4740   70.5360 O.3   190  TYR190     -0.2866
     64  N         50.7680  101.8370   68.0960 N.am  191  PHE191     -0.1960
     65  CA        51.9460  101.4050   67.3470 C.3   191  PHE191      0.1771
     66  C         52.7440  100.2870   68.0160 C.2   191  PHE191      0.2619
     67  O         53.9090  100.0720   67.6910 O.2   191  PHE191     -0.2715
     68  CB        52.8440  102.6050   67.0460 C.3   191  PHE191      0.0574
     69  CG        52.1320  103.7160   66.3350 C.ar  191  PHE191     -0.0200
     70  CD1       51.8510  103.6200   64.9830 C.ar  191  PHE191     -0.0042
     71  CD2       51.7260  104.8480   67.0210 C.ar  191  PHE191     -0.0042
     72  CE1       51.1860  104.6350   64.3250 C.ar  191  PHE191     -0.0003
     73  CE2       51.0610  105.8680   66.3680 C.ar  191  PHE191     -0.0003
     74  CZ        50.7910  105.7600   65.0190 C.ar  191  PHE191     -0.0000
     75  N         52.1180   99.5700   68.9420 N.am  192  LEU192     -0.1977
     76  CA        52.6830   98.3160   69.4200 C.3   192  LEU192      0.1596
     77  C         52.4380   97.2560   68.3620 C.2   192  LEU192      0.2287
     78  O         53.3150   96.4530   68.0490 O.2   192  LEU192     -0.2864
     79  CB        52.0350   97.8780   70.7320 C.3   192  LEU192      0.0297
     80  CG        52.8330   98.1880   71.9940 C.3   192  LEU192      0.0022
     81  CD1       52.7990   99.6790   72.2820 C.3   192  LEU192      0.0001
     82  CD2       52.3010   97.3930   73.1720 C.3   192  LEU192      0.0001
     83  N         47.1590   94.5240   74.5110 N.3   224  ASP224     -0.1225
     84  CA        47.9980   95.6960   74.6780 C.3   224  ASP224      0.1805
     85  C         49.0880   95.3660   75.6900 C.2   224  ASP224      0.2598
     86  O         49.0270   94.3330   76.3550 O.2   224  ASP224     -0.2718
     87  CB        47.1430   96.8690   75.1640 C.3   224  ASP224      0.1424
     88  CG        47.8830   98.1900   75.1350 C.2   224  ASP224      0.3668
     89  OD1       48.9020   98.2960   74.4190 O.co2 224  ASP224     -0.2456
     90  OD2       47.4330   99.1290   75.8260 O.co2 224  ASP224     -0.2456
     91  N         50.0900   96.2320   75.7990 N.am  225  SER225     -0.1938
     92  CA        51.1910   96.0050   76.7280 C.3   225  SER225      0.2055
     93  C         51.7610   97.3140   77.2490 C.2   225  SER225      0.2643
     94  O         51.6410   98.3580   76.6070 O.2   225  SER225     -0.2714
     95  CB        52.3010   95.1950   76.0550 C.3   225  SER225      0.2130
     96  OG        53.5000   95.2510   76.8110 O.3   225  SER225     -0.2179
     97  N         52.3870   97.2430   78.4190 N.am  226  SER226     -0.1949
     98  CA        53.0230   98.4010   79.0320 C.3   226  SER226      0.1924
     99  C         54.5410   98.3090   78.9040 C.2   226  SER226      0.2314
    100  O         55.2620   99.2190   79.3110 O.2   226  SER226     -0.2863
    101  CB        52.6270   98.5010   80.5060 C.3   226  SER226      0.2116
    102  OG        52.8900   97.2850   81.1870 O.3   226  SER226     -0.2180
    103  N         57.0690   98.8160   72.2710 N.3   231  PHE231     -0.1227
    104  CA        56.7000  100.1170   71.7200 C.3   231  PHE231      0.1736
    105  C         57.2400  100.3220   70.3110 C.2   231  PHE231      0.2595
    106  O         58.4320  100.1460   70.0590 O.2   231  PHE231     -0.2718
    107  CB        57.1940  101.2430   72.6280 C.3   231  PHE231      0.0547
    108  CG        56.4810  101.3170   73.9500 C.ar  231  PHE231     -0.0202
    109  CD1       55.5630  100.3460   74.3210 C.ar  231  PHE231     -0.0042
    110  CD2       56.7220  102.3670   74.8180 C.ar  231  PHE231     -0.0042
    111  CE1       54.9080  100.4180   75.5350 C.ar  231  PHE231     -0.0003
    112  CE2       56.0680  102.4440   76.0310 C.ar  231  PHE231     -0.0003
    113  CZ        55.1610  101.4680   76.3900 C.ar  231  PHE231     -0.0000
    114  N         56.3480  100.6980   69.4000 N.am  232  ASP232     -0.1974
    115  CA        56.7180  100.9640   68.0140 C.3   232  ASP232      0.1709
    116  C         57.4120   99.7580   67.3900 C.2   232  ASP232      0.2293
    117  O         58.3710   99.9030   66.6330 O.2   232  ASP232     -0.2864
    118  CB        57.6160  102.1980   67.9370 C.3   232  ASP232      0.1436
    119  CG        57.0590  103.3690   68.7240 C.2   232  ASP232      0.3671
    120  OD1       56.0430  103.9490   68.2870 O.co2 232  ASP232     -0.2456
    121  OD2       57.6350  103.7080   69.7790 O.co2 232  ASP232     -0.2456
@<TRIPOS>BOND
     1    72    70   ar
     2    72    74   ar
     3    70    69   ar
     4    74    73   ar
     5    69    71   ar
     6    69    68    1
     7    73    71   ar
     8   117   116    2
     9    68    65    1
    10    65    66    1
    11    65    64    1
    12   116   115    1
    13    67    66    2
    14   118   115    1
    15   118   119    1
    16   115   114    1
    17    66    75   am
    18    78    77    2
    19    64    54   am
    20   120   119   ar
    21    77    76    1
    22   119   121   ar
    23    75    76    1
    24    40    41    1
    25    54    53    1
    26    54    55    2
    27   114   105   am
    28    76    79    1
    29    53    52    1
    30    53    56    1
    31    52    42   am
    32   106   105    2
    33   105   104    1
    34    60    58   ar
    35    60    62   ar
    36    42    41    1
    37    42    43    2
    38    41    44    1
    39    63    62    1
    40    58    57   ar
    41    62    61   ar
    42    79    80    1
    43    57    56    1
    44    57    59   ar
    45    61    59   ar
    46    47    49   ar
    47    47    45   ar
    48    44    45    1
    49    49    50   ar
    50    45    46   ar
    51    50    51    1
    52    50    48   ar
    53    46    48   ar
    54   104   103    1
    55   104   107    1
    56    80    81    1
    57    80    82    1
    58   107   108    1
    59    29    28    2
    60    17    15   ar
    61    17    19   ar
    62    28    27    1
    63    15    14   ar
    64   108   109   ar
    65   108   110   ar
    66    19    18   ar
    67    27    30    1
    68    27    26    1
    69   109   111   ar
    70    89    88   ar
    71    83    84    1
    72    14    13    1
    73    14    16   ar
    74    84    87    1
    75    84    85    1
    76   110   112   ar
    77    30    31    1
    78    13    10    1
    79    36    38   ar
    80    36    33   ar
    81    88    87    1
    82    88    90   ar
    83    26    22   am
    84    18    16   ar
    85    12    11    2
    86    38    39   ar
    87   111   113   ar
    88    23    22    2
    89    85    91   am
    90    85    86    2
    91    22    21    1
    92    10    11    1
    93    10     9    1
    94    91    92    1
    95    11    20   am
    96   112   113   ar
    97    95    92    1
    98    95    96    1
    99    33    31   ar
   100    33    35   ar
   101    31    32   ar
   102    94    93    2
   103    20    21    1
   104    39    37   ar
   105    21    24    1
   106    92    93    1
   107     9     3   am
   108    93    97   am
   109    35    37   ar
   110    35    34   ar
   111    32    34   ar
   112     4     3    2
   113     3     2    1
   114    24    25    1
   115    97    98    1
   116    99    98    1
   117    99   100    2
   118    98   101    1
   119     2     1    1
   120     2     5    1
   121   101   102    1
   122     5     6    1
   123     6     7   ar
   124     6     8   ar
