@<TRIPOS>MOLECULE
tmp/3ze8A02.pdb
 107 98 0 0 0
SMALL
GASTEIGER

@<TRIPOS>ATOM
      1  N         -6.0440  -27.2150   48.7080 N.3     2  PRO2       -0.2116
      2  CA        -5.9690  -28.1910   47.6160 C.3     2  PRO2        0.1372
      3  C         -6.1340  -27.5640   46.2380 C.2     2  PRO2        0.2244
      4  O         -6.9680  -26.6820   46.0480 O.2     2  PRO2       -0.2868
      5  CB        -7.1500  -29.1240   47.9000 C.3     2  PRO2        0.0268
      6  CG        -7.3790  -29.0070   49.3600 C.3     2  PRO2        0.0207
      7  CD        -7.0760  -27.5750   49.6950 C.3     2  PRO2        0.0892
      8  N         -7.2740  -27.4670   42.2780 N.3     4  VAL4       -0.1245
      9  CA        -8.3000  -27.9800   41.3910 C.3     4  VAL4        0.1561
     10  C         -7.8020  -27.8220   39.9600 C.2     4  VAL4        0.2260
     11  O         -7.3160  -26.7470   39.5880 O.2     4  VAL4       -0.2867
     12  CB        -9.6120  -27.1930   41.5690 C.3     4  VAL4        0.0252
     13  CG1      -10.5780  -27.4750   40.4350 C.3     4  VAL4        0.0019
     14  CG2      -10.2330  -27.4980   42.9310 C.3     4  VAL4        0.0019
     15  N        -14.2310  -19.7370   48.1730 N.3    30  VAL30      -0.1245
     16  CA       -13.8350  -21.0380   47.6470 C.3    30  VAL30       0.1561
     17  C        -12.6220  -20.9140   46.7180 C.2    30  VAL30       0.2260
     18  O        -11.6910  -21.7140   46.8000 O.2    30  VAL30      -0.2867
     19  CB       -15.0090  -21.7290   46.9060 C.3    30  VAL30       0.0252
     20  CG1      -14.5330  -22.9640   46.1570 C.3    30  VAL30       0.0019
     21  CG2      -16.1110  -22.0940   47.8830 C.3    30  VAL30       0.0019
     22  N         -9.9180  -21.3790   49.9710 N.3    34  VAL34      -0.1231
     23  CA       -10.1870  -22.7840   50.2660 C.3    34  VAL34       0.1692
     24  C         -9.4880  -23.7190   49.2820 C.2    34  VAL34       0.2591
     25  O         -8.8000  -24.6590   49.6820 O.2    34  VAL34      -0.2718
     26  CB       -11.6980  -23.0780   50.2660 C.3    34  VAL34       0.0266
     27  CG1      -11.9460  -24.5590   50.4870 C.3    34  VAL34       0.0020
     28  CG2      -12.4010  -22.2420   51.3300 C.3    34  VAL34       0.0020
     29  N         -9.6810  -23.4640   47.9950 N.am   35  ILE35      -0.1980
     30  CA        -8.9700  -24.2120   46.9670 C.3    35  ILE35       0.1595
     31  C         -8.2060  -23.2630   46.0610 C.2    35  ILE35       0.2287
     32  O         -8.3230  -22.0410   46.1840 O.2    35  ILE35      -0.2864
     33  CB        -9.8980  -25.1600   46.1410 C.3    35  ILE35       0.0276
     34  CG1      -11.0930  -24.4140   45.5330 C.3    35  ILE35       0.0022
     35  CG2      -10.3730  -26.3280   47.0130 C.3    35  ILE35       0.0022
     36  CD1      -10.8220  -23.7290   44.2080 C.3    35  ILE35       0.0001
     37  N         -8.2330  -32.0570   43.2780 N.3    67  PHE67      -0.1241
     38  CA        -9.5550  -32.4050   42.7920 C.3    67  PHE67       0.1605
     39  C         -9.6140  -32.1390   41.3030 C.2    67  PHE67       0.2264
     40  O         -8.9700  -31.2070   40.8110 O.2    67  PHE67      -0.2867
     41  CB       -10.6280  -31.6140   43.5490 C.3    67  PHE67       0.0534
     42  CG       -10.7150  -31.9720   44.9940 C.ar   67  PHE67      -0.0203
     43  CD1       -9.9140  -31.3330   45.9290 C.ar   67  PHE67      -0.0042
     44  CD2      -11.5670  -32.9790   45.4220 C.ar   67  PHE67      -0.0042
     45  CE1       -9.9790  -31.6720   47.2640 C.ar   67  PHE67      -0.0003
     46  CE2      -11.6320  -33.3290   46.7600 C.ar   67  PHE67      -0.0003
     47  CZ       -10.8360  -32.6740   47.6840 C.ar   67  PHE67      -0.0000
     48  N        -12.2150  -31.3070   38.1310 N.3    69  VAL69      -0.1245
     49  CA       -13.5360  -30.9980   37.6170 C.3    69  VAL69       0.1561
     50  C        -13.4970  -31.3370   36.1310 C.2    69  VAL69       0.2260
     51  O        -12.5810  -30.9310   35.4160 O.2    69  VAL69      -0.2867
     52  CB       -13.9260  -29.5110   37.8210 C.3    69  VAL69       0.0252
     53  CG1      -15.1860  -29.1670   37.0200 C.3    69  VAL69       0.0019
     54  CG2      -14.1350  -29.2050   39.2990 C.3    69  VAL69       0.0019
     55  N        -15.2700  -34.3590   40.2190 N.3   110  LEU110     -0.1245
     56  CA       -16.6050  -33.8080   40.0310 C.3   110  LEU110      0.1561
     57  C        -16.9340  -33.8270   38.5500 C.2   110  LEU110      0.2260
     58  O        -16.2750  -33.1530   37.7590 O.2   110  LEU110     -0.2867
     59  CB       -16.6760  -32.3650   40.5310 C.3   110  LEU110      0.0270
     60  CG       -16.4610  -32.0990   42.0190 C.3   110  LEU110      0.0019
     61  CD1      -16.8710  -30.6720   42.3610 C.3   110  LEU110      0.0001
     62  CD2      -17.2240  -33.1040   42.8580 C.3   110  LEU110      0.0001
     63  N        -19.8490  -28.4340   46.4450 N.3   164  VAL164     -0.1245
     64  CA       -18.5520  -28.1170   47.0410 C.3   164  VAL164      0.1561
     65  C        -18.6810  -27.8000   48.5400 C.2   164  VAL164      0.2260
     66  O        -17.8670  -28.2500   49.3550 O.2   164  VAL164     -0.2867
     67  CB       -17.8800  -26.9420   46.3030 C.3   164  VAL164      0.0252
     68  CG1      -16.6610  -26.4400   47.0820 C.3   164  VAL164      0.0019
     69  CG2      -17.5150  -27.3570   44.8730 C.3   164  VAL164      0.0019
     70  N        -19.2590  -30.9700   50.5020 N.3   167  ALA167     -0.1231
     71  CA       -17.9990  -31.6890   50.6310 C.3   167  ALA167      0.1694
     72  C        -17.1320  -31.0200   51.6960 C.2   167  ALA167      0.2591
     73  O        -16.5500  -31.6920   52.5550 O.2   167  ALA167     -0.2718
     74  CB       -17.2730  -31.7280   49.2860 C.3   167  ALA167      0.0304
     75  N        -17.0610  -29.6920   51.6330 N.am  168  LEU168     -0.1980
     76  CA       -16.2580  -28.9060   52.5720 C.3   168  LEU168      0.1596
     77  C        -16.6020  -29.2070   54.0150 C.2   168  LEU168      0.2287
     78  O        -15.7220  -29.4900   54.8300 O.2   168  LEU168     -0.2864
     79  CB       -16.4480  -27.4090   52.3100 C.3   168  LEU168      0.0297
     80  CG       -15.5460  -26.8380   51.2230 C.3   168  LEU168      0.0022
     81  CD1      -15.7100  -25.3350   51.1240 C.3   168  LEU168      0.0001
     82  CD2      -14.1210  -27.1860   51.5760 C.3   168  LEU168      0.0001
     83  N        -15.7270  -32.9380   54.8920 N.3   171  ILE171     -0.1231
     84  CA       -14.2890  -33.1710   55.0190 C.3   171  ILE171      0.1692
     85  C        -13.7250  -32.5040   56.2760 C.2   171  ILE171      0.2591
     86  O        -12.8140  -33.0340   56.9240 O.2   171  ILE171     -0.2718
     87  CB       -13.5330  -32.7090   53.7540 C.3   171  ILE171      0.0266
     88  CG1      -13.8930  -33.6120   52.5770 C.3   171  ILE171      0.0019
     89  CG2      -12.0250  -32.7220   53.9810 C.3   171  ILE171      0.0020
     90  CD1      -13.3390  -33.1390   51.2460 C.3   171  ILE171      0.0001
     91  N        -14.2830  -31.3550   56.6420 N.am  172  LYS172     -0.1980
     92  CA       -13.8730  -30.7030   57.8830 C.3   172  LYS172      0.1596
     93  C        -14.2320  -31.5620   59.0940 C.2   172  LYS172      0.2287
     94  O        -13.4530  -31.6640   60.0480 O.2   172  LYS172     -0.2864
     95  CB       -14.4870  -29.3060   58.0060 C.3   172  LYS172      0.0298
     96  CG       -13.9260  -28.3030   57.0020 C.3   172  LYS172      0.0038
     97  CD       -14.6430  -26.9620   57.0730 C.3   172  LYS172      0.0206
     98  CE       -14.1880  -26.0360   55.9500 C.3   172  LYS172      0.1093
     99  NZ       -12.7050  -25.8740   55.9280 N.3   172  LYS172     -0.1314
    100  N        -10.4650  -36.2230   55.0010 N.3   176  LEU176     -0.1245
    101  CA       -10.6310  -36.4100   53.5590 C.3   176  LEU176      0.1561
    102  C        -11.3830  -37.6980   53.2340 C.2   176  LEU176      0.2260
    103  O        -12.4630  -37.6570   52.6400 O.2   176  LEU176     -0.2867
    104  CB        -9.2750  -36.3960   52.8420 C.3   176  LEU176      0.0270
    105  CG        -9.3420  -36.4150   51.3090 C.3   176  LEU176      0.0019
    106  CD1      -10.1540  -35.2300   50.7930 C.3   176  LEU176      0.0001
    107  CD2       -7.9520  -36.4280   50.6820 C.3   176  LEU176      0.0001
@<TRIPOS>BOND
     1    51    50    2
     2    50    49    1
     3    53    52    1
     4    49    52    1
     5    49    48    1
     6    58    57    2
     7    52    54    1
     8    57    56    1
     9    11    10    2
    10    10     9    1
    11    56    55    1
    12    56    59    1
    13    13    12    1
    14    59    60    1
    15    40    39    2
    16    39    38    1
    17     9    12    1
    18     9     8    1
    19    12    14    1
    20    60    61    1
    21    60    62    1
    22    38    37    1
    23    38    41    1
    24    41    42    1
    25    36    34    1
    26    69    67    1
    27    42    44   ar
    28    42    43   ar
    29    44    46   ar
    30    34    33    1
    31    43    45   ar
    32     4     3    2
    33    31    32    2
    34    31    30    1
    35    33    30    1
    36    33    35    1
    37    20    19    1
    38     3     2    1
    39    67    64    1
    40    67    68    1
    41    63    64    1
    42    17    18    2
    43    17    16    1
    44    46    47   ar
    45    19    16    1
    46    19    21    1
    47    30    29    1
    48    64    65    1
    49    45    47   ar
    50     2     5    1
    51     2     1    1
    52    16    15    1
    53     5     6    1
    54    29    24   am
    55    65    66    2
    56     1     7    1
    57    24    25    2
    58    24    23    1
    59    74    71    1
    60     6     7    1
    61    22    23    1
    62    26    23    1
    63    26    27    1
    64    26    28    1
    65    70    71    1
    66    71    72    1
    67   107   105    1
    68   106   105    1
    69    81    80    1
    70    80    82    1
    71    80    79    1
    72    90    88    1
    73   105   104    1
    74    75    72   am
    75    75    76    1
    76    72    73    2
    77    79    76    1
    78    76    77    1
    79    88    87    1
    80   103   102    2
    81   104   101    1
    82   102   101    1
    83   101   100    1
    84    87    89    1
    85    87    84    1
    86    77    78    2
    87    83    84    1
    88    84    85    1
    89    99    98    1
    90    98    97    1
    91    85    91   am
    92    85    86    2
    93    91    92    1
    94    96    97    1
    95    96    95    1
    96    92    95    1
    97    92    93    1
    98    93    94    2
