@<TRIPOS>MOLECULE
tmp/3ze8B01.pdb
 89 84 0 0 0
SMALL
GASTEIGER

@<TRIPOS>ATOM
      1  N         -7.8750   -9.6180   28.8170 N.3   112  ALA112     -0.1231
      2  CA        -7.2120   -8.5450   29.5690 C.3   112  ALA112      0.1694
      3  C         -5.8540   -8.9500   30.1450 C.2   112  ALA112      0.2591
      4  O         -4.9320   -8.1360   30.1990 O.2   112  ALA112     -0.2718
      5  CB        -8.1350   -7.9660   30.6670 C.3   112  ALA112      0.0304
      6  N         -5.7200  -10.2090   30.5490 N.am  113  GLN113     -0.1979
      7  CA        -4.4320  -10.6840   31.0530 C.3   113  GLN113      0.1601
      8  C         -3.3180  -10.6370   30.0040 C.2   113  GLN113      0.2287
      9  O         -2.1460  -10.7700   30.3510 O.2   113  GLN113     -0.2864
     10  CB        -4.5500  -12.0870   31.6440 C.3   113  GLN113      0.0394
     11  CG        -5.2830  -12.1220   32.9730 C.3   113  GLN113      0.0908
     12  CD        -5.1920  -13.4830   33.6330 C.2   113  GLN113      0.2608
     13  OE1       -4.1390  -13.8670   34.1360 O.2   113  GLN113     -0.2717
     14  NE2       -6.2910  -14.2300   33.6130 N.am  113  GLN113     -0.0878
     15  N         -2.5980   -6.9710   31.1820 N.3   116  VAL116     -0.1245
     16  CA        -2.6810   -6.6270   32.5950 C.3   116  VAL116      0.1561
     17  C         -2.1220   -7.7550   33.4440 C.2   116  VAL116      0.2260
     18  O         -2.4710   -8.9140   33.2450 O.2   116  VAL116     -0.2867
     19  CB        -4.1460   -6.3980   33.0280 C.3   116  VAL116      0.0252
     20  CG1       -4.2330   -6.1500   34.5370 C.3   116  VAL116      0.0019
     21  CG2       -4.7720   -5.2480   32.2380 C.3   116  VAL116      0.0019
     22  N         -2.0250   -9.9590   36.6500 N.3   118  GLY118     -0.1210
     23  CA        -2.8650  -10.3800   37.7630 C.3   118  GLY118      0.1940
     24  C         -2.0530  -10.5600   39.0400 C.2   118  GLY118      0.2453
     25  O         -0.8250  -10.5770   39.0040 O.2   118  GLY118     -0.2732
     26  N         -2.7360  -10.6920   40.1840 N.am  119  PRO119     -0.2728
     27  CA        -2.0780  -10.9210   41.4760 C.3   119  PRO119      0.1401
     28  C         -1.4240  -12.3060   41.5770 C.2   119  PRO119      0.2269
     29  O         -1.6020  -13.1680   40.7040 O.2   119  PRO119     -0.2865
     30  CB        -3.2330  -10.8180   42.4740 C.3   119  PRO119      0.0296
     31  CG        -4.4380  -11.2320   41.6800 C.3   119  PRO119      0.0237
     32  CD        -4.2020  -10.6510   40.3120 C.3   119  PRO119      0.0939
     33  N         -1.7830  -15.2670   42.6570 N.3   121  THR121     -0.1218
     34  CA        -2.6580  -16.3720   43.0450 C.3   121  THR121      0.1862
     35  C         -3.2180  -17.0310   41.7900 C.2   121  THR121      0.2287
     36  O         -3.4670  -16.3580   40.7870 O.2   121  THR121     -0.2866
     37  CB        -3.8310  -15.9160   43.9510 C.3   121  THR121      0.1770
     38  OG1       -4.6510  -17.0460   44.2850 O.3   121  THR121     -0.2211
     39  CG2       -4.6930  -14.8880   43.2410 C.3   121  THR121      0.0375
     40  N         -3.9410  -16.7530   38.0410 N.3   124  PHE124     -0.1241
     41  CA        -3.3170  -15.6050   37.3800 C.3   124  PHE124      0.1605
     42  C         -1.7980  -15.7560   37.3060 C.2   124  PHE124      0.2264
     43  O         -1.1060  -14.9580   36.6690 O.2   124  PHE124     -0.2867
     44  CB        -3.7340  -14.3060   38.0750 C.3   124  PHE124      0.0534
     45  CG        -5.2180  -14.1810   38.2250 C.ar  124  PHE124     -0.0203
     46  CD1       -6.0120  -13.9020   37.1210 C.ar  124  PHE124     -0.0042
     47  CD2       -5.8270  -14.3650   39.4520 C.ar  124  PHE124     -0.0042
     48  CE1       -7.3840  -13.8030   37.2350 C.ar  124  PHE124     -0.0003
     49  CE2       -7.2040  -14.2600   39.5740 C.ar  124  PHE124     -0.0003
     50  CZ        -7.9810  -13.9800   38.4650 C.ar  124  PHE124     -0.0000
     51  N         -7.2530   -1.9740   35.2950 N.3   143  GLY143     -0.1210
     52  CA        -7.5650   -3.2160   34.6040 C.3   143  GLY143      0.1956
     53  C         -8.0600   -4.3100   35.5470 C.2   143  GLY143      0.2611
     54  O         -9.0610   -4.9900   35.2690 O.2   143  GLY143     -0.2717
     55  N         -7.3460   -4.4920   36.6570 N.am  144  VAL144     -0.1979
     56  CA        -7.7240   -5.4850   37.6580 C.3   144  VAL144      0.1595
     57  C         -9.0880   -5.1680   38.2750 C.2   144  VAL144      0.2287
     58  O         -9.9440   -6.0480   38.3860 O.2   144  VAL144     -0.2864
     59  CB        -6.6480   -5.6220   38.7690 C.3   144  VAL144      0.0276
     60  CG1       -7.1160   -6.5830   39.8650 C.3   144  VAL144      0.0022
     61  CG2       -5.3190   -6.1050   38.1590 C.3   144  VAL144      0.0022
     62  N        -11.7950   -5.8430   35.6950 N.3   147  TYR147     -0.1227
     63  CA       -11.9830   -7.2910   35.5310 C.3   147  TYR147      0.1736
     64  C        -12.9280   -7.7900   36.6210 C.2   147  TYR147      0.2595
     65  O        -13.8510   -8.5520   36.3650 O.2   147  TYR147     -0.2718
     66  CB       -10.6280   -7.9880   35.6400 C.3   147  TYR147      0.0548
     67  CG       -10.6010   -9.5150   35.6080 C.ar  147  TYR147     -0.0200
     68  CD1      -11.0120  -10.2760   36.7020 C.ar  147  TYR147     -0.0009
     69  CD2      -10.0910  -10.1840   34.5070 C.ar  147  TYR147     -0.0009
     70  CE1      -10.9480  -11.6570   36.6820 C.ar  147  TYR147      0.0417
     71  CE2      -10.0180  -11.5690   34.4790 C.ar  147  TYR147      0.0417
     72  CZ       -10.4430  -12.2970   35.5680 C.ar  147  TYR147      0.1957
     73  OH       -10.3610  -13.6690   35.5310 O.3   147  TYR147     -0.2866
     74  N        -12.7040   -7.3310   37.8460 N.am  148  ILE148     -0.1980
     75  CA       -13.5270   -7.7710   38.9670 C.3   148  ILE148      0.1595
     76  C        -14.9620   -7.2660   38.8280 C.2   148  ILE148      0.2287
     77  O        -15.9140   -8.0270   38.9860 O.2   148  ILE148     -0.2864
     78  CB       -12.8910   -7.3510   40.3110 C.3   148  ILE148      0.0276
     79  CG1      -11.5960   -8.1500   40.5270 C.3   148  ILE148      0.0022
     80  CG2      -13.8580   -7.5830   41.4640 C.3   148  ILE148      0.0022
     81  CD1      -10.7020   -7.5890   41.6130 C.3   148  ILE148      0.0001
     82  N        -17.0690   -9.0610   36.2420 N.3   151  LEU151     -0.1245
     83  CA       -17.6900  -10.3130   36.6810 C.3   151  LEU151      0.1561
     84  C        -19.1540  -10.0850   37.0660 C.2   151  LEU151      0.2260
     85  O        -20.0320  -10.8920   36.7360 O.2   151  LEU151     -0.2867
     86  CB       -16.9240  -10.9440   37.8460 C.3   151  LEU151      0.0270
     87  CG       -15.5320  -11.5130   37.5470 C.3   151  LEU151      0.0019
     88  CD1      -14.8540  -11.9160   38.8500 C.3   151  LEU151      0.0001
     89  CD2      -15.5860  -12.6900   36.5790 C.3   151  LEU151      0.0001
@<TRIPOS>BOND
     1     1     2    1
     2     2     3    1
     3     2     5    1
     4     8     9    2
     5     8     7    1
     6     3     4    2
     7     3     6   am
     8     6     7    1
     9     7    10    1
    10    15    16    1
    11    10    11    1
    12    21    19    1
    13    16    19    1
    14    16    17    1
    15    11    12    1
    16    19    20    1
    17    18    17    2
    18    14    12   am
    19    12    13    2
    20    71    69   ar
    21    71    72   ar
    22    69    67   ar
    23    52    51    1
    24    52    53    1
    25    54    53    2
    26    73    72    1
    27    63    66    1
    28    63    62    1
    29    63    64    1
    30    53    55   am
    31    72    70   ar
    32    67    66    1
    33    67    68   ar
    34    82    83    1
    35    65    64    2
    36    89    87    1
    37    64    74   am
    38    22    23    1
    39    55    56    1
    40    43    42    2
    41    83    84    1
    42    83    86    1
    43    70    68   ar
    44    85    84    2
    45    46    48   ar
    46    46    45   ar
    47    48    50   ar
    48    42    41    1
    49    41    40    1
    50    41    44    1
    51    87    86    1
    52    87    88    1
    53    56    57    1
    54    56    59    1
    55    23    24    1
    56    74    75    1
    57    44    45    1
    58    61    59    1
    59    45    47   ar
    60    57    58    2
    61    50    49   ar
    62    59    60    1
    63    76    75    1
    64    76    77    2
    65    75    78    1
    66    25    24    2
    67    24    26   am
    68    47    49   ar
    69    26    32    1
    70    26    27    1
    71    78    79    1
    72    78    80    1
    73    32    31    1
    74    79    81    1
    75    29    28    2
    76    36    35    2
    77    27    28    1
    78    27    30    1
    79    31    30    1
    80    35    34    1
    81    33    34    1
    82    34    37    1
    83    39    37    1
    84    37    38    1
