@<TRIPOS>MOLECULE
tmp/3ze8B02.pdb
 97 91 0 0 0
SMALL
GASTEIGER

@<TRIPOS>ATOM
      1  N         -9.2770    1.7510   24.5310 N.3   211  TYR211     -0.1241
      2  CA        -8.4800    2.7870   23.8700 C.3   211  TYR211      0.1605
      3  C         -7.2270    3.1490   24.6750 C.2   211  TYR211      0.2264
      4  O         -6.1640    3.3900   24.1040 O.2   211  TYR211     -0.2867
      5  CB        -9.3030    4.0540   23.6290 C.3   211  TYR211      0.0534
      6  CG       -10.2440    3.9680   22.4490 C.ar  211  TYR211     -0.0201
      7  CD1       -9.7860    4.1870   21.1570 C.ar  211  TYR211     -0.0009
      8  CD2      -11.5910    3.6710   22.6290 C.ar  211  TYR211     -0.0009
      9  CE1      -10.6430    4.1140   20.0740 C.ar  211  TYR211      0.0417
     10  CE2      -12.4590    3.6000   21.5470 C.ar  211  TYR211      0.0417
     11  CZ       -11.9780    3.8290   20.2760 C.ar  211  TYR211      0.1957
     12  OH       -12.8300    3.7660   19.1980 O.3   211  TYR211     -0.2866
     13  N          0.6880    0.8410   20.7310 N.3   218  LYS218     -0.1245
     14  CA         0.3950    1.3250   19.3850 C.3   218  LYS218      0.1561
     15  C          1.0110    0.4220   18.3270 C.2   218  LYS218      0.2260
     16  O          0.5280    0.3640   17.1880 O.2   218  LYS218     -0.2867
     17  CB         0.8330    2.7860   19.2170 C.3   218  LYS218      0.0271
     18  CG         0.0010    3.7410   20.0840 C.3   218  LYS218      0.0035
     19  CD         0.2710    5.2110   19.7600 C.3   218  LYS218      0.0206
     20  CE        -0.5490    6.1390   20.6550 C.3   218  LYS218      0.1093
     21  NZ        -0.2300    7.5830   20.3760 N.3   218  LYS218     -0.1314
     22  N         -1.2350   -2.0610   16.5030 N.3   221  PHE221     -0.1227
     23  CA        -2.1080   -1.6600   15.4010 C.3   221  PHE221      0.1736
     24  C         -1.4070   -1.8470   14.0520 C.2   221  PHE221      0.2595
     25  O         -1.9890   -1.5730   13.0010 O.2   221  PHE221     -0.2718
     26  CB        -2.5500   -0.1940   15.5440 C.3   221  PHE221      0.0547
     27  CG        -3.5390    0.0490   16.6510 C.ar  221  PHE221     -0.0202
     28  CD1       -4.8950   -0.1280   16.4380 C.ar  221  PHE221     -0.0042
     29  CD2       -3.1130    0.4810   17.8980 C.ar  221  PHE221     -0.0042
     30  CE1       -5.8090    0.1120   17.4570 C.ar  221  PHE221     -0.0003
     31  CE2       -4.0180    0.7280   18.9130 C.ar  221  PHE221     -0.0003
     32  CZ        -5.3700    0.5490   18.6870 C.ar  221  PHE221     -0.0000
     33  N         -0.1530   -2.2920   14.0810 N.am  222  LYS222     -0.1980
     34  CA         0.6550   -2.3650   12.8650 C.3   222  LYS222      0.1596
     35  C          0.8770   -3.7960   12.3910 C.2   222  LYS222      0.2287
     36  O          1.6060   -4.0300   11.4270 O.2   222  LYS222     -0.2864
     37  CB         2.0160   -1.7040   13.0880 C.3   222  LYS222      0.0298
     38  CG         1.9480   -0.3190   13.7100 C.3   222  LYS222      0.0038
     39  CD         3.3640    0.2010   13.9730 C.3   222  LYS222      0.0206
     40  CE         3.3410    1.4830   14.8050 C.3   222  LYS222      0.1093
     41  NZ         4.7110    2.0020   15.0800 N.3   222  LYS222     -0.1314
     42  N         -9.4670    8.9740   20.6690 N.3   334  LEU334     -0.1245
     43  CA        -8.6960    8.9490   19.4210 C.3   334  LEU334      0.1561
     44  C         -7.9980   10.2910   19.2220 C.2   334  LEU334      0.2260
     45  O         -6.8350   10.3570   18.8190 O.2   334  LEU334     -0.2867
     46  CB        -9.5920    8.6100   18.2250 C.3   334  LEU334      0.0270
     47  CG        -9.9290    7.1150   18.1330 C.3   334  LEU334      0.0019
     48  CD1      -11.0910    6.8530   17.1850 C.3   334  LEU334      0.0001
     49  CD2       -8.6940    6.3590   17.6790 C.3   334  LEU334      0.0001
     50  N         -4.3070    9.4970   20.4890 N.3   338  PHE338     -0.1241
     51  CA        -3.7550    8.9880   19.2380 C.3   338  PHE338      0.1605
     52  C         -3.5230   10.0890   18.2130 C.2   338  PHE338      0.2264
     53  O         -2.8660    9.8550   17.1970 O.2   338  PHE338     -0.2867
     54  CB        -4.6750    7.9270   18.6250 C.3   338  PHE338      0.0534
     55  CG        -4.7830    6.6600   19.4280 C.ar  338  PHE338     -0.0203
     56  CD1       -5.6950    6.5550   20.4660 C.ar  338  PHE338     -0.0042
     57  CD2       -3.9940    5.5620   19.1260 C.ar  338  PHE338     -0.0042
     58  CE1       -5.8100    5.3730   21.2010 C.ar  338  PHE338     -0.0003
     59  CE2       -4.1120    4.3790   19.8470 C.ar  338  PHE338     -0.0003
     60  CZ        -5.0210    4.2880   20.8850 C.ar  338  PHE338     -0.0000
     61  N         -5.8070   11.3580   16.3820 N.3   340  ILE340     -0.1245
     62  CA        -6.6320   11.0010   15.2310 C.3   340  ILE340      0.1561
     63  C         -8.0040   11.6590   15.2770 C.2   340  ILE340      0.2260
     64  O         -8.7180   11.5950   16.2950 O.2   340  ILE340     -0.2867
     65  CB        -6.7860    9.4710   15.1020 C.3   340  ILE340      0.0252
     66  CG1       -5.4490    8.8440   14.7030 C.3   340  ILE340      0.0019
     67  CG2       -7.8660    9.1050   14.0790 C.3   340  ILE340      0.0019
     68  CD1       -5.4370    7.3450   14.8380 C.3   340  ILE340      0.0001
     69  N        -10.6330    5.0570   10.9570 N.3   348  LEU348     -0.1245
     70  CA        -9.4510    4.4880   11.5950 C.3   348  LEU348      0.1561
     71  C         -8.4080    4.0860   10.5460 C.2   348  LEU348      0.2260
     72  O         -7.2140    4.0000   10.8340 O.2   348  LEU348     -0.2867
     73  CB        -9.8290    3.2820   12.4470 C.3   348  LEU348      0.0270
     74  CG       -10.7290    3.5670   13.6500 C.3   348  LEU348      0.0019
     75  CD1      -10.9560    2.2950   14.4500 C.3   348  LEU348      0.0001
     76  CD2      -10.1250    4.6530   14.5140 C.3   348  LEU348      0.0001
     77  N         -5.5880   -0.2520    7.6400 N.3   351  GLU351     -0.1231
     78  CA        -4.4330   -0.8990    8.2440 C.3   351  GLU351      0.1699
     79  C         -4.5930   -1.0230    9.7600 C.2   351  GLU351      0.2592
     80  O         -4.3510   -2.0810   10.3270 O.2   351  GLU351     -0.2718
     81  CB        -3.1470   -0.1320    7.9030 C.3   351  GLU351      0.0402
     82  CG        -1.8700   -0.8900    8.2170 C.3   351  GLU351      0.1161
     83  CD        -1.5580   -2.0040    7.2130 C.2   351  GLU351      0.3649
     84  OE1       -2.2880   -2.1570    6.2080 O.co2 351  GLU351     -0.2457
     85  OE2       -0.5690   -2.7360    7.4370 O.co2 351  GLU351     -0.2457
     86  N         -5.0140    0.0560   10.4170 N.am  352  ALA352     -0.1980
     87  CA        -5.1670    0.0180   11.8660 C.3   352  ALA352      0.1597
     88  C         -6.4190   -0.7430   12.3040 C.2   352  ALA352      0.2287
     89  O         -6.4100   -1.3880   13.3500 O.2   352  ALA352     -0.2864
     90  CB        -5.1530    1.4330   12.4660 C.3   352  ALA352      0.0319
     91  N        -10.5320   -2.9410   19.6560 N.3   361  VAL361     -0.1245
     92  CA       -11.2240   -1.6570   19.5850 C.3   361  VAL361      0.1561
     93  C        -12.6020   -1.8240   18.9350 C.2   361  VAL361      0.2260
     94  O        -13.5880   -1.2570   19.4020 O.2   361  VAL361     -0.2867
     95  CB       -10.3900   -0.5950   18.8220 C.3   361  VAL361      0.0252
     96  CG1      -11.2420    0.6300   18.4690 C.3   361  VAL361      0.0019
     97  CG2       -9.1700   -0.1820   19.6570 C.3   361  VAL361      0.0019
@<TRIPOS>BOND
     1    84    83   ar
     2    83    85   ar
     3    83    82    1
     4    77    78    1
     5    81    82    1
     6    81    78    1
     7    78    79    1
     8    79    80    2
     9    79    86   am
    10    86    87    1
    11    71    72    2
    12    71    70    1
    13    69    70    1
    14    36    35    2
    15    70    73    1
    16    87    88    1
    17    87    90    1
    18    88    89    2
    19    35    34    1
    20    73    74    1
    21    34    37    1
    22    34    33    1
    23    25    24    2
    24    37    38    1
    25    74    75    1
    26    74    76    1
    27    38    39    1
    28    39    40    1
    29    24    33   am
    30    24    23    1
    31    67    65    1
    32    66    68    1
    33    66    65    1
    34    40    41    1
    35    65    62    1
    36    62    63    1
    37    62    61    1
    38    63    64    2
    39    23    26    1
    40    23    22    1
    41    26    27    1
    42    28    27   ar
    43    28    30   ar
    44    27    29   ar
    45    48    47    1
    46    16    15    2
    47    53    52    2
    48    30    32   ar
    49    49    47    1
    50    29    31   ar
    51    47    46    1
    52    52    51    1
    53    46    43    1
    54    15    14    1
    55    96    95    1
    56    54    51    1
    57    54    55    1
    58    32    31   ar
    59    45    44    2
    60    95    92    1
    61    95    97    1
    62    93    94    2
    63    93    92    1
    64    57    55   ar
    65    57    59   ar
    66    12    11    1
    67    17    14    1
    68    17    18    1
    69    44    43    1
    70    51    50    1
    71    14    13    1
    72    43    42    1
    73    55    56   ar
    74    92    91    1
    75    19    18    1
    76    19    20    1
    77    59    60   ar
    78     9    11   ar
    79     9     7   ar
    80    11    10   ar
    81    21    20    1
    82    56    58   ar
    83    60    58   ar
    84     7     6   ar
    85    10     8   ar
    86     6     8   ar
    87     6     5    1
    88     5     2    1
    89     2     1    1
    90     2     3    1
    91     4     3    2
