@<TRIPOS>MOLECULE
tmp/3ze8A00.pdb
 95 89 0 0 0
SMALL
GASTEIGER

@<TRIPOS>ATOM
      1  N         -9.4110  -28.0660   36.1920 N.3     6  TRP6       -0.1241
      2  CA       -10.6820  -28.1040   35.4820 C.3     6  TRP6        0.1605
      3  C        -10.3770  -28.5000   34.0400 C.2     6  TRP6        0.2264
      4  O         -9.8200  -27.7110   33.2690 O.2     6  TRP6       -0.2867
      5  CB       -11.3470  -26.7210   35.5430 C.3     6  TRP6        0.0550
      6  CG       -12.7540  -26.6310   34.9780 C.ar    6  TRP6        0.0003
      7  CD1      -13.1550  -26.9190   33.7040 C.ar    6  TRP6        0.0946
      8  CD2      -13.9220  -26.1680   35.6710 C.ar    6  TRP6        0.0152
      9  NE1      -14.5110  -26.6860   33.5650 N.ar    6  TRP6       -0.2442
     10  CE2      -15.0040  -26.2230   34.7550 C.ar    6  TRP6        0.0810
     11  CE3      -14.1590  -25.7180   36.9750 C.ar    6  TRP6        0.0012
     12  CZ2      -16.3020  -25.8470   35.1090 C.ar    6  TRP6        0.0191
     13  CZ3      -15.4490  -25.3480   37.3240 C.ar    6  TRP6        0.0001
     14  CH2      -16.5040  -25.4150   36.3950 C.ar    6  TRP6        0.0015
     15  N        -18.7780  -23.9980   32.6660 N.3    16  SER16      -0.1217
     16  CA       -17.9340  -22.9280   33.1920 C.3    16  SER16       0.1889
     17  C        -18.7340  -21.6260   33.2940 C.2    16  SER16       0.2288
     18  O        -18.7030  -20.9450   34.3140 O.2    16  SER16      -0.2866
     19  CB       -16.6990  -22.6930   32.3070 C.3    16  SER16       0.2089
     20  OG       -15.7540  -23.7450   32.4520 O.3    16  SER16      -0.2183
     21  N        -21.1510  -21.3010   36.1600 N.3    19  LEU19      -0.1231
     22  CA       -20.4870  -21.0670   37.4340 C.3    19  LEU19       0.1693
     23  C        -20.1450  -19.5880   37.5820 C.2    19  LEU19       0.2591
     24  O        -20.2400  -19.0170   38.6710 O.2    19  LEU19      -0.2718
     25  CB       -19.2310  -21.9320   37.5530 C.3    19  LEU19       0.0284
     26  CG       -18.5480  -21.8620   38.9270 C.3    19  LEU19       0.0019
     27  CD1      -19.5470  -22.1350   40.0460 C.3    19  LEU19       0.0001
     28  CD2      -17.4040  -22.8680   38.9770 C.3    19  LEU19       0.0001
     29  N        -19.7660  -18.9580   36.4710 N.am   20  LEU20      -0.1980
     30  CA       -19.4810  -17.5230   36.4810 C.3    20  LEU20       0.1596
     31  C        -20.7080  -16.7050   36.8800 C.2    20  LEU20       0.2287
     32  O        -20.5900  -15.5540   37.2920 O.2    20  LEU20      -0.2864
     33  CB       -18.9600  -17.0730   35.1080 C.3    20  LEU20       0.0297
     34  CG       -17.5490  -17.5190   34.7340 C.3    20  LEU20       0.0022
     35  CD1      -17.2790  -17.2040   33.2690 C.3    20  LEU20       0.0001
     36  CD2      -16.5250  -16.8350   35.6310 C.3    20  LEU20       0.0001
     37  N        -22.6970  -17.4660   39.4020 N.3    22  SER22      -0.1202
     38  CA       -23.0160  -17.6930   40.8120 C.3    22  SER22       0.2020
     39  C        -23.0590  -16.4110   41.6340 C.2    22  SER22       0.2618
     40  O        -22.1610  -15.5650   41.5350 O.2    22  SER22      -0.2717
     41  CB       -22.0070  -18.6570   41.4480 C.3    22  SER22       0.2103
     42  OG       -22.2580  -18.8050   42.8360 O.3    22  SER22      -0.2182
     43  N        -24.1040  -16.2720   42.4440 N.am   23  VAL23      -0.1979
     44  CA       -24.1510  -15.2210   43.4510 C.3    23  VAL23       0.1595
     45  C        -24.0180  -15.8400   44.8330 C.2    23  VAL23       0.2287
     46  O        -24.4320  -15.2650   45.8360 O.2    23  VAL23      -0.2864
     47  CB       -25.4440  -14.3970   43.3740 C.3    23  VAL23       0.0276
     48  CG1      -25.5410  -13.7340   42.0380 C.3    23  VAL23       0.0022
     49  CG2      -26.6540  -15.2770   43.6000 C.3    23  VAL23       0.0022
     50  N        -18.6900  -18.2880   46.9980 N.3    27  ILE27      -0.1231
     51  CA       -17.9170  -18.5120   45.7640 C.3    27  ILE27       0.1692
     52  C        -16.5020  -17.9000   45.7750 C.2    27  ILE27       0.2591
     53  O        -15.5160  -18.6080   45.5500 O.2    27  ILE27      -0.2718
     54  CB       -18.7090  -18.1420   44.4570 C.3    27  ILE27       0.0266
     55  CG1      -17.9780  -18.6650   43.2170 C.3    27  ILE27       0.0019
     56  CG2      -18.9430  -16.6510   44.3230 C.3    27  ILE27       0.0020
     57  CD1      -17.8430  -20.1590   43.1770 C.3    27  ILE27       0.0001
     58  N        -16.4040  -16.6070   46.0630 N.am   28  ALA28      -0.1980
     59  CA       -15.1190  -15.9240   46.0760 C.3    28  ALA28       0.1597
     60  C        -14.1770  -16.5920   47.0740 C.2    28  ALA28       0.2287
     61  O        -13.0010  -16.8050   46.7780 O.2    28  ALA28      -0.2864
     62  CB       -15.2990  -14.4450   46.4000 C.3    28  ALA28       0.0319
     63  N        -12.6280  -19.8890   45.8630 N.3    31  LEU31      -0.1245
     64  CA       -11.5760  -19.6870   44.8600 C.3    31  LEU31       0.1561
     65  C        -10.2910  -19.0360   45.3810 C.2    31  LEU31       0.2260
     66  O         -9.2190  -19.2230   44.8090 O.2    31  LEU31      -0.2867
     67  CB       -12.1090  -18.8490   43.7020 C.3    31  LEU31       0.0270
     68  CG       -13.1730  -19.4860   42.8160 C.3    31  LEU31       0.0019
     69  CD1      -13.8090  -18.4050   41.9880 C.3    31  LEU31       0.0001
     70  CD2      -12.5530  -20.5450   41.9250 C.3    31  LEU31       0.0001
     71  N         -7.4760  -22.7660   41.9460 N.3    37  LEU37      -0.1245
     72  CA        -7.7610  -23.1650   40.5730 C.3    37  LEU37       0.1561
     73  C         -6.5050  -23.0360   39.7070 C.2    37  LEU37       0.2260
     74  O         -6.2360  -21.9810   39.1270 O.2    37  LEU37      -0.2867
     75  CB        -8.9120  -22.3300   39.9940 C.3    37  LEU37       0.0270
     76  CG        -9.4190  -22.7530   38.6080 C.3    37  LEU37       0.0019
     77  CD1      -10.0680  -24.1490   38.6360 C.3    37  LEU37       0.0001
     78  CD2      -10.3830  -21.7130   38.0390 C.3    37  LEU37       0.0001
     79  N         -7.3080  -24.1120   34.1890 N.3    40  HIS40      -0.1241
     80  CA        -8.6240  -23.9640   33.5650 C.3    40  HIS40       0.1621
     81  C         -8.3750  -23.2550   32.2370 C.2    40  HIS40       0.2264
     82  O         -8.0040  -22.0860   32.2310 O.2    40  HIS40      -0.2867
     83  CB        -9.5700  -23.1160   34.4210 C.3    40  HIS40       0.0745
     84  CG       -10.9910  -23.1440   33.9410 C.ar   40  HIS40       0.0817
     85  ND1      -11.3440  -22.8350   32.6440 N.ar   40  HIS40      -0.2268
     86  CD2      -12.1410  -23.4810   34.5730 C.ar   40  HIS40       0.1154
     87  CE1      -12.6520  -22.9670   32.5010 C.ar   40  HIS40       0.1986
     88  NE2      -13.1610  -23.3460   33.6600 N.ar   40  HIS40      -0.2212
     89  N         -9.7570  -19.4890   31.3960 N.3    43  VAL43      -0.1245
     90  CA        -9.4670  -18.3020   32.2000 C.3    43  VAL43       0.1561
     91  C         -8.0370  -18.1550   32.7300 C.2    43  VAL43       0.2260
     92  O         -7.6760  -17.0790   33.1980 O.2    43  VAL43      -0.2867
     93  CB       -10.4470  -18.1650   33.4030 C.3    43  VAL43       0.0252
     94  CG1      -11.8750  -18.0250   32.9100 C.3    43  VAL43       0.0019
     95  CG2      -10.3160  -19.3640   34.3640 C.3    43  VAL43       0.0019
@<TRIPOS>BOND
     1    89    90    1
     2    90    91    1
     3    90    93    1
     4    82    81    2
     5    81    80    1
     6    19    20    1
     7    19    16    1
     8    87    85   ar
     9    87    88   ar
    10    85    84   ar
    11    15    16    1
    12    91    92    2
    13    94    93    1
    14    16    17    1
    15     4     3    2
    16    35    34    1
    17    17    18    2
    18    93    95    1
    19     9     7   ar
    20     9    10   ar
    21    80    79    1
    22    80    83    1
    23    88    86   ar
    24     7     6   ar
    25    84    83    1
    26    84    86   ar
    27     3     2    1
    28    34    33    1
    29    34    36    1
    30    10    12   ar
    31    10     8   ar
    32     6     5    1
    33     6     8   ar
    34    33    30    1
    35    12    14   ar
    36     2     5    1
    37     2     1    1
    38     8    11   ar
    39    21    22    1
    40    14    13   ar
    41    29    30    1
    42    29    23   am
    43    30    31    1
    44    31    32    2
    45    11    13   ar
    46    22    25    1
    47    22    23    1
    48    25    26    1
    49    23    24    2
    50    78    76    1
    51    76    77    1
    52    76    75    1
    53    26    28    1
    54    26    27    1
    55    74    73    2
    56    37    38    1
    57    73    72    1
    58    75    72    1
    59    72    71    1
    60    38    41    1
    61    38    39    1
    62    41    42    1
    63    40    39    2
    64    39    43   am
    65    70    68    1
    66    69    68    1
    67    48    47    1
    68    43    44    1
    69    68    67    1
    70    57    55    1
    71    55    54    1
    72    47    44    1
    73    47    49    1
    74    44    45    1
    75    67    64    1
    76    56    54    1
    77    54    51    1
    78    66    65    2
    79    45    46    2
    80    64    65    1
    81    64    63    1
    82    53    52    2
    83    51    52    1
    84    51    50    1
    85    52    58   am
    86    58    59    1
    87    59    62    1
    88    59    60    1
    89    61    60    2
