@<TRIPOS>MOLECULE
tmp/3zebA00.pdb
 119 115 0 0 0
SMALL
GASTEIGER

@<TRIPOS>ATOM
      1  N          3.3790   -7.6500   51.7970 N.3    58  MET58      -0.1230
      2  CA         3.9380   -6.5040   51.0740 C.3    58  MET58       0.1702
      3  C          5.2500   -6.7980   50.3340 C.2    58  MET58       0.2592
      4  O          5.4110   -6.3550   49.1880 O.2    58  MET58      -0.2718
      5  CB         4.1160   -5.3090   52.0180 C.3    58  MET58       0.0401
      6  CG         2.7980   -4.6540   52.4100 C.3    58  MET58       0.0596
      7  SD         1.9630   -3.8900   51.0010 S.3    58  MET58      -0.1393
      8  CE         2.9180   -2.3750   50.8890 C.3    58  MET58       0.0692
      9  N          6.1820   -7.5340   50.9460 N.am   59  HIS59      -0.1976
     10  CA         7.4140   -7.8520   50.2030 C.3    59  HIS59       0.1656
     11  C          7.1440   -8.8400   49.0590 C.2    59  HIS59       0.2291
     12  O          7.6870   -8.6650   47.9790 O.2    59  HIS59      -0.2864
     13  CB         8.5800   -8.3380   51.0780 C.3    59  HIS59       0.0771
     14  CG         9.1820   -7.2910   51.9800 C.ar   59  HIS59       0.0820
     15  ND1        9.8540   -6.1580   51.5290 N.ar   59  HIS59      -0.2267
     16  CD2        9.2260   -7.2460   53.3370 C.ar   59  HIS59       0.1154
     17  CE1       10.2720   -5.4530   52.5900 C.ar   59  HIS59       0.1986
     18  NE2        9.8970   -6.1030   53.6990 N.ar   59  HIS59      -0.2212
     19  N          5.4120   -6.7450   46.1710 N.3    62  PHE62      -0.1227
     20  CA         6.2930   -5.8460   45.4340 C.3    62  PHE62       0.1736
     21  C          7.5080   -6.5560   44.8180 C.2    62  PHE62       0.2595
     22  O          7.8900   -6.2210   43.6710 O.2    62  PHE62      -0.2718
     23  CB         6.6220   -4.6010   46.2660 C.3    62  PHE62       0.0547
     24  CG         5.4720   -3.6280   46.3230 C.ar   62  PHE62      -0.0202
     25  CD1        4.4780   -3.7600   47.2820 C.ar   62  PHE62      -0.0042
     26  CD2        5.3390   -2.6360   45.3620 C.ar   62  PHE62      -0.0042
     27  CE1        3.3970   -2.8950   47.3130 C.ar   62  PHE62      -0.0003
     28  CE2        4.2570   -1.7700   45.3800 C.ar   62  PHE62      -0.0003
     29  CZ         3.2830   -1.9010   46.3520 C.ar   62  PHE62      -0.0000
     30  N          8.0540   -7.5720   45.5050 N.am   63  ASN63      -0.1974
     31  CA         9.1410   -8.3810   44.8950 C.3    63  ASN63       0.1688
     32  C          8.6880   -8.9740   43.5750 C.2    63  ASN63       0.2292
     33  O          9.3730   -8.8510   42.5690 O.2    63  ASN63      -0.2864
     34  CB         9.6990   -9.4590   45.8640 C.3    63  ASN63       0.1181
     35  CG        10.5040   -8.8510   47.0140 C.2    63  ASN63       0.2629
     36  OD1       10.8740   -7.6810   46.9600 O.2    63  ASN63      -0.2716
     37  ND2       10.7540   -9.6290   48.0700 N.am   63  ASN63      -0.0877
     38  N         13.4720  -14.5470   50.6180 N.3   108  GLY108     -0.1225
     39  CA        12.8660  -13.5140   49.7780 C.3   108  GLY108      0.1811
     40  C         13.6210  -13.2200   48.4940 C.2   108  GLY108      0.2280
     41  O         14.8420  -13.4350   48.3940 O.2   108  GLY108     -0.2866
     42  N         14.2780  -10.3400   47.4560 N.3   110  SER110     -0.1217
     43  CA        14.6910   -8.9360   47.5800 C.3   110  SER110      0.1889
     44  C         16.0490   -8.7280   46.8920 C.2   110  SER110      0.2288
     45  O         16.2160   -7.8070   46.0730 O.2   110  SER110     -0.2866
     46  CB        14.7620   -8.5280   49.0710 C.3   110  SER110      0.2089
     47  OG        14.3140   -7.2010   49.2810 O.3   110  SER110     -0.2183
     48  N         17.2340   -6.4550   43.4640 N.3   114  TYR114     -0.1241
     49  CA        18.3740   -5.5170   43.3540 C.3   114  TYR114      0.1605
     50  C         19.2700   -5.8090   42.1460 C.2   114  TYR114      0.2264
     51  O         19.7640   -4.8870   41.4930 O.2   114  TYR114     -0.2867
     52  CB        19.2390   -5.5300   44.6090 C.3   114  TYR114      0.0534
     53  CG        18.7510   -4.6530   45.7440 C.ar  114  TYR114     -0.0201
     54  CD1       17.8040   -5.1130   46.6550 C.ar  114  TYR114     -0.0009
     55  CD2       19.2800   -3.3710   45.9380 C.ar  114  TYR114     -0.0009
     56  CE1       17.3700   -4.3150   47.7130 C.ar  114  TYR114      0.0417
     57  CE2       18.8600   -2.5650   46.9870 C.ar  114  TYR114      0.0417
     58  CZ        17.9020   -3.0370   47.8740 C.ar  114  TYR114      0.1957
     59  OH        17.4880   -2.2380   48.9260 O.3   114  TYR114     -0.2866
     60  N         12.2250    2.5820   46.3130 N.3   145  TRP145     -0.1241
     61  CA        12.2250    1.2140   46.8420 C.3   145  TRP145      0.1605
     62  C         13.5630    0.9140   47.5350 C.2   145  TRP145      0.2264
     63  O         13.5970    0.5520   48.7170 O.2   145  TRP145     -0.2867
     64  CB        11.9470    0.2440   45.6910 C.3   145  TRP145      0.0550
     65  CG        11.6440   -1.1650   46.0800 C.ar  145  TRP145      0.0003
     66  CD1       10.4320   -1.6820   46.4330 C.ar  145  TRP145      0.0946
     67  CD2       12.5690   -2.2580   46.0990 C.ar  145  TRP145      0.0152
     68  NE1       10.5480   -3.0290   46.6890 N.ar  145  TRP145     -0.2442
     69  CE2       11.8500   -3.4070   46.4950 C.ar  145  TRP145      0.0810
     70  CE3       13.9410   -2.3740   45.8290 C.ar  145  TRP145      0.0012
     71  CZ2       12.4580   -4.6650   46.6260 C.ar  145  TRP145      0.0191
     72  CZ3       14.5520   -3.6250   45.9660 C.ar  145  TRP145      0.0001
     73  CH2       13.8080   -4.7520   46.3600 C.ar  145  TRP145      0.0015
     74  N         13.7690    3.0510   50.7160 N.3   148  ALA148     -0.1231
     75  CA        12.8920    2.5310   51.7670 C.3   148  ALA148      0.1694
     76  C         13.5610    1.3770   52.5250 C.2   148  ALA148      0.2592
     77  O         13.4100    1.2520   53.7510 O.2   148  ALA148     -0.2718
     78  CB        11.5670    2.0860   51.1780 C.3   148  ALA148      0.0304
     79  N         14.3080    0.5510   51.7870 N.am  149  GLY149     -0.1957
     80  CA        15.0040   -0.5890   52.3690 C.3   149  GLY149      0.1869
     81  C         16.2170   -0.1660   53.1650 C.2   149  GLY149      0.2309
     82  O         16.3560   -0.5320   54.3310 O.2   149  GLY149     -0.2863
     83  N          8.8520    2.4040   56.7510 N.3   154  PHE154     -0.1241
     84  CA         7.5780    1.6670   56.7220 C.3   154  PHE154      0.1605
     85  C          7.6040    0.4230   57.6270 C.2   154  PHE154      0.2264
     86  O          7.0300   -0.6150   57.2900 O.2   154  PHE154     -0.2867
     87  CB         7.2250    1.2980   55.2670 C.3   154  PHE154      0.0534
     88  CG         5.7480    1.1270   55.0100 C.ar  154  PHE154     -0.0203
     89  CD1        4.8840    2.2140   55.0790 C.ar  154  PHE154     -0.0042
     90  CD2        5.2230   -0.1190   54.6710 C.ar  154  PHE154     -0.0042
     91  CE1        3.5250    2.0610   54.8330 C.ar  154  PHE154     -0.0003
     92  CE2        3.8650   -0.2790   54.4240 C.ar  154  PHE154     -0.0003
     93  CZ         3.0140    0.8130   54.5050 C.ar  154  PHE154     -0.0000
     94  N         10.1130   -1.5810   58.3970 N.3   156  MET156     -0.1245
     95  CA        10.9230   -2.6800   57.8460 C.3   156  MET156      0.1570
     96  C         12.2850   -2.7880   58.5670 C.2   156  MET156      0.2261
     97  O         12.8650   -1.7680   58.9440 O.2   156  MET156     -0.2867
     98  CB        11.1230   -2.4660   56.3370 C.3   156  MET156      0.0387
     99  CG         9.8210   -2.3710   55.5420 C.3   156  MET156      0.0595
    100  SD         9.9930   -2.3160   53.7340 S.3   156  MET156     -0.1393
    101  CE        10.8790   -0.7840   53.4540 C.3   156  MET156      0.0692
    102  N         15.3180   -4.9770   57.4920 N.3   158  MET158     -0.1245
    103  CA        16.1380   -5.8600   56.6490 C.3   158  MET158      0.1570
    104  C         17.6310   -5.5170   56.7260 C.2   158  MET158      0.2261
    105  O         18.0040   -4.4150   57.1420 O.2   158  MET158     -0.2867
    106  CB        15.6900   -5.7500   55.1900 C.3   158  MET158      0.0387
    107  CG        14.2480   -6.1500   54.9300 C.3   158  MET158      0.0595
    108  SD        13.8540   -6.0270   53.1760 S.3   158  MET158     -0.1393
    109  CE        13.7930   -4.2450   52.9900 C.3   158  MET158      0.0692
    110  N         21.5870   -6.9370   50.1760 N.3   163  HIS163     -0.1241
    111  CA        21.0320   -6.1390   49.0810 C.3   163  HIS163      0.1621
    112  C         22.1320   -5.5430   48.2300 C.2   163  HIS163      0.2264
    113  O         22.0330   -5.5170   46.9900 O.2   163  HIS163     -0.2867
    114  CB        20.1120   -5.0480   49.6240 C.3   163  HIS163      0.0745
    115  CG        18.8970   -5.5860   50.3120 C.ar  163  HIS163      0.0817
    116  ND1       18.3000   -4.9480   51.3790 N.ar  163  HIS163     -0.2268
    117  CD2       18.1790   -6.7140   50.0970 C.ar  163  HIS163      0.1154
    118  CE1       17.2630   -5.6560   51.7870 C.ar  163  HIS163      0.1986
    119  NE2       17.1670   -6.7320   51.0270 N.ar  163  HIS163     -0.2212
@<TRIPOS>BOND
     1    51    50    2
     2    50    49    1
     3    33    32    2
     4    49    48    1
     5    49    52    1
     6    32    31    1
     7    22    21    2
     8    52    53    1
     9    21    20    1
    10    21    30   am
    11    31    30    1
    12    31    34    1
    13    26    28   ar
    14    26    24   ar
    15    28    29   ar
    16    20    19    1
    17    20    23    1
    18    64    65    1
    19    64    61    1
    20    53    55   ar
    21    53    54   ar
    22    70    72   ar
    23    70    67   ar
    24    34    35    1
    25    55    57   ar
    26    72    73   ar
    27    45    44    2
    28    65    67   ar
    29    65    66   ar
    30    67    69   ar
    31    23    24    1
    32    60    61    1
    33    24    25   ar
    34    29    27   ar
    35    73    71   ar
    36    66    68   ar
    37    69    71   ar
    38    69    68   ar
    39    54    56   ar
    40    61    62    1
    41    44    43    1
    42    36    35    2
    43    57    58   ar
    44   113   112    2
    45    35    37   am
    46    25    27   ar
    47    42    43    1
    48    62    63    2
    49    43    46    1
    50    56    58   ar
    51    58    59    1
    52    12    11    2
    53   112   111    1
    54    41    40    2
    55    40    39    1
    56    11    10    1
    57    46    47    1
    58   111   114    1
    59   111   110    1
    60     4     3    2
    61   114   115    1
    62    39    38    1
    63   117   115   ar
    64   117   119   ar
    65    10     9    1
    66    10    13    1
    67   115   116   ar
    68     3     9   am
    69     3     2    1
    70    74    75    1
    71     8     7    1
    72     7     6    1
    73   119   118   ar
    74     2     1    1
    75     2     5    1
    76    13    14    1
    77    78    75    1
    78   116   118   ar
    79    15    14   ar
    80    15    17   ar
    81    75    76    1
    82    79    80    1
    83    79    76   am
    84    14    16   ar
    85     5     6    1
    86    80    81    1
    87    76    77    2
    88    17    18   ar
    89   109   108    1
    90    81    82    2
    91   108   107    1
    92    16    18   ar
    93   101   100    1
    94   100    99    1
    95    92    93   ar
    96    92    90   ar
    97    93    91   ar
    98    90    88   ar
    99    91    89   ar
   100   107   106    1
   101    88    89   ar
   102    88    87    1
   103   106   103    1
   104    87    84    1
   105    99    98    1
   106    98    95    1
   107   103   104    1
   108   103   102    1
   109    84    83    1
   110    84    85    1
   111   104   105    2
   112    86    85    2
   113    95    94    1
   114    95    96    1
   115    96    97    2
