@<TRIPOS>MOLECULE
tmp/3zedA00.pdb
 236 232 0 0 0
SMALL
GASTEIGER

@<TRIPOS>ATOM
      1  N        -48.1780  -47.5860   27.0290 N.3    53  ARG53      -0.1245
      2  CA       -49.2470  -47.5440   26.0410 C.3    53  ARG53       0.1563
      3  C        -50.3400  -48.5680   26.3020 C.2    53  ARG53       0.2260
      4  O        -51.4470  -48.4080   25.7830 O.2    53  ARG53      -0.2867
      5  CB       -48.6570  -47.7950   24.6490 C.3    53  ARG53       0.0307
      6  CG       -47.8340  -46.6250   24.1290 C.3    53  ARG53       0.0489
      7  CD       -47.1370  -47.0020   22.8510 C.3    53  ARG53       0.2205
      8  NE       -48.0870  -47.2190   21.7560 N.pl3  53  ARG53      -0.0865
      9  CZ       -48.5200  -46.2660   20.9330 C.cat  53  ARG53       0.5346
     10  NH1      -48.1010  -45.0150   21.0740 N.pl3  53  ARG53       0.1354
     11  NH2      -49.3800  -46.5570   19.9690 N.pl3  53  ARG53       0.1354
     12  N        -52.8300  -53.4030    2.8310 N.3   186  HIS186     -0.1226
     13  CA       -52.4880  -51.9820    2.9330 C.3   186  HIS186      0.1752
     14  C        -52.6980  -51.4590    4.3700 C.2   186  HIS186      0.2596
     15  O        -51.9120  -50.6400    4.8390 O.2   186  HIS186     -0.2718
     16  CB       -53.3230  -51.1570    1.9280 C.3   186  HIS186      0.0759
     17  CG       -53.1770  -49.6780    2.0840 C.ar  186  HIS186      0.0818
     18  ND1      -52.0290  -49.0130    1.6550 N.ar  186  HIS186     -0.2268
     19  CD2      -54.0240  -48.7770    2.6330 C.ar  186  HIS186      0.1154
     20  CE1      -52.2230  -47.7350    1.9480 C.ar  186  HIS186      0.1986
     21  NE2      -53.4060  -47.5420    2.5320 N.ar  186  HIS186     -0.2212
     22  N        -53.7450  -51.9400    5.0560 N.am  187  GLU187     -0.1965
     23  CA       -54.0900  -51.5200    6.4220 C.3   187  GLU187      0.1733
     24  C        -53.0820  -52.0310    7.4680 C.2   187  GLU187      0.2616
     25  O        -52.9580  -51.4130    8.5270 O.2   187  GLU187     -0.2715
     26  CB       -55.5170  -51.9440    6.8130 C.3   187  GLU187      0.0429
     27  CG       -55.9180  -53.3530    6.3900 C.3   187  GLU187      0.1163
     28  CD       -56.6860  -53.4490    5.0770 C.2   187  GLU187      0.3649
     29  OE1      -56.1680  -52.9820    4.0330 O.co2 187  GLU187     -0.2457
     30  OE2      -57.8120  -54.0030    5.0970 O.co2 187  GLU187     -0.2457
     31  N        -52.3510  -53.1230    7.1610 N.am  188  ASP188     -0.1958
     32  CA       -51.3630  -53.7100    8.0630 C.3   188  ASP188      0.1825
     33  C        -50.1470  -52.7830    8.2300 C.2   188  ASP188      0.2464
     34  O        -49.6720  -52.1870    7.2540 O.2   188  ASP188     -0.2730
     35  CB       -50.9280  -55.0910    7.5780 C.3   188  ASP188      0.1450
     36  CG       -51.9550  -56.1930    7.8120 C.2   188  ASP188      0.3671
     37  OD1      -53.0570  -55.8860    8.3300 O.co2 188  ASP188     -0.2456
     38  OD2      -51.6410  -57.3650    7.5180 O.co2 188  ASP188     -0.2456
     39  N        -49.6500  -52.6400    9.4790 N.am  189  PRO189     -0.2715
     40  CA       -48.4780  -51.7680    9.6980 C.3   189  PRO189      0.1536
     41  C        -47.2150  -52.3350    9.0570 C.2   189  PRO189      0.2598
     42  O        -47.0170  -53.5500    8.9600 O.2   189  PRO189     -0.2715
     43  CB       -48.3380  -51.7290   11.2330 C.3   189  PRO189      0.0310
     44  CG       -48.9890  -53.0000   11.6890 C.3   189  PRO189      0.0237
     45  CD       -50.0930  -53.2880   10.7350 C.3   189  PRO189      0.0939
     46  N        -46.3810  -51.4260    8.6070 N.am  190  ASP190     -0.1972
     47  CA       -45.0720  -51.6770    8.0520 C.3   190  ASP190      0.1709
     48  C        -44.1590  -52.1630    9.1480 C.2   190  ASP190      0.2293
     49  O        -44.4540  -52.0020   10.3390 O.2   190  ASP190     -0.2864
     50  CB       -44.5030  -50.3580    7.4850 C.3   190  ASP190      0.1436
     51  CG       -45.2100  -49.7420    6.2930 C.2   190  ASP190      0.3671
     52  OD1      -45.9980  -50.4540    5.6350 O.co2 190  ASP190     -0.2456
     53  OD2      -44.8860  -48.5830    5.9540 O.co2 190  ASP190     -0.2456
     54  N        -41.8250  -51.1340   11.1500 N.3   192  ARG192     -0.1231
     55  CA       -41.2160  -49.8940   11.6480 C.3   192  ARG192      0.1694
     56  C        -41.2750  -49.7750   13.1780 C.2   192  ARG192      0.2592
     57  O        -40.5760  -48.9440   13.7490 O.2   192  ARG192     -0.2718
     58  CB       -41.9100  -48.6340   11.0370 C.3   192  ARG192      0.0321
     59  CG       -41.9110  -48.5810    9.5280 C.3   192  ARG192      0.0489
     60  CD       -42.8780  -47.5450    8.9630 C.3   192  ARG192      0.2205
     61  NE       -42.7490  -47.4750    7.4990 N.pl3 192  ARG192     -0.0865
     62  CZ       -41.7550  -46.8510    6.8720 C.cat 192  ARG192      0.5346
     63  NH1      -40.8220  -46.2140    7.5630 N.pl3 192  ARG192      0.1354
     64  NH2      -41.6870  -46.8620    5.5460 N.pl3 192  ARG192      0.1354
     65  N        -42.1370  -50.5470   13.8250 N.am  193  TRP193     -0.1962
     66  CA       -42.3630  -50.3570   15.2490 C.3   193  TRP193      0.1771
     67  C        -42.0670  -51.5610   16.1300 C.2   193  TRP193      0.2619
     68  O        -41.9110  -52.6910   15.6590 O.2   193  TRP193     -0.2715
     69  CB       -43.8250  -49.9390   15.4320 C.3   193  TRP193      0.0590
     70  CG       -44.1020  -48.5710   14.8590 C.ar  193  TRP193      0.0006
     71  CD1      -43.8180  -47.3640   15.4330 C.ar  193  TRP193      0.0946
     72  CD2      -44.6550  -48.2850   13.5750 C.ar  193  TRP193      0.0152
     73  NE1      -44.2230  -46.3390   14.6090 N.ar  193  TRP193     -0.2442
     74  CE2      -44.7460  -46.8750   13.4620 C.ar  193  TRP193      0.0810
     75  CE3      -45.1380  -49.0860   12.5290 C.ar  193  TRP193      0.0012
     76  CZ2      -45.2960  -46.2460   12.3390 C.ar  193  TRP193      0.0191
     77  CZ3      -45.6390  -48.4660   11.4030 C.ar  193  TRP193      0.0001
     78  CH2      -45.7100  -47.0590   11.3120 C.ar  193  TRP193      0.0015
     79  N        -41.9600  -51.2720   17.4290 N.am  194  ALA194     -0.1977
     80  CA       -41.8200  -52.2400   18.5080 C.3   194  ALA194      0.1597
     81  C        -43.0910  -53.0790   18.5480 C.2   194  ALA194      0.2287
     82  O        -44.1660  -52.5340   18.2950 O.2   194  ALA194     -0.2864
     83  CB       -41.6180  -51.5090   19.8360 C.3   194  ALA194      0.0319
     84  N        -46.5470  -51.8300   20.1020 N.3   197  TRP197     -0.1227
     85  CA       -47.1880  -50.6990   19.4290 C.3   197  TRP197      0.1737
     86  C        -48.1880  -51.1920   18.3640 C.2   197  TRP197      0.2595
     87  O        -48.8910  -50.3920   17.7560 O.2   197  TRP197     -0.2718
     88  CB       -46.1130  -49.7890   18.8080 C.3   197  TRP197      0.0564
     89  CG       -45.3750  -48.9610   19.8230 C.ar  197  TRP197      0.0003
     90  CD1      -44.7590  -49.4020   20.9650 C.ar  197  TRP197      0.0946
     91  CD2      -45.1540  -47.5480   19.7680 C.ar  197  TRP197      0.0152
     92  NE1      -44.1910  -48.3460   21.6360 N.ar  197  TRP197     -0.2442
     93  CE2      -44.3910  -47.1970   20.9110 C.ar  197  TRP197      0.0810
     94  CE3      -45.5080  -46.5420   18.8510 C.ar  197  TRP197      0.0012
     95  CZ2      -44.0110  -45.8780   21.1800 C.ar  197  TRP197      0.0191
     96  CZ3      -45.1220  -45.2340   19.1150 C.ar  197  TRP197      0.0001
     97  CH2      -44.3800  -44.9110   20.2650 C.ar  197  TRP197      0.0015
     98  N        -48.2440  -52.5110   18.1450 N.am  198  LEU198     -0.1966
     99  CA       -49.1510  -53.1130   17.1790 C.3   198  LEU198      0.1728
    100  C        -50.4920  -53.5050   17.8360 C.2   198  LEU198      0.2616
    101  O        -51.3930  -53.9970   17.1470 O.2   198  LEU198     -0.2715
    102  CB       -48.4810  -54.3060   16.4980 C.3   198  LEU198      0.0311
    103  CG       -47.8270  -53.9490   15.1440 C.3   198  LEU198      0.0022
    104  CD1      -46.6390  -53.0000   15.3150 C.3   198  LEU198      0.0001
    105  CD2      -47.4280  -55.2130   14.3870 C.3   198  LEU198      0.0001
    106  N        -50.6190  -53.2560   19.1540 N.am  199  ILE199     -0.1963
    107  CA       -51.8520  -53.5020   19.9030 C.3   199  ILE199      0.1727
    108  C        -52.6200  -52.1720   20.0580 C.2   199  ILE199      0.2616
    109  O        -52.0770  -51.1760   20.5760 O.2   199  ILE199     -0.2715
    110  CB       -51.6040  -54.1860   21.2780 C.3   199  ILE199      0.0290
    111  CG1      -50.8690  -55.5410   21.1210 C.3   199  ILE199      0.0022
    112  CG2      -52.9230  -54.3120   22.1000 C.3   199  ILE199      0.0023
    113  CD1      -50.1410  -55.9740   22.3330 C.3   199  ILE199      0.0001
    114  N        -53.8740  -52.1700   19.5990 N.am  200  ASN200     -0.1972
    115  CA       -54.7730  -51.0220   19.7360 C.3   200  ASN200      0.1688
    116  C        -55.8810  -51.4710   20.7180 C.2   200  ASN200      0.2292
    117  O        -56.8030  -52.1690   20.2980 O.2   200  ASN200     -0.2864
    118  CB       -55.2830  -50.5820   18.3280 C.3   200  ASN200      0.1181
    119  CG       -56.4650  -49.6250   18.2740 C.2   200  ASN200      0.2629
    120  OD1      -56.8230  -48.9380   19.2450 O.2   200  ASN200     -0.2716
    121  ND2      -57.0910  -49.5500   17.1010 N.am  200  ASN200     -0.0877
    122  N        -52.4290  -56.1550   15.7690 N.3   211  TYR211     -0.1241
    123  CA       -51.8590  -56.4230   14.4450 C.3   211  TYR211      0.1605
    124  C        -50.7360  -57.4600   14.5580 C.2   211  TYR211      0.2264
    125  O        -50.1110  -57.8130   13.5530 O.2   211  TYR211     -0.2867
    126  CB       -51.3810  -55.1100   13.7800 C.3   211  TYR211      0.0534
    127  CG       -52.5300  -54.1960   13.4070 C.ar  211  TYR211     -0.0201
    128  CD1      -53.1820  -54.3270   12.1870 C.ar  211  TYR211     -0.0009
    129  CD2      -52.9950  -53.2330   14.2910 C.ar  211  TYR211     -0.0009
    130  CE1      -54.2250  -53.4710   11.8280 C.ar  211  TYR211      0.0417
    131  CE2      -54.0870  -52.4270   13.9780 C.ar  211  TYR211      0.0417
    132  CZ       -54.6820  -52.5280   12.7310 C.ar  211  TYR211      0.1957
    133  OH       -55.7430  -51.7140   12.4000 O.3   211  TYR211     -0.2866
    134  N        -35.5020  -55.1960   19.7110 N.3   245  ILE245     -0.1231
    135  CA       -35.6000  -54.4850   18.4300 C.3   245  ILE245      0.1692
    136  C        -35.1760  -52.9730   18.6060 C.2   245  ILE245      0.2591
    137  O        -34.4890  -52.4490   17.7310 O.2   245  ILE245     -0.2718
    138  CB       -36.9960  -54.6860   17.7460 C.3   245  ILE245      0.0266
    139  CG1      -36.9640  -54.2770   16.2630 C.3   245  ILE245      0.0019
    140  CG2      -38.1770  -54.0110   18.4810 C.3   245  ILE245      0.0020
    141  CD1      -36.1570  -55.1980   15.3470 C.3   245  ILE245      0.0001
    142  N        -35.5420  -52.3280   19.7420 N.am  246  ARG246     -0.1980
    143  CA       -35.1970  -50.9330   20.0430 C.3   246  ARG246      0.1597
    144  C        -33.6920  -50.7740   20.2790 C.2   246  ARG246      0.2287
    145  O        -33.0840  -49.8430   19.7420 O.2   246  ARG246     -0.2864
    146  CB       -35.9770  -50.4550   21.2790 C.3   246  ARG246      0.0334
    147  CG       -35.9100  -48.9570   21.5650 C.3   246  ARG246      0.0492
    148  CD       -35.9890  -48.6520   23.0560 C.3   246  ARG246      0.2205
    149  NE       -37.0630  -49.3700   23.7500 N.pl3 246  ARG246     -0.0865
    150  CZ       -36.8720  -50.2270   24.7490 C.cat 246  ARG246      0.5346
    151  NH1      -35.6410  -50.4830   25.1920 N.pl3 246  ARG246      0.1354
    152  NH2      -37.9040  -50.8330   25.3150 N.pl3 246  ARG246      0.1354
    153  N        -31.7960  -51.3170   16.9780 N.3   249  GLY249     -0.1210
    154  CA       -31.9280  -50.1250   16.1460 C.3   249  GLY249      0.1956
    155  C        -31.0050  -48.9910   16.5610 C.2   249  GLY249      0.2611
    156  O        -30.3490  -48.3870   15.7030 O.2   249  GLY249     -0.2717
    157  N        -30.9140  -48.7430   17.8930 N.am  250  ARG250     -0.1979
    158  CA       -30.0760  -47.7290   18.5350 C.3   250  ARG250      0.1597
    159  C        -28.6010  -48.0930   18.3990 C.2   250  ARG250      0.2287
    160  O        -27.7760  -47.2220   18.1430 O.2   250  ARG250     -0.2864
    161  CB       -30.4670  -47.5700   20.0210 C.3   250  ARG250      0.0334
    162  CG       -31.3480  -46.3680   20.2700 C.3   250  ARG250      0.0492
    163  CD       -32.6780  -46.7250   20.8700 C.3   250  ARG250      0.2205
    164  NE       -32.6080  -46.9150   22.3140 N.pl3 250  ARG250     -0.0865
    165  CZ       -33.4390  -46.3470   23.1840 C.cat 250  ARG250      0.5346
    166  NH1      -34.4010  -45.5300   22.7620 N.pl3 250  ARG250      0.1354
    167  NH2      -33.3270  -46.6040   24.4800 N.pl3 250  ARG250      0.1354
    168  N        -44.0650  -51.0380   -1.2010 N.3   403  ASN403     -0.1240
    169  CA       -45.2080  -50.2590   -1.6820 C.3   403  ASN403      0.1653
    170  C        -45.2470  -50.3380   -3.2150 C.2   403  ASN403      0.2266
    171  O        -44.2630  -50.7450   -3.8360 O.2   403  ASN403     -0.2867
    172  CB       -45.1040  -48.7960   -1.2020 C.3   403  ASN403      0.1155
    173  CG       -45.2400  -48.6320    0.2980 C.2   403  ASN403      0.2627
    174  OD1      -46.2180  -49.0510    0.9220 O.2   403  ASN403     -0.2716
    175  ND2      -44.2720  -48.0060    0.9290 N.am  403  ASN403     -0.0877
    176  N        -41.5220  -51.0400    2.8470 N.3   409  ARG409     -0.1245
    177  CA       -42.4990  -51.0620    3.9480 C.3   409  ARG409      0.1563
    178  C        -41.7520  -51.5190    5.2280 C.2   409  ARG409      0.2260
    179  O        -42.1650  -52.4230    5.9420 O.2   409  ARG409     -0.2867
    180  CB       -43.7010  -51.9430    3.6130 C.3   409  ARG409      0.0307
    181  CG       -44.6570  -51.2780    2.5980 C.3   409  ARG409      0.0489
    182  CD       -45.9220  -52.0880    2.3410 C.3   409  ARG409      0.2205
    183  NE       -46.7590  -52.2320    3.5400 N.pl3 409  ARG409     -0.0865
    184  CZ       -47.8940  -52.9230    3.5920 C.cat 409  ARG409      0.5346
    185  NH1      -48.3740  -53.5150    2.4990 N.pl3 409  ARG409      0.1354
    186  NH2      -48.5510  -53.0410    4.7350 N.pl3 409  ARG409      0.1354
    187  N        -38.1340  -49.9300    7.8730 N.3   411  ASN411     -0.1240
    188  CA       -37.1510  -48.8980    8.1650 C.3   411  ASN411      0.1653
    189  C        -35.7620  -49.5750    8.3780 C.2   411  ASN411      0.2266
    190  O        -35.6970  -50.8020    8.3570 O.2   411  ASN411     -0.2867
    191  CB       -37.6350  -48.0260    9.3680 C.3   411  ASN411      0.1155
    192  CG       -37.7810  -48.7260   10.6990 C.2   411  ASN411      0.2627
    193  OD1      -37.2630  -49.8170   10.9220 O.2   411  ASN411     -0.2716
    194  ND2      -38.4160  -48.0620   11.6520 N.am  411  ASN411     -0.0877
    195  N        -33.9180  -50.2340   11.0130 N.3   413  THR413     -0.1203
    196  CA       -33.8830  -51.1550   12.1730 C.3   413  THR413      0.1994
    197  C        -34.4520  -52.5490   11.8150 C.2   413  THR413      0.2617
    198  O        -33.8370  -53.5740   12.1430 O.2   413  THR413     -0.2717
    199  CB       -34.6450  -50.5380   13.3410 C.3   413  THR413      0.1784
    200  OG1      -33.9620  -49.3450   13.7320 O.3   413  THR413     -0.2211
    201  CG2      -34.7970  -51.4920   14.5230 C.3   413  THR413      0.0376
    202  N        -35.6040  -52.5820   11.1290 N.am  414  TRP414     -0.1975
    203  CA       -36.2140  -53.8400   10.7590 C.3   414  TRP414      0.1640
    204  C        -35.4310  -54.5560    9.6270 C.2   414  TRP414      0.2290
    205  O        -35.3770  -55.7830    9.6370 O.2   414  TRP414     -0.2864
    206  CB       -37.6910  -53.6410   10.4290 C.3   414  TRP414      0.0576
    207  CG       -38.5290  -53.7780   11.6760 C.ar  414  TRP414      0.0006
    208  CD1      -38.9170  -52.7750   12.5160 C.ar  414  TRP414      0.0946
    209  CD2      -38.9470  -55.0100   12.3030 C.ar  414  TRP414      0.0152
    210  NE1      -39.6480  -53.2880   13.5640 N.ar  414  TRP414     -0.2442
    211  CE2      -39.6930  -54.6600   13.4500 C.ar  414  TRP414      0.0810
    212  CE3      -38.8270  -56.3730   11.9590 C.ar  414  TRP414      0.0012
    213  CZ2      -40.2650  -55.6230   14.2950 C.ar  414  TRP414      0.0191
    214  CZ3      -39.4500  -57.3200   12.7650 C.ar  414  TRP414      0.0001
    215  CH2      -40.1540  -56.9430   13.9240 C.ar  414  TRP414      0.0015
    216  N        -32.5420  -44.4360    4.7130 N.3   721  LYS721     -0.1245
    217  CA       -33.3900  -43.4110    5.3360 C.3   721  LYS721      0.1561
    218  C        -34.2530  -42.6230    4.2920 C.2   721  LYS721      0.2260
    219  O        -35.4430  -42.5210    4.5460 O.2   721  LYS721     -0.2867
    220  CB       -32.5590  -42.4570    6.1970 C.3   721  LYS721      0.0271
    221  CG       -33.3870  -41.6480    7.1880 C.3   721  LYS721      0.0035
    222  CD       -32.5520  -40.5390    7.8240 C.3   721  LYS721      0.0206
    223  CE       -33.3460  -39.6320    8.7200 C.3   721  LYS721      0.1093
    224  NZ       -32.5690  -38.4090    9.0670 N.3   721  LYS721     -0.1314
    225  N        -37.0630  -45.1350    3.1310 N.3   724  SER724     -0.1202
    226  CA       -37.9510  -45.6100    4.2130 C.3   724  SER724      0.2020
    227  C        -38.8050  -44.4550    4.7830 C.2   724  SER724      0.2619
    228  O        -39.8880  -44.7120    5.3040 O.2   724  SER724     -0.2717
    229  CB       -37.1880  -46.3600    5.3060 C.3   724  SER724      0.2103
    230  OG       -36.4870  -45.5130    6.1970 O.3   724  SER724     -0.2182
    231  N        -38.3450  -43.2020    4.6250 N.am  725  SER725     -0.1951
    232  CA       -39.0590  -41.9880    5.0330 C.3   725  SER725      0.1924
    233  C        -39.9400  -41.4570    3.8980 C.2   725  SER725      0.2314
    234  O        -40.7490  -40.5640    4.1410 O.2   725  SER725     -0.2863
    235  CB       -38.0750  -40.8950    5.4440 C.3   725  SER725      0.2116
    236  OG       -37.5700  -41.1200    6.7480 O.3   725  SER725     -0.2180
@<TRIPOS>BOND
     1   171   170    2
     2   170   169    1
     3   169   172    1
     4   169   168    1
     5   172   173    1
     6   173   174    2
     7   173   175   am
     8    18    20   ar
     9    18    17   ar
    10    16    17    1
    11    16    13    1
    12    20    21   ar
    13    17    19   ar
    14   182   181    1
    15   182   183    1
    16   185   184    1
    17    21    19   ar
    18   181   180    1
    19    12    13    1
    20   176   177    1
    21    13    14    1
    22   225   226    1
    23   183   184    2
    24   184   186    1
    25   180   177    1
    26   233   234    2
    27   233   232    1
    28   177   178    1
    29    29    28   ar
    30   226   227    1
    31   226   229    1
    32   218   219    2
    33   218   217    1
    34    14    15    2
    35    14    22   am
    36   231   227   am
    37   231   232    1
    38   216   217    1
    39   227   228    2
    40   232   235    1
    41    22    23    1
    42    28    30   ar
    43    28    27    1
    44   178   179    2
    45   229   230    1
    46   217   220    1
    47   235   236    1
    48    64    62    1
    49    52    51   ar
    50    53    51   ar
    51   220   221    1
    52    51    50    1
    53    27    26    1
    54    23    26    1
    55    23    24    1
    56    62    61    2
    57    62    63    1
    58    31    24   am
    59    31    32    1
    60   221   222    1
    61    34    33    2
    62    24    25    2
    63    50    47    1
    64    61    60    1
    65    38    36   ar
    66    35    36    1
    67    35    32    1
    68    36    37   ar
    69   222   223    1
    70   187   188    1
    71    47    46    1
    72    47    48    1
    73    32    33    1
    74   188   189    1
    75   188   191    1
    76    33    39   am
    77   190   189    2
    78    46    41   am
    79   223   224    1
    80    42    41    2
    81    60    59    1
    82    41    40    1
    83    48    49    2
    84   191   192    1
    85    39    40    1
    86    39    45    1
    87    59    58    1
    88   204   205    2
    89   204   203    1
    90    40    43    1
    91   206   203    1
    92   206   207    1
    93   192   193    2
    94   192   194   am
    95    45    44    1
    96   203   202    1
    97   195   196    1
    98    58    55    1
    99   202   197   am
   100    54    55    1
   101    43    44    1
   102    78    77   ar
   103    78    76   ar
   104    77    75   ar
   105    55    56    1
   106   207   209   ar
   107   207   208   ar
   108   197   198    2
   109   197   196    1
   110   130   128   ar
   111   130   132   ar
   112   212   209   ar
   113   212   214   ar
   114   196   199    1
   115   128   127   ar
   116   209   211   ar
   117    76    74   ar
   118   133   132    1
   119   208   210   ar
   120    75    72   ar
   121   132   131   ar
   122   214   215   ar
   123    56    57    2
   124    56    65   am
   125   199   200    1
   126   199   201    1
   127   127   126    1
   128   127   129   ar
   129   211   210   ar
   130   211   213   ar
   131    74    72   ar
   132    74    73   ar
   133   125   124    2
   134    72    70   ar
   135   126   123    1
   136    65    66    1
   137   215   213   ar
   138   131   129   ar
   139   105   103    1
   140   123   124    1
   141   123   122    1
   142    73    71   ar
   143    70    69    1
   144    70    71   ar
   145   103   104    1
   146   103   102    1
   147    66    69    1
   148    66    67    1
   149   141   139    1
   150    68    67    2
   151   156   155    2
   152    67    79   am
   153   154   155    1
   154   154   153    1
   155   139   138    1
   156   102    99    1
   157   155   157   am
   158   121   119   am
   159   101   100    2
   160    99   100    1
   161    99    98    1
   162    79    80    1
   163   137   136    2
   164   138   135    1
   165   138   140    1
   166    87    86    2
   167   100   106   am
   168   157   158    1
   169   160   159    2
   170    98    86   am
   171   119   118    1
   172   119   120    2
   173    82    81    2
   174   118   115    1
   175    86    85    1
   176   159   158    1
   177   135   136    1
   178   135   134    1
   179    80    81    1
   180    80    83    1
   181   158   161    1
   182   136   142   am
   183    88    85    1
   184    88    89    1
   185    94    96   ar
   186    94    91   ar
   187    96    97   ar
   188   106   107    1
   189    85    84    1
   190   114   115    1
   191   114   108   am
   192   115   116    1
   193   142   143    1
   194   145   144    2
   195    91    89   ar
   196    91    93   ar
   197    89    90   ar
   198   107   108    1
   199   107   110    1
   200    11     9    1
   201   161   162    1
   202   143   144    1
   203   143   146    1
   204   108   109    2
   205    97    95   ar
   206   162   163    1
   207   117   116    2
   208   163   164    1
   209    93    95   ar
   210    93    92   ar
   211     9    10    1
   212     9     8    2
   213    90    92   ar
   214   111   110    1
   215   111   113    1
   216   110   112    1
   217   146   147    1
   218   147   148    1
   219     8     7    1
   220   164   165    2
   221   166   165    1
   222     7     6    1
   223   148   149    1
   224   165   167    1
   225   149   150    2
   226     6     5    1
   227     5     2    1
   228   150   151    1
   229   150   152    1
   230     4     3    2
   231     2     3    1
   232     2     1    1
