@<TRIPOS>MOLECULE
tmp/3zedB00.pdb
 136 136 0 0 0
SMALL
GASTEIGER

@<TRIPOS>ATOM
      1  N        -14.3100    7.9800  -25.6210 N.3    53  ARG53      -0.1245
      2  CA       -13.1930    8.0890  -24.6840 C.3    53  ARG53       0.1563
      3  C        -12.0210    7.1460  -25.0400 C.2    53  ARG53       0.2260
      4  O        -10.8850    7.4080  -24.6420 O.2    53  ARG53      -0.2867
      5  CB       -13.6810    7.7570  -23.2690 C.3    53  ARG53       0.0307
      6  CG       -14.5020    8.8400  -22.6010 C.3    53  ARG53       0.0489
      7  CD       -14.8890    8.4630  -21.1660 C.3    53  ARG53       0.2205
      8  NE       -13.7540    8.2480  -20.2570 N.pl3  53  ARG53      -0.0865
      9  CZ       -13.1880    9.1930  -19.5100 C.cat  53  ARG53       0.5346
     10  NH1      -13.6410   10.4400  -19.5490 N.pl3  53  ARG53       0.1354
     11  NH2      -12.1630    8.9000  -18.7240 N.pl3  53  ARG53       0.1354
     12  N         -6.4070    2.0040   -1.6610 N.3   186  HIS186     -0.1226
     13  CA        -6.8190    3.4180   -1.7130 C.3   186  HIS186      0.1752
     14  C         -6.7830    3.9560   -3.1540 C.2   186  HIS186      0.2596
     15  O         -7.6450    4.7520   -3.5200 O.2   186  HIS186     -0.2718
     16  CB        -5.9380    4.2780   -0.7880 C.3   186  HIS186      0.0759
     17  CG        -6.1340    5.7650   -0.9490 C.ar  186  HIS186      0.0818
     18  ND1       -7.2430    6.4110   -0.4210 N.ar  186  HIS186     -0.2268
     19  CD2       -5.3600    6.6810   -1.5810 C.ar  186  HIS186      0.1154
     20  CE1       -7.1100    7.6880   -0.7490 C.ar  186  HIS186      0.1986
     21  NE2       -6.0030    7.8960   -1.4570 N.ar  186  HIS186     -0.2212
     22  N         -5.8030    3.5130   -3.9650 N.am  187  GLU187     -0.1965
     23  CA        -5.6280    3.9580   -5.3530 C.3   187  GLU187      0.1733
     24  C         -6.7330    3.4250   -6.2810 C.2   187  GLU187      0.2616
     25  O         -6.9880    4.0370   -7.3160 O.2   187  GLU187     -0.2715
     26  CB        -4.2370    3.5790   -5.9010 C.3   187  GLU187      0.0429
     27  CG        -3.7580    2.1770   -5.5460 C.3   187  GLU187      0.1163
     28  CD        -2.8510    2.0760   -4.3320 C.2   187  GLU187      0.3649
     29  OE1       -3.2650    2.5200   -3.2350 O.co2 187  GLU187     -0.2457
     30  OE2       -1.7260    1.5430   -4.4780 O.co2 187  GLU187     -0.2457
     31  N         -7.4030    2.3230   -5.9050 N.am  188  ASP188     -0.1958
     32  CA        -8.4810    1.7370   -6.6960 C.3   188  ASP188      0.1825
     33  C         -9.7420    2.6310   -6.7120 C.2   188  ASP188      0.2464
     34  O        -10.1310    3.1870   -5.6730 O.2   188  ASP188     -0.2730
     35  CB        -8.8290    0.3350   -6.1860 C.3   188  ASP188      0.1450
     36  CG        -7.8150   -0.7370   -6.5540 C.2   188  ASP188      0.3671
     37  OD1       -6.7770   -0.3950   -7.1830 O.co2 188  ASP188     -0.2456
     38  OD2       -8.0700   -1.9180   -6.2470 O.co2 188  ASP188     -0.2456
     39  N        -10.3780    2.7820   -7.9030 N.am  189  PRO189     -0.2715
     40  CA       -11.5790    3.6130   -7.9820 C.3   189  PRO189      0.1536
     41  C        -12.7630    3.0270   -7.2350 C.2   189  PRO189      0.2598
     42  O        -12.9290    1.8160   -7.1300 O.2   189  PRO189     -0.2715
     43  CB       -11.8700    3.6810   -9.4840 C.3   189  PRO189      0.0310
     44  CG       -11.2680    2.4370  -10.0430 C.3   189  PRO189      0.0237
     45  CD       -10.0500    2.1850   -9.2160 C.3   189  PRO189      0.0939
     46  N        -13.5850    3.9220   -6.7120 N.am  190  ASP190     -0.1972
     47  CA       -14.8290    3.6330   -6.0300 C.3   190  ASP190      0.1709
     48  C        -15.8480    3.1210   -7.0340 C.2   190  ASP190      0.2293
     49  O        -15.6790    3.3170   -8.2440 O.2   190  ASP190     -0.2864
     50  CB       -15.3600    4.9160   -5.3720 C.3   190  ASP190      0.1436
     51  CG       -14.5570    5.4940   -4.2270 C.2   190  ASP190      0.3671
     52  OD1      -13.7100    4.7700   -3.6680 O.co2 190  ASP190     -0.2456
     53  OD2      -14.8170    6.6510   -3.8520 O.co2 190  ASP190     -0.2456
     54  N        -18.5540    4.6070  -11.4630 N.3   193  TRP193     -0.1241
     55  CA       -18.4770    4.8510  -12.8940 C.3   193  TRP193      0.1605
     56  C        -18.8550    3.6840  -13.7770 C.2   193  TRP193      0.2264
     57  O        -18.9590    2.5360  -13.3220 O.2   193  TRP193     -0.2867
     58  CB       -17.0350    5.2680  -13.2350 C.3   193  TRP193      0.0550
     59  CG       -16.6390    6.5730  -12.6010 C.ar  193  TRP193      0.0003
     60  CD1      -16.9740    7.8280  -13.0250 C.ar  193  TRP193      0.0946
     61  CD2      -15.9270    6.7390  -11.3700 C.ar  193  TRP193      0.0152
     62  NE1      -16.4620    8.7720  -12.1620 N.ar  193  TRP193     -0.2442
     63  CE2      -15.8300    8.1300  -11.1270 C.ar  193  TRP193      0.0810
     64  CE3      -15.3620    5.8420  -10.4430 C.ar  193  TRP193      0.0012
     65  CZ2      -15.1500    8.6490  -10.0200 C.ar  193  TRP193      0.0191
     66  CZ3      -14.7060    6.3580   -9.3370 C.ar  193  TRP193      0.0001
     67  CH2      -14.6040    7.7420   -9.1340 C.ar  193  TRP193      0.0015
     68  N        -14.7800    3.5980  -18.2650 N.3   197  TRP197     -0.1227
     69  CA       -14.1070    4.7460  -17.6630 C.3   197  TRP197      0.1737
     70  C        -12.9530    4.3070  -16.7220 C.2   197  TRP197      0.2595
     71  O        -12.1990    5.1520  -16.2430 O.2   197  TRP197     -0.2718
     72  CB       -15.1210    5.6230  -16.9180 C.3   197  TRP197      0.0564
     73  CG       -15.9950    6.4450  -17.8140 C.ar  197  TRP197      0.0003
     74  CD1      -16.7780    5.9980  -18.8380 C.ar  197  TRP197      0.0946
     75  CD2      -16.2310    7.8570  -17.7150 C.ar  197  TRP197      0.0152
     76  NE1      -17.4720    7.0490  -19.3990 N.ar  197  TRP197     -0.2442
     77  CE2      -17.1820    8.1960  -18.7050 C.ar  197  TRP197      0.0810
     78  CE3      -15.7560    8.8660  -16.8590 C.ar  197  TRP197      0.0012
     79  CZ2      -17.6290    9.5160  -18.8980 C.ar  197  TRP197      0.0191
     80  CZ3      -16.1980   10.1720  -17.0480 C.ar  197  TRP197      0.0001
     81  CH2      -17.1230   10.4870  -18.0560 C.ar  197  TRP197      0.0015
     82  N        -12.8260    2.9980  -16.4580 N.am  198  LEU198     -0.1966
     83  CA       -11.7610    2.4430  -15.6210 C.3   198  LEU198      0.1728
     84  C        -10.4980    2.1530  -16.4800 C.2   198  LEU198      0.2616
     85  O         -9.4560    1.7480  -15.9480 O.2   198  LEU198     -0.2715
     86  CB       -12.2640    1.1800  -14.8920 C.3   198  LEU198      0.0311
     87  CG       -12.8290    1.3780  -13.4680 C.3   198  LEU198      0.0022
     88  CD1      -14.0790    2.2860  -13.4550 C.3   198  LEU198      0.0001
     89  CD2      -13.1180    0.0400  -12.8100 C.3   198  LEU198      0.0001
     90  N        -10.5970    2.4100  -17.8070 N.am  199  ILE199     -0.1963
     91  CA        -9.4960    2.2610  -18.7460 C.3   199  ILE199      0.1727
     92  C         -8.8500    3.6190  -18.9100 C.2   199  ILE199      0.2616
     93  O         -9.4870    4.5870  -19.3310 O.2   199  ILE199     -0.2715
     94  CB        -9.8770    1.6470  -20.1280 C.3   199  ILE199      0.0290
     95  CG1      -10.4860    0.2440  -20.0000 C.3   199  ILE199      0.0022
     96  CG2       -8.6370    1.6220  -21.0590 C.3   199  ILE199      0.0023
     97  CD1      -11.4110   -0.0830  -21.1230 C.3   199  ILE199      0.0001
     98  N         -7.5780    3.6780  -18.5850 N.am  200  ASN200     -0.1972
     99  CA        -6.7890    4.8800  -18.7280 C.3   200  ASN200      0.1688
    100  C         -5.7610    4.5990  -19.8250 C.2   200  ASN200      0.2292
    101  O         -4.7180    4.0120  -19.5340 O.2   200  ASN200     -0.2864
    102  CB        -6.1630    5.2500  -17.3640 C.3   200  ASN200      0.1181
    103  CG        -5.1720    6.4000  -17.3550 C.2   200  ASN200      0.2629
    104  OD1       -5.0440    7.1960  -18.3100 O.2   200  ASN200     -0.2716
    105  ND2       -4.4580    6.5150  -16.2420 N.am  200  ASN200     -0.0877
    106  N         -8.1720   -0.5240  -14.5490 N.3   211  TYR211     -0.1241
    107  CA        -8.5780   -0.8540  -13.1750 C.3   211  TYR211      0.1605
    108  C         -9.6970   -1.9170  -13.1740 C.2   211  TYR211      0.2264
    109  O        -10.2010   -2.2820  -12.1110 O.2   211  TYR211     -0.2867
    110  CB        -9.0330    0.4030  -12.4180 C.3   211  TYR211      0.0534
    111  CG        -7.9160    1.3870  -12.1710 C.ar  211  TYR211     -0.0201
    112  CD1       -7.1170    1.2920  -11.0340 C.ar  211  TYR211     -0.0009
    113  CD2       -7.6380    2.4030  -13.0860 C.ar  211  TYR211     -0.0009
    114  CE1       -6.0850    2.2000  -10.7990 C.ar  211  TYR211      0.0417
    115  CE2       -6.5890    3.2950  -12.8780 C.ar  211  TYR211      0.0417
    116  CZ        -5.8270    3.2020  -11.7260 C.ar  211  TYR211      0.1957
    117  OH        -4.8190    4.1060  -11.5070 O.3   211  TYR211     -0.2866
    118  N        -14.7130    4.0590    3.3000 N.3   403  ASN403     -0.1240
    119  CA       -13.5410    4.8890    3.6230 C.3   403  ASN403      0.1653
    120  C        -13.2860    4.8160    5.1330 C.2   403  ASN403      0.2266
    121  O        -14.1630    4.3530    5.8770 O.2   403  ASN403     -0.2867
    122  CB       -13.7520    6.3310    3.1660 C.3   403  ASN403      0.1155
    123  CG       -13.7730    6.5140    1.6710 C.2   403  ASN403      0.2627
    124  OD1      -12.8290    6.1330    0.9620 O.2   403  ASN403     -0.2716
    125  ND2      -14.8230    7.1550    1.1590 N.am  403  ASN403     -0.0877
    126  N        -17.6890    4.1150   -0.4710 N.3   409  ARG409     -0.1245
    127  CA       -16.8290    4.0950   -1.6600 C.3   409  ARG409      0.1563
    128  C        -17.6890    3.6250   -2.8460 C.2   409  ARG409      0.2260
    129  O        -17.2950    2.7580   -3.6270 O.2   409  ARG409     -0.2867
    130  CB       -15.5870    3.2050   -1.4350 C.3   409  ARG409      0.0307
    131  CG       -14.5460    3.8330   -0.5260 C.3   409  ARG409      0.0489
    132  CD       -13.2800    3.0150   -0.4060 C.3   409  ARG409      0.2205
    133  NE       -12.5220    2.9810   -1.6640 N.pl3 409  ARG409     -0.0865
    134  CZ       -11.3550    2.3630   -1.8230 C.cat 409  ARG409      0.5346
    135  NH1      -10.7710    1.7580   -0.7970 N.pl3 409  ARG409      0.1354
    136  NH2      -10.7660    2.3410   -3.0120 N.pl3 409  ARG409      0.1354
@<TRIPOS>BOND
     1     1     2    1
     2     3     2    1
     3     3     4    2
     4     2     5    1
     5     5     6    1
     6     6     7    1
     7     7     8    1
     8    97    95    1
     9    96    94    1
    10     8     9    2
    11    94    95    1
    12    94    91    1
    13   100   101    2
    14   100    99    1
    15    10     9    1
    16     9    11    1
    17    76    74   ar
    18    76    77   ar
    19    93    92    2
    20    92    91    1
    21    92    98   am
    22    79    77   ar
    23    79    81   ar
    24    74    73   ar
    25    91    90    1
    26    99    98    1
    27    99   102    1
    28    77    75   ar
    29   104   103    2
    30    68    69    1
    31    81    80   ar
    32    73    75   ar
    33    73    72    1
    34    90    84   am
    35    75    78   ar
    36    69    72    1
    37    69    70    1
    38   102   103    1
    39   103   105   am
    40    80    78   ar
    41    70    82   am
    42    70    71    2
    43    84    85    2
    44    84    83    1
    45    82    83    1
    46    83    86    1
    47    86    87    1
    48   106   107    1
    49    56    57    2
    50    56    55    1
    51    87    88    1
    52    87    89    1
    53    58    55    1
    54    58    59    1
    55   107   108    1
    56   107   110    1
    57   108   109    2
    58   113   115   ar
    59   113   111   ar
    60    60    59   ar
    61    60    62   ar
    62    55    54    1
    63   115   116   ar
    64    59    61   ar
    65   110   111    1
    66   111   112   ar
    67    62    63   ar
    68   116   117    1
    69   116   114   ar
    70    61    63   ar
    71    61    64   ar
    72    63    65   ar
    73   112   114   ar
    74    64    66   ar
    75    44    43    1
    76    44    45    1
    77    65    67   ar
    78    43    40    1
    79    66    67   ar
    80    45    39    1
    81    49    48    2
    82    40    39    1
    83    40    41    1
    84    39    33   am
    85    25    24    2
    86    41    42    2
    87    41    46   am
    88    37    36   ar
    89    48    47    1
    90    46    47    1
    91    33    32    1
    92    33    34    2
    93    32    35    1
    94    32    31    1
    95    36    38   ar
    96    36    35    1
    97    24    31   am
    98    24    23    1
    99    47    50    1
   100    26    27    1
   101    26    23    1
   102    27    28    1
   103    50    51    1
   104    23    22    1
   105    30    28   ar
   106    28    29   ar
   107    51    53   ar
   108    51    52   ar
   109    22    14   am
   110   129   128    2
   111    15    14    2
   112    14    13    1
   113   136   134    1
   114   128   127    1
   115   134   133    2
   116   134   135    1
   117    13    12    1
   118    13    16    1
   119   133   132    1
   120   127   130    1
   121   127   126    1
   122    19    21   ar
   123    19    17   ar
   124    21    20   ar
   125   130   131    1
   126    17    16    1
   127    17    18   ar
   128    20    18   ar
   129   131   132    1
   130   124   123    2
   131   125   123   am
   132   123   122    1
   133   122   119    1
   134   118   119    1
   135   119   120    1
   136   120   121    2
