@<TRIPOS>MOLECULE
tmp/3zeiA02.pdb
 76 70 0 0 0
SMALL
GASTEIGER

@<TRIPOS>ATOM
      1  N        -15.2390    4.4140   12.9460 N.3   249  LEU249     -0.1245
      2  CA       -13.9220    3.8060   12.9200 C.3   249  LEU249      0.1561
      3  C        -13.6410    2.9410   14.1710 C.2   249  LEU249      0.2260
      4  O        -12.9650    1.8850   14.0750 O.2   249  LEU249     -0.2867
      5  CB       -12.8350    4.8870   12.7350 C.3   249  LEU249      0.0270
      6  CG       -11.3960    4.3490   12.6670 C.3   249  LEU249      0.0019
      7  CD1      -11.0920    3.6290   11.3510 C.3   249  LEU249      0.0001
      8  CD2      -10.3870    5.4640   12.9180 C.3   249  LEU249      0.0001
      9  N        -15.4970   -0.4310   13.7350 N.3   252  ALA252     -0.1231
     10  CA       -14.7620   -1.2050   12.7310 C.3   252  ALA252      0.1694
     11  C        -13.5240   -1.8690   13.3190 C.2   252  ALA252      0.2591
     12  O        -13.2270   -3.0290   13.0280 O.2   252  ALA252     -0.2718
     13  CB       -14.3710   -0.3070   11.5700 C.3   252  ALA252      0.0304
     14  N        -12.7890   -1.1370   14.1560 N.am  253  ARG253     -0.1980
     15  CA       -11.5790   -1.6870   14.7610 C.3   253  ARG253      0.1597
     16  C        -11.9540   -2.8060   15.7350 C.2   253  ARG253      0.2287
     17  O        -11.2860   -3.8370   15.7770 O.2   253  ARG253     -0.2864
     18  CB       -10.7110   -0.5750   15.4040 C.3   253  ARG253      0.0334
     19  CG        -9.9960    0.2490   14.3180 C.3   253  ARG253      0.0492
     20  CD        -8.8430    1.1210   14.8110 C.3   253  ARG253      0.2205
     21  NE        -9.2240    2.5280   14.9710 N.pl3 253  ARG253     -0.0865
     22  CZ        -9.5510    3.1020   16.1320 C.cat 253  ARG253      0.5346
     23  NH1       -9.5430    2.3980   17.2630 N.pl3 253  ARG253      0.1354
     24  NH2       -9.8910    4.3860   16.1640 N.pl3 253  ARG253      0.1354
     25  N        -12.7550   -6.0940   13.9960 N.3   256  ALA256     -0.1245
     26  CA       -11.5570   -6.8420   13.5930 C.3   256  ALA256      0.1562
     27  C        -10.8540   -7.5180   14.7700 C.2   256  ALA256      0.2260
     28  O        -10.3910   -8.6550   14.6560 O.2   256  ALA256     -0.2867
     29  CB       -10.5560   -5.9260   12.8630 C.3   256  ALA256      0.0290
     30  N        -12.4910   -8.2910    9.7080 N.3   262  LEU262     -0.1231
     31  CA       -11.7690   -7.1220    9.2200 C.3   262  LEU262      0.1693
     32  C        -12.5980   -6.4490    8.1290 C.2   262  LEU262      0.2591
     33  O        -12.6080   -6.9120    6.9900 O.2   262  LEU262     -0.2718
     34  CB       -10.4180   -7.5390    8.6800 C.3   262  LEU262      0.0284
     35  CG        -9.5930   -6.3650    8.1060 C.3   262  LEU262      0.0019
     36  CD1       -9.4320   -5.2170    9.1100 C.3   262  LEU262      0.0001
     37  CD2       -8.2650   -6.9290    7.6820 C.3   262  LEU262      0.0001
     38  N        -13.3010   -5.3800    8.4790 N.am  263  VAL263     -0.1980
     39  CA       -14.3010   -4.8080    7.5980 C.3   263  VAL263      0.1595
     40  C        -13.9960   -3.3400    7.3630 C.2   263  VAL263      0.2287
     41  O        -13.1480   -2.7600    8.0430 O.2   263  VAL263     -0.2864
     42  CB       -15.7150   -4.9780    8.1790 C.3   263  VAL263      0.0276
     43  CG1      -16.1460   -6.4530    8.1560 C.3   263  VAL263      0.0022
     44  CG2      -15.7990   -4.3650    9.5910 C.3   263  VAL263      0.0022
     45  N        -14.9160    0.8840    6.8630 N.3   265  ILE265     -0.1245
     46  CA       -15.4080    1.8470    7.8230 C.3   265  ILE265      0.1561
     47  C        -16.9070    1.9380    7.7730 C.2   265  ILE265      0.2260
     48  O        -17.5500    2.1390    8.8140 O.2   265  ILE265     -0.2867
     49  CB       -14.6830    3.2320    7.7370 C.3   265  ILE265      0.0252
     50  CG1      -15.3720    4.2790    8.6440 C.3   265  ILE265      0.0019
     51  CG2      -14.6160    3.7320    6.3080 C.3   265  ILE265      0.0019
     52  CD1      -14.5500    5.5260    8.8770 C.3   265  ILE265      0.0001
     53  N        -11.8710   -4.9220    5.1690 N.3   296  GLY296     -0.1225
     54  CA       -11.0660   -3.8100    5.6740 C.3   296  GLY296      0.1811
     55  C         -9.6660   -3.6380    5.1050 C.2   296  GLY296      0.2280
     56  O         -9.0820   -2.5750    5.2560 O.2   296  GLY296     -0.2866
     57  N         -8.4410   -0.6740    3.0810 N.3   299  TYR299     -0.1227
     58  CA        -8.3770    0.6200    3.7610 C.3   299  TYR299      0.1736
     59  C         -7.0740    0.8150    4.5420 C.2   299  TYR299      0.2595
     60  O         -6.9290    1.8110    5.2480 O.2   299  TYR299     -0.2718
     61  CB        -9.5450    0.7480    4.7350 C.3   299  TYR299      0.0548
     62  CG       -10.8840    0.6700    4.0760 C.ar  299  TYR299     -0.0200
     63  CD1      -11.4390   -0.5560    3.6610 C.ar  299  TYR299     -0.0009
     64  CD2      -11.5940    1.8330    3.8370 C.ar  299  TYR299     -0.0009
     65  CE1      -12.6840   -0.5820    3.0310 C.ar  299  TYR299      0.0417
     66  CE2      -12.8160    1.8200    3.2180 C.ar  299  TYR299      0.0417
     67  CZ       -13.3620    0.6280    2.8260 C.ar  299  TYR299      0.1957
     68  OH       -14.5790    0.7200    2.2240 O.3   299  TYR299     -0.2866
     69  N         -6.1570   -0.1470    4.4530 N.am  300  LEU300     -0.1980
     70  CA        -4.9010   -0.0690    5.1930 C.3   300  LEU300      0.1596
     71  C         -3.7640    0.1510    4.2030 C.2   300  LEU300      0.2287
     72  O         -3.4870    1.2920    3.8310 O.2   300  LEU300     -0.2864
     73  CB        -4.6480   -1.3360    6.0250 C.3   300  LEU300      0.0297
     74  CG        -5.7390   -1.9490    6.9280 C.3   300  LEU300      0.0022
     75  CD1       -5.3910   -3.4000    7.2020 C.3   300  LEU300      0.0001
     76  CD2       -5.9870   -1.1970    8.2320 C.3   300  LEU300      0.0001
@<TRIPOS>BOND
     1    68    67    1
     2    67    65   ar
     3    67    66   ar
     4    65    63   ar
     5    57    58    1
     6    66    64   ar
     7    63    62   ar
     8    58    59    1
     9    58    61    1
    10    72    71    2
    11    64    62   ar
    12    62    61    1
    13    71    70    1
    14    69    59   am
    15    69    70    1
    16    59    60    2
    17    55    56    2
    18    55    54    1
    19    53    54    1
    20    70    73    1
    21    73    74    1
    22    51    49    1
    23    45    46    1
    24    74    75    1
    25    74    76    1
    26    33    32    2
    27    40    39    1
    28    40    41    2
    29    39    42    1
    30    39    38    1
    31    37    35    1
    32    49    46    1
    33    49    50    1
    34    47    46    1
    35    47    48    2
    36    35    34    1
    37    35    36    1
    38    32    38   am
    39    32    31    1
    40    43    42    1
    41    42    44    1
    42    50    52    1
    43    34    31    1
    44    31    30    1
    45     7     6    1
    46    13    10    1
    47     6     5    1
    48     6     8    1
    49    10    11    1
    50    10     9    1
    51     5     2    1
    52    29    26    1
    53     2     1    1
    54     2     3    1
    55    12    11    2
    56    11    14   am
    57    26    25    1
    58    26    27    1
    59     4     3    2
    60    14    15    1
    61    19    20    1
    62    19    18    1
    63    28    27    2
    64    15    18    1
    65    15    16    1
    66    20    21    1
    67    21    22    2
    68    16    17    2
    69    22    24    1
    70    22    23    1
