@<TRIPOS>MOLECULE
tmp/3zeiA01.pdb
 156 151 0 0 0
SMALL
GASTEIGER

@<TRIPOS>ATOM
      1  N        -20.5820   -4.5910   -4.0440 N.3    44  LYS44      -0.1245
      2  CA       -20.7490   -4.0170   -5.4070 C.3    44  LYS44       0.1561
      3  C        -20.6360   -5.0580   -6.5350 C.2    44  LYS44       0.2260
      4  O        -21.1360   -4.8330   -7.6390 O.2    44  LYS44      -0.2867
      5  CB       -19.7700   -2.8740   -5.6340 C.3    44  LYS44       0.0271
      6  CG       -20.1710   -1.5720   -4.9260 C.3    44  LYS44       0.0035
      7  CD       -21.6790   -1.3420   -4.9910 C.3    44  LYS44       0.0206
      8  CE       -22.0930    0.0790   -4.6420 C.3    44  LYS44       0.1093
      9  NZ       -21.2620    0.4160   -3.4820 N.3    44  LYS44      -0.1314
     10  N        -18.1390    6.5590  -14.0270 N.3    70  PRO70      -0.2102
     11  CA       -17.3540    7.3620  -13.1110 C.3    70  PRO70       0.1504
     12  C        -17.4890    6.7770  -11.7140 C.2    70  PRO70       0.2576
     13  O        -18.5900    6.7220  -11.1770 O.2    70  PRO70      -0.2718
     14  CB       -18.0350    8.7290  -13.1780 C.3    70  PRO70       0.0282
     15  CG       -19.4630    8.4220  -13.4990 C.3    70  PRO70       0.0208
     16  CD       -19.4890    7.1170  -14.2370 C.3    70  PRO70       0.0893
     17  N        -16.3960    6.3310  -11.1250 N.am   71  THR71      -0.1939
     18  CA       -16.4990    5.7480   -9.7720 C.3    71  THR71       0.2028
     19  C        -15.1990    5.9160   -9.0140 C.2    71  THR71       0.2643
     20  O        -14.1260    5.6970   -9.5690 O.2    71  THR71      -0.2714
     21  CB       -16.8960    4.2410   -9.8140 C.3    71  THR71       0.1808
     22  OG1      -16.9660    3.6700   -8.4720 O.3    71  THR71      -0.2208
     23  CG2      -15.8920    3.4720  -10.7120 C.3    71  THR71       0.0379
     24  N        -15.3060    6.3080   -7.7420 N.am   72  SER72      -0.1935
     25  CA       -14.1440    6.2940   -6.8590 C.3    72  SER72       0.2055
     26  C        -14.2430    5.1900   -5.7860 C.2    72  SER72       0.2644
     27  O        -13.5930    5.2750   -4.7290 O.2    72  SER72      -0.2714
     28  CB       -13.9900    7.6650   -6.2030 C.3    72  SER72       0.2130
     29  OG       -15.1920    7.9870   -5.5320 O.3    72  SER72      -0.2179
     30  N        -15.0430    4.1570   -6.0540 N.am   73  GLY73      -0.1939
     31  CA       -15.3010    3.1370   -5.0350 C.3    73  GLY73       0.2014
     32  C        -15.3240    1.7130   -5.5120 C.2    73  GLY73       0.2639
     33  O        -14.7160    1.3540   -6.5400 O.2    73  GLY73      -0.2714
     34  N        -16.0340    0.8870   -4.7500 N.am   74  ASN74      -0.1958
     35  CA       -16.0590   -0.5240   -4.9910 C.3    74  ASN74       0.1819
     36  C        -16.7470   -0.8870   -6.3150 C.2    74  ASN74       0.2621
     37  O        -16.4780   -1.9460   -6.8670 O.2    74  ASN74      -0.2715
     38  CB       -16.8070   -1.2440   -3.8400 C.3    74  ASN74       0.1195
     39  CG       -15.9640   -1.3800   -2.5630 C.2    74  ASN74       0.2630
     40  OD1      -14.7920   -1.6960   -2.6170 O.2    74  ASN74      -0.2716
     41  ND2      -16.6060   -1.2370   -1.4200 N.am   74  ASN74      -0.0877
     42  N        -17.6520   -0.0520   -6.7740 N.am   75  THR75      -0.1951
     43  CA       -18.3280   -0.3020   -8.0540 C.3    75  THR75       0.1897
     44  C        -17.3190   -0.3810   -9.2130 C.2    75  THR75       0.2313
     45  O        -17.4580   -1.2100  -10.1120 O.2    75  THR75      -0.2863
     46  CB       -19.3620    0.7890   -8.3060 C.3    75  THR75       0.1794
     47  OG1      -20.3910    0.6710   -7.3190 O.3    75  THR75      -0.2208
     48  CG2      -19.9910    0.6720   -9.7320 C.3    75  THR75       0.0378
     49  N        -15.3890   14.2360   -7.5480 N.3   122  MET122     -0.1230
     50  CA       -16.3670   13.3760   -8.2060 C.3   122  MET122      0.1702
     51  C        -17.1000   14.0350   -9.3740 C.2   122  MET122      0.2593
     52  O        -17.3210   13.3790  -10.3930 O.2   122  MET122     -0.2718
     53  CB       -17.3770   12.7840   -7.2060 C.3   122  MET122      0.0401
     54  CG       -16.9590   11.4380   -6.6070 C.3   122  MET122      0.0596
     55  SD       -16.4660   10.1340   -7.7790 S.3   122  MET122     -0.1393
     56  CE       -17.9960    9.7680   -8.6440 C.3   122  MET122      0.0692
     57  N        -17.4780   15.3110   -9.2360 N.am  123  SER123     -0.1952
     58  CA       -18.2360   15.9940  -10.3000 C.3   123  SER123      0.1924
     59  C        -17.4390   16.0410  -11.6210 C.2   123  SER123      0.2314
     60  O        -18.0180   15.9290  -12.6900 O.2   123  SER123     -0.2863
     61  CB       -18.6750   17.3990   -9.8700 C.3   123  SER123      0.2116
     62  OG       -17.5410   18.1820   -9.5440 O.3   123  SER123     -0.2180
     63  N        -17.6470   12.5760  -13.2560 N.3   126  ILE126     -0.1245
     64  CA       -18.9670   12.4930  -13.8790 C.3   126  ILE126      0.1561
     65  C        -19.0250   13.3020  -15.1890 C.2   126  ILE126      0.2260
     66  O        -19.5010   12.7840  -16.2100 O.2   126  ILE126     -0.2867
     67  CB       -20.0760   12.9590  -12.9150 C.3   126  ILE126      0.0252
     68  CG1      -20.1910   11.9840  -11.7320 C.3   126  ILE126      0.0019
     69  CG2      -21.4260   13.1080  -13.6240 C.3   126  ILE126      0.0019
     70  CD1      -20.6400   12.6520  -10.4470 C.3   126  ILE126      0.0001
     71  N        -24.8390    3.4680  -11.7920 N.3   144  GLN144     -0.1231
     72  CA       -25.1800    2.7480  -10.5460 C.3   144  GLN144      0.1698
     73  C        -26.2410    3.4310   -9.6600 C.2   144  GLN144      0.2592
     74  O        -27.0140    2.7390   -8.9820 O.2   144  GLN144     -0.2718
     75  CB       -23.9120    2.4900   -9.7240 C.3   144  GLN144      0.0381
     76  CG       -23.2240    3.7630   -9.2280 C.3   144  GLN144      0.0905
     77  CD       -22.0780    3.4780   -8.2580 C.2   144  GLN144      0.2608
     78  OE1      -22.0630    2.4360   -7.5730 O.2   144  GLN144     -0.2717
     79  NE2      -21.1180    4.4070   -8.1810 N.am  144  GLN144     -0.0878
     80  N        -26.2900    4.7640   -9.6790 N.am  145  PHE145     -0.1976
     81  CA       -27.2630    5.5100   -8.8650 C.3   145  PHE145      0.1639
     82  C        -28.6690    5.5890   -9.4340 C.2   145  PHE145      0.2290
     83  O        -29.6050    6.0320   -8.7310 O.2   145  PHE145     -0.2864
     84  CB       -26.7640    6.9260   -8.5670 C.3   145  PHE145      0.0560
     85  CG       -25.6010    6.9690   -7.6170 C.ar  145  PHE145     -0.0200
     86  CD1      -25.8100    6.9580   -6.2240 C.ar  145  PHE145     -0.0042
     87  CD2      -24.2960    7.0310   -8.1000 C.ar  145  PHE145     -0.0042
     88  CE1      -24.7280    7.0100   -5.3420 C.ar  145  PHE145     -0.0003
     89  CE2      -23.2130    7.0730   -7.2230 C.ar  145  PHE145     -0.0003
     90  CZ       -23.4350    7.0550   -5.8430 C.ar  145  PHE145     -0.0000
     91  N        -25.6490    4.0440    0.2470 N.3   178  GLY178     -0.1210
     92  CA       -24.7640    4.7290   -0.7230 C.3   178  GLY178      0.1956
     93  C        -25.6090    5.0550   -1.9410 C.2   178  GLY178      0.2612
     94  O        -26.1210    6.1590   -2.0680 O.2   178  GLY178     -0.2717
     95  N        -25.8110    4.0510   -2.8010 N.am  179  THR179     -0.1952
     96  CA       -26.8110    4.1550   -3.8790 C.3   179  THR179      0.1897
     97  C        -28.1990    3.9240   -3.3410 C.2   179  THR179      0.2313
     98  O        -29.1800    4.4210   -3.9070 O.2   179  THR179     -0.2863
     99  CB       -26.5760    3.1110   -5.0120 C.3   179  THR179      0.1794
    100  OG1      -26.8030    1.7990   -4.4950 O.3   179  THR179     -0.2208
    101  CG2      -25.1510    3.1900   -5.5600 C.3   179  THR179      0.0378
    102  N        -24.8960   18.2730    2.5350 N.3   215  LYS215     -0.1245
    103  CA       -23.7360   17.5100    2.1600 C.3   215  LYS215      0.1561
    104  C        -22.5140   18.1080    2.8480 C.2   215  LYS215      0.2260
    105  O        -22.4290   19.3210    2.9900 O.2   215  LYS215     -0.2867
    106  CB       -23.5840   17.5130    0.6310 C.3   215  LYS215      0.0271
    107  CG       -22.2850   16.9220    0.1170 C.3   215  LYS215      0.0035
    108  CD       -22.2840   16.7180   -1.3910 C.3   215  LYS215      0.0206
    109  CE       -20.9050   16.2010   -1.8040 C.3   215  LYS215      0.1093
    110  NZ       -20.8420   15.9180   -3.2730 N.3   215  LYS215     -0.1314
    111  N        -16.6150   13.5660    4.3130 N.3   218  HIS218     -0.1241
    112  CA       -16.6050   12.5430    5.3730 C.3   218  HIS218      0.1621
    113  C        -15.7730   11.3770    4.8910 C.2   218  HIS218      0.2264
    114  O        -15.5410   11.2490    3.6910 O.2   218  HIS218     -0.2867
    115  CB       -18.0230   12.0950    5.7340 C.3   218  HIS218      0.0745
    116  CG       -18.6850   11.2930    4.6600 C.ar  218  HIS218      0.0817
    117  ND1      -18.4350    9.9490    4.4780 N.ar  218  HIS218     -0.2268
    118  CD2      -19.5450   11.6550    3.6770 C.ar  218  HIS218      0.1154
    119  CE1      -19.1290    9.5140    3.4380 C.ar  218  HIS218      0.1986
    120  NE2      -19.8160   10.5270    2.9390 N.ar  218  HIS218     -0.2212
    121  N        -18.4480    4.8210    0.7330 N.3   222  GLY222     -0.1210
    122  CA       -19.4970    3.8960    0.2630 C.3   222  GLY222      0.1956
    123  C        -20.8600    4.3950    0.6390 C.2   222  GLY222      0.2612
    124  O        -21.8550    4.0740   -0.0100 O.2   222  GLY222     -0.2717
    125  N        -20.9350    5.1840    1.7080 N.am  223  ILE223     -0.1965
    126  CA       -22.2200    5.7440    2.0890 C.3   223  ILE223      0.1727
    127  C        -22.0930    7.2370    2.0440 C.2   223  ILE223      0.2617
    128  O        -21.0090    7.7400    1.7380 O.2   223  ILE223     -0.2715
    129  CB       -22.7070    5.2230    3.4710 C.3   223  ILE223      0.0290
    130  CG1      -21.7920    5.7110    4.6170 C.3   223  ILE223      0.0022
    131  CG2      -22.7670    3.7060    3.4470 C.3   223  ILE223      0.0023
    132  CD1      -22.3870    5.5070    6.0100 C.3   223  ILE223      0.0001
    133  N        -23.1810    7.9470    2.3450 N.am  224  GLY224     -0.1940
    134  CA       -23.1990    9.4090    2.3030 C.3   224  GLY224      0.2014
    135  C        -22.8180   10.0000    0.9420 C.2   224  GLY224      0.2639
    136  O        -21.7660   10.6390    0.8200 O.2   224  GLY224     -0.2714
    137  N        -23.6630    9.7700   -0.0700 N.am  225  ALA225     -0.1963
    138  CA       -23.3770   10.2080   -1.4570 C.3   225  ALA225      0.1728
    139  C        -23.5560   11.7040   -1.6340 C.2   225  ALA225      0.2617
    140  O        -22.9820   12.2820   -2.5460 O.2   225  ALA225     -0.2715
    141  CB       -24.2450    9.4560   -2.4670 C.3   225  ALA225      0.0334
    142  N        -24.3810   12.3160   -0.7820 N.am  226  GLY226     -0.1940
    143  CA       -24.4750   13.7700   -0.7080 C.3   226  GLY226      0.2014
    144  C        -25.7330   14.2830   -1.3510 C.2   226  GLY226      0.2638
    145  O        -25.9260   15.4780   -1.4590 O.2   226  GLY226     -0.2714
    146  N        -26.5920   13.3650   -1.7810 N.am  227  PHE227     -0.1973
    147  CA       -27.8670   13.6880   -2.4100 C.3   227  PHE227      0.1639
    148  C        -28.7410   12.4770   -2.1570 C.2   227  PHE227      0.2290
    149  O        -28.2450   11.4510   -1.6820 O.2   227  PHE227     -0.2864
    150  CB       -27.6860   13.9350   -3.9190 C.3   227  PHE227      0.0560
    151  CG       -27.1640   12.7370   -4.6720 C.ar  227  PHE227     -0.0200
    152  CD1      -25.8180   12.4220   -4.6560 C.ar  227  PHE227     -0.0042
    153  CD2      -28.0250   11.9210   -5.3960 C.ar  227  PHE227     -0.0042
    154  CE1      -25.3310   11.3140   -5.3280 C.ar  227  PHE227     -0.0003
    155  CE2      -27.5330   10.8180   -6.0790 C.ar  227  PHE227     -0.0003
    156  CZ       -26.1850   10.5130   -6.0320 C.ar  227  PHE227     -0.0000
@<TRIPOS>BOND
     1    66    65    2
     2    65    64    1
     3    16    10    1
     4    16    15    1
     5    10    11    1
     6    64    63    1
     7    64    67    1
     8    69    67    1
     9    15    14    1
    10    14    11    1
    11    11    12    1
    12    67    68    1
    13    60    59    2
    14    71    72    1
    15    68    70    1
    16    12    13    2
    17    12    17   am
    18    59    58    1
    19    17    18    1
    20    23    21    1
    21    72    75    1
    22    72    73    1
    23    52    51    2
    24    58    61    1
    25    58    57    1
    26    45    44    2
    27    61    62    1
    28    21    18    1
    29    21    22    1
    30    18    19    1
    31    48    46    1
    32    75    76    1
    33    80    73   am
    34    80    81    1
    35    73    74    2
    36    20    19    2
    37    82    81    1
    38    82    83    2
    39    51    57   am
    40    51    50    1
    41    76    77    1
    42    44    43    1
    43    19    24   am
    44    81    84    1
    45    56    55    1
    46    84    85    1
    47    46    43    1
    48    46    47    1
    49    77    79   am
    50    77    78    2
    51    50    49    1
    52    50    53    1
    53    87    85   ar
    54    87    89   ar
    55    43    42    1
    56    55    54    1
    57    24    25    1
    58     4     3    2
    59    85    86   ar
    60    89    90   ar
    61    53    54    1
    62    37    36    2
    63    25    28    1
    64    25    26    1
    65    42    36   am
    66    33    32    2
    67     3     2    1
    68    36    35    1
    69    86    88   ar
    70    28    29    1
    71   155   156   ar
    72   155   153   ar
    73    30    26   am
    74    30    31    1
    75   156   154   ar
    76    90    88   ar
    77    26    27    2
    78     5     2    1
    79     5     6    1
    80   101    99    1
    81    32    31    1
    82    32    34   am
    83     2     1    1
    84   153   151   ar
    85   154   152   ar
    86    99   100    1
    87    99    96    1
    88    35    34    1
    89    35    38    1
    90     7     6    1
    91     7     8    1
    92   151   152   ar
    93   151   150    1
    94     8     9    1
    95   150   147    1
    96    98    97    2
    97    96    97    1
    98    96    95    1
    99    38    39    1
   100   110   109    1
   101    95    93   am
   102    40    39    2
   103    39    41   am
   104   140   139    2
   105   141   138    1
   106   147   148    1
   107   147   146    1
   108   148   149    2
   109    94    93    2
   110    93    92    1
   111   109   108    1
   112   146   144   am
   113   139   138    1
   114   139   142   am
   115   145   144    2
   116   138   137    1
   117   108   107    1
   118   144   143    1
   119   142   143    1
   120    92    91    1
   121   137   135   am
   122   124   123    2
   123   107   106    1
   124   122   123    1
   125   122   121    1
   126   106   103    1
   127   123   125   am
   128   136   135    2
   129   135   134    1
   130   125   126    1
   131   128   127    2
   132   127   126    1
   133   127   133   am
   134   126   129    1
   135   103   102    1
   136   103   104    1
   137   134   133    1
   138   104   105    2
   139   120   119   ar
   140   120   118   ar
   141   119   117   ar
   142   131   129    1
   143   129   130    1
   144   118   116   ar
   145   114   113    2
   146   111   112    1
   147   117   116   ar
   148   130   132    1
   149   116   115    1
   150   113   112    1
   151   112   115    1
