@<TRIPOS>MOLECULE
tmp/3zeiA00.pdb
 134 127 0 0 0
SMALL
GASTEIGER

@<TRIPOS>ATOM
      1  N        -19.9010   -5.7530   -1.6140 N.3    43  VAL43      -0.1231
      2  CA       -21.2720   -5.8680   -2.0540 C.3    43  VAL43       0.1692
      3  C        -21.4490   -5.4650   -3.5590 C.2    43  VAL43       0.2591
      4  O        -22.3810   -5.9280   -4.2420 O.2    43  VAL43      -0.2718
      5  CB       -22.1340   -4.9710   -1.1400 C.3    43  VAL43       0.0266
      6  CG1      -21.7920   -3.4840   -1.3080 C.3    43  VAL43       0.0020
      7  CG2      -23.6130   -5.2350   -1.3170 C.3    43  VAL43       0.0020
      8  N        -20.5820   -4.5910   -4.0440 N.am   44  LYS44      -0.1980
      9  CA       -20.7490   -4.0170   -5.4070 C.3    44  LYS44       0.1596
     10  C        -20.6360   -5.0580   -6.5350 C.2    44  LYS44       0.2287
     11  O        -21.1360   -4.8330   -7.6390 O.2    44  LYS44      -0.2864
     12  CB       -19.7700   -2.8740   -5.6340 C.3    44  LYS44       0.0298
     13  CG       -20.1710   -1.5720   -4.9260 C.3    44  LYS44       0.0038
     14  CD       -21.6790   -1.3420   -4.9910 C.3    44  LYS44       0.0206
     15  CE       -22.0930    0.0790   -4.6420 C.3    44  LYS44       0.1093
     16  NZ       -21.2620    0.4160   -3.4820 N.3    44  LYS44      -0.1314
     17  N        -16.0340    0.8870   -4.7500 N.3    74  ASN74      -0.1240
     18  CA       -16.0590   -0.5240   -4.9910 C.3    74  ASN74       0.1653
     19  C        -16.7470   -0.8870   -6.3150 C.2    74  ASN74       0.2266
     20  O        -16.4780   -1.9460   -6.8670 O.2    74  ASN74      -0.2867
     21  CB       -16.8070   -1.2440   -3.8400 C.3    74  ASN74       0.1155
     22  CG       -15.9640   -1.3800   -2.5630 C.2    74  ASN74       0.2627
     23  OD1      -14.7920   -1.6960   -2.6170 O.2    74  ASN74      -0.2716
     24  ND2      -16.6060   -1.2370   -1.4200 N.am   74  ASN74      -0.0877
     25  N        -29.8460   -2.3920  -10.0280 N.3   150  ASN150     -0.1240
     26  CA       -29.1610   -2.2860   -8.7260 C.3   150  ASN150      0.1653
     27  C        -30.1470   -2.8000   -7.6280 C.2   150  ASN150      0.2266
     28  O        -29.9590   -3.8970   -7.0900 O.2   150  ASN150     -0.2867
     29  CB       -28.6580   -0.8260   -8.5900 C.3   150  ASN150      0.1155
     30  CG       -28.1400   -0.4730   -7.2140 C.2   150  ASN150      0.2627
     31  OD1      -28.3760   -1.1970   -6.2480 O.2   150  ASN150     -0.2716
     32  ND2      -27.4240    0.6650   -7.1180 N.am  150  ASN150     -0.0877
     33  N        -30.7180   -6.9770   -5.6690 N.3   154  HIS154     -0.1241
     34  CA       -30.8990   -7.1200   -4.2090 C.3   154  HIS154      0.1621
     35  C        -32.2560   -7.7610   -3.8530 C.2   154  HIS154      0.2264
     36  O        -32.3430   -8.5260   -2.9030 O.2   154  HIS154     -0.2867
     37  CB       -30.6870   -5.7860   -3.4860 C.3   154  HIS154      0.0745
     38  CG       -29.2580   -5.3060   -3.4840 C.ar  154  HIS154      0.0817
     39  ND1      -28.2430   -5.9600   -2.8100 N.ar  154  HIS154     -0.2268
     40  CD2      -28.6890   -4.2200   -4.0660 C.ar  154  HIS154      0.1154
     41  CE1      -27.1050   -5.3060   -2.9970 C.ar  154  HIS154      0.1986
     42  NE2      -27.3530   -4.2380   -3.7430 N.ar  154  HIS154     -0.2212
     43  N        -26.1720    0.7120    5.6910 N.3   176  GLY176     -0.1225
     44  CA       -25.6920    1.9820    5.1300 C.3   176  GLY176      0.1811
     45  C        -26.2860    2.2240    3.7350 C.2   176  GLY176      0.2280
     46  O        -26.4310    1.2780    2.9460 O.2   176  GLY176     -0.2866
     47  N        -25.6490    4.0440    0.2470 N.3   178  GLY178     -0.1210
     48  CA       -24.7640    4.7290   -0.7230 C.3   178  GLY178      0.1956
     49  C        -25.6090    5.0550   -1.9410 C.2   178  GLY178      0.2613
     50  O        -26.1210    6.1590   -2.0680 O.2   178  GLY178     -0.2717
     51  N        -25.8110    4.0510   -2.8010 N.am  179  THR179     -0.1938
     52  CA       -26.8110    4.1550   -3.8790 C.3   179  THR179      0.2028
     53  C        -28.1990    3.9240   -3.3410 C.2   179  THR179      0.2643
     54  O        -29.1800    4.4210   -3.9070 O.2   179  THR179     -0.2714
     55  CB       -26.5760    3.1110   -5.0120 C.3   179  THR179      0.1808
     56  OG1      -26.8030    1.7990   -4.4950 O.3   179  THR179     -0.2208
     57  CG2      -25.1510    3.1900   -5.5600 C.3   179  THR179      0.0379
     58  N        -28.3000    3.1620   -2.2510 N.am  180  GLY180     -0.1939
     59  CA       -29.6090    2.8620   -1.6740 C.3   180  GLY180      0.2014
     60  C        -30.1810    1.5440   -2.1390 C.2   180  GLY180      0.2639
     61  O        -31.2590    1.1220   -1.6780 O.2   180  GLY180     -0.2714
     62  N        -29.4440    0.8730   -3.0360 N.am  181  GLY181     -0.1939
     63  CA       -29.9070   -0.3440   -3.6660 C.3   181  GLY181      0.2014
     64  C        -30.1130   -1.4610   -2.6650 C.2   181  GLY181      0.2640
     65  O        -31.1360   -2.1470   -2.7020 O.2   181  GLY181     -0.2714
     66  N        -29.1170   -1.6670   -1.8010 N.am  182  THR182     -0.1936
     67  CA       -29.1600   -2.7490   -0.8410 C.3   182  THR182      0.2028
     68  C        -30.4210   -2.6790    0.0420 C.2   182  THR182      0.2642
     69  O        -31.2390   -3.6210    0.0740 O.2   182  THR182     -0.2714
     70  CB       -27.8980   -2.8040    0.0540 C.3   182  THR182      0.1808
     71  OG1      -26.7210   -2.9950   -0.7510 O.3   182  THR182     -0.2208
     72  CG2      -28.0100   -3.9660    1.0470 C.3   182  THR182      0.0379
     73  N        -30.5830   -1.5650    0.7390 N.am  183  ILE183     -0.1977
     74  CA       -31.6970   -1.4500    1.6810 C.3   183  ILE183      0.1596
     75  C        -33.0420   -1.4540    0.9510 C.2   183  ILE183      0.2287
     76  O        -34.0100   -2.0570    1.4520 O.2   183  ILE183     -0.2864
     77  CB       -31.5700   -0.2320    2.6180 C.3   183  ILE183      0.0276
     78  CG1      -32.4020   -0.4770    3.8970 C.3   183  ILE183      0.0022
     79  CG2      -31.9950    1.0580    1.9300 C.3   183  ILE183      0.0022
     80  CD1      -32.0870    0.5430    4.9970 C.3   183  ILE183      0.0001
     81  N        -16.3370    5.7180    3.4090 N.3   221  GLN221     -0.1231
     82  CA       -16.4500    5.4060    1.9810 C.3   221  GLN221      0.1698
     83  C        -17.5930    4.4500    1.6880 C.2   221  GLN221      0.2593
     84  O        -17.7070    3.3910    2.3260 O.2   221  GLN221     -0.2718
     85  CB       -15.1530    4.8010    1.4610 C.3   221  GLN221      0.0381
     86  CG       -13.9880    5.7800    1.4090 C.3   221  GLN221      0.0905
     87  CD       -12.6860    5.1250    0.9670 C.2   221  GLN221      0.2608
     88  OE1      -12.6580    4.2040    0.1240 O.2   221  GLN221     -0.2717
     89  NE2      -11.5900    5.5940    1.5420 N.am  221  GLN221     -0.0878
     90  N        -18.4480    4.8210    0.7330 N.am  222  GLY222     -0.1942
     91  CA       -19.4970    3.8960    0.2630 C.3   222  GLY222      0.2014
     92  C        -20.8600    4.3950    0.6390 C.2   222  GLY222      0.2638
     93  O        -21.8550    4.0740   -0.0100 O.2   222  GLY222     -0.2714
     94  N        -20.9350    5.1840    1.7080 N.am  223  ILE223     -0.1977
     95  CA       -22.2200    5.7440    2.0890 C.3   223  ILE223      0.1596
     96  C        -22.0930    7.2370    2.0440 C.2   223  ILE223      0.2287
     97  O        -21.0090    7.7400    1.7380 O.2   223  ILE223     -0.2864
     98  CB       -22.7070    5.2230    3.4710 C.3   223  ILE223      0.0276
     99  CG1      -21.7920    5.7110    4.6170 C.3   223  ILE223      0.0022
    100  CG2      -22.7670    3.7060    3.4470 C.3   223  ILE223      0.0022
    101  CD1      -22.3870    5.5070    6.0100 C.3   223  ILE223      0.0001
    102  N        -17.4950    1.7240    6.5900 N.3   266  SER266     -0.1217
    103  CA       -18.9430    1.8070    6.4960 C.3   266  SER266      0.1889
    104  C        -19.5730    0.6200    7.2320 C.2   266  SER266      0.2288
    105  O        -20.7090    0.7340    7.6480 O.2   266  SER266     -0.2866
    106  CB       -19.4830    1.8550    5.0300 C.3   266  SER266      0.2089
    107  OG       -19.3160    0.5750    4.4200 O.3   266  SER266     -0.2183
    108  N        -20.6860   -4.0970    4.2850 N.3   293  PRO293     -0.2102
    109  CA       -20.5030   -4.0740    2.8130 C.3   293  PRO293      0.1504
    110  C        -19.1740   -4.5470    2.2300 C.2   293  PRO293      0.2575
    111  O        -19.1850   -5.0980    1.1190 O.2   293  PRO293     -0.2718
    112  CB       -20.7820   -2.6230    2.4610 C.3   293  PRO293      0.0282
    113  CG       -21.7870   -2.2040    3.5000 C.3   293  PRO293      0.0208
    114  CD       -21.2170   -2.8120    4.7650 C.3   293  PRO293      0.0893
    115  N        -18.0450   -4.3460    2.9190 N.am  294  ASP294     -0.1974
    116  CA       -16.7580   -4.7400    2.3500 C.3   294  ASP294      0.1708
    117  C        -15.6240   -5.1110    3.3440 C.2   294  ASP294      0.2293
    118  O        -15.7900   -4.9570    4.5690 O.2   294  ASP294     -0.2864
    119  CB       -16.2880   -3.6880    1.2950 C.3   294  ASP294      0.1436
    120  CG       -15.7620   -2.3940    1.9010 C.2   294  ASP294      0.3671
    121  OD1      -15.8680   -2.1590    3.1310 O.co2 294  ASP294     -0.2456
    122  OD2      -15.2280   -1.5710    1.1150 O.co2 294  ASP294     -0.2456
    123  N         -8.4410   -0.6740    3.0810 N.3   299  TYR299     -0.1241
    124  CA        -8.3770    0.6200    3.7610 C.3   299  TYR299      0.1605
    125  C         -7.0740    0.8150    4.5420 C.2   299  TYR299      0.2264
    126  O         -6.9290    1.8110    5.2480 O.2   299  TYR299     -0.2867
    127  CB        -9.5450    0.7480    4.7350 C.3   299  TYR299      0.0534
    128  CG       -10.8840    0.6700    4.0760 C.ar  299  TYR299     -0.0201
    129  CD1      -11.4390   -0.5560    3.6610 C.ar  299  TYR299     -0.0009
    130  CD2      -11.5940    1.8330    3.8370 C.ar  299  TYR299     -0.0009
    131  CE1      -12.6840   -0.5820    3.0310 C.ar  299  TYR299      0.0417
    132  CE2      -12.8160    1.8200    3.2180 C.ar  299  TYR299      0.0417
    133  CZ       -13.3620    0.6280    2.8260 C.ar  299  TYR299      0.1957
    134  OH       -14.5790    0.7200    2.2240 O.3   299  TYR299     -0.2866
@<TRIPOS>BOND
     1    25    26    1
     2    26    29    1
     3    26    27    1
     4    29    30    1
     5    11    10    2
     6    27    28    2
     7    30    32   am
     8    30    31    2
     9    20    19    2
    10    10     9    1
    11    19    18    1
    12    33    34    1
    13    12     9    1
    14    12    13    1
    15    57    55    1
    16     9     8    1
    17    55    56    1
    18    55    52    1
    19    14    13    1
    20    14    15    1
    21    18    17    1
    22    18    21    1
    23    15    16    1
    24     4     3    2
    25    34    35    1
    26    34    37    1
    27    40    42   ar
    28    40    38   ar
    29     8     3   am
    30    54    53    2
    31    52    53    1
    32    52    51    1
    33    35    36    2
    34    21    22    1
    35    42    41   ar
    36    63    62    1
    37    63    64    1
    38     3     2    1
    39    37    38    1
    40    38    39   ar
    41    53    58   am
    42    62    60   am
    43    41    39   ar
    44    51    49   am
    45    65    64    2
    46    64    66   am
    47    23    22    2
    48    22    24   am
    49    58    59    1
    50    60    61    2
    51    60    59    1
    52    50    49    2
    53     2     1    1
    54     2     5    1
    55    49    48    1
    56    66    67    1
    57     7     5    1
    58     6     5    1
    59    67    68    1
    60    67    70    1
    61    71    70    1
    62    48    47    1
    63    93    92    2
    64    68    69    2
    65    68    73   am
    66    70    72    1
    67    88    87    2
    68    91    92    1
    69    91    90    1
    70    92    94   am
    71    90    83   am
    72    73    74    1
    73    75    76    2
    74    75    74    1
    75    87    86    1
    76    87    89   am
    77   122   120   ar
    78   111   110    2
    79   119   120    1
    80   119   116    1
    81    86    85    1
    82    85    82    1
    83    74    77    1
    84    83    82    1
    85    83    84    2
    86    94    95    1
    87    97    96    2
    88   120   121   ar
    89    79    77    1
    90    82    81    1
    91    96    95    1
    92    95    98    1
    93   134   133    1
    94   110   109    1
    95   110   115   am
    96   116   115    1
    97   116   117    1
    98   112   109    1
    99   112   113    1
   100    77    78    1
   101   109   108    1
   102   133   131   ar
   103   133   132   ar
   104    46    45    2
   105   131   129   ar
   106   123   124    1
   107   132   130   ar
   108   117   118    2
   109   100    98    1
   110    98    99    1
   111   113   114    1
   112   129   128   ar
   113    45    44    1
   114   124   125    1
   115   124   127    1
   116   130   128   ar
   117    78    80    1
   118   128   127    1
   119   108   114    1
   120   107   106    1
   121   125   126    2
   122    99   101    1
   123   106   103    1
   124    44    43    1
   125   103   102    1
   126   103   104    1
   127   104   105    2
