@<TRIPOS>MOLECULE
tmp/3zepC00.pdb
 161 151 0 0 0
SMALL
GASTEIGER

@<TRIPOS>ATOM
      1  N         -1.6600   20.7040   50.9050 N.3    13  SER13      -0.1202
      2  CA        -1.8390   20.5890   49.4510 C.3    13  SER13       0.2020
      3  C         -2.0340   19.1160   49.0340 C.2    13  SER13       0.2619
      4  O         -1.9810   18.2170   49.8780 O.2    13  SER13      -0.2717
      5  CB        -0.6340   21.2010   48.7160 C.3    13  SER13       0.2103
      6  OG         0.5800   20.6060   49.1430 O.3    13  SER13      -0.2182
      7  N         -2.2660   18.8860   47.7420 N.am   14  GLN14      -0.1965
      8  CA        -2.4760   17.5370   47.1970 C.3    14  GLN14       0.1733
      9  C         -1.1580   16.8650   46.7940 C.2    14  GLN14       0.2616
     10  O         -0.2160   17.5400   46.3670 O.2    14  GLN14      -0.2715
     11  CB        -3.4110   17.6050   45.9830 C.3    14  GLN14       0.0408
     12  CG        -3.9850   16.2610   45.5600 C.3    14  GLN14       0.0908
     13  CD        -5.0730   16.3940   44.5120 C.2    14  GLN14       0.2608
     14  OE1       -6.2210   16.7040   44.8300 O.2    14  GLN14      -0.2717
     15  NE2       -4.7180   16.1550   43.2540 N.am   14  GLN14      -0.0878
     16  N         -1.1060   15.5370   46.9350 N.am   15  LEU15      -0.1963
     17  CA         0.0190   14.7150   46.4610 C.3    15  LEU15       0.1728
     18  C         -0.3980   13.8880   45.2460 C.2    15  LEU15       0.2616
     19  O          0.2230   13.9860   44.1920 O.2    15  LEU15      -0.2715
     20  CB         0.5200   13.7740   47.5630 C.3    15  LEU15       0.0311
     21  CG         1.1810   14.3990   48.7960 C.3    15  LEU15       0.0022
     22  CD1        1.4230   13.3390   49.8600 C.3    15  LEU15       0.0001
     23  CD2        2.4840   15.0980   48.4320 C.3    15  LEU15       0.0001
     24  N         -1.4440   13.0780   45.4110 N.am   16  GLY16      -0.1955
     25  CA        -1.9360   12.1690   44.3630 C.3    16  GLY16       0.1869
     26  C         -3.4290   12.2930   44.1210 C.2    16  GLY16       0.2309
     27  O         -4.1370   12.9560   44.8830 O.2    16  GLY16      -0.2863
     28  N         -4.4830   11.2950   47.6140 N.3    20  VAL20      -0.1245
     29  CA        -3.5670   11.4640   48.7460 C.3    20  VAL20       0.1561
     30  C         -3.2630   12.9530   48.9230 C.2    20  VAL20       0.2260
     31  O         -2.9880   13.6510   47.9460 O.2    20  VAL20      -0.2867
     32  CB        -2.2470   10.6900   48.5360 C.3    20  VAL20       0.0252
     33  CG1       -1.3840   10.7540   49.7880 C.3    20  VAL20       0.0019
     34  CG2       -2.5280    9.2400   48.1670 C.3    20  VAL20       0.0019
     35  N          1.1810   12.0050   54.9580 N.3    37  ALA37      -0.1245
     36  CA         0.4600   11.7890   53.6960 C.3    37  ALA37       0.1562
     37  C         -0.8250   11.0160   53.9940 C.2    37  ALA37       0.2260
     38  O         -0.7700    9.8640   54.4310 O.2    37  ALA37      -0.2867
     39  CB         1.3270   11.0180   52.7100 C.3    37  ALA37       0.0290
     40  N         -4.4320    9.3910   52.8720 N.3    39  LYS39      -0.1245
     41  CA        -5.2210    8.8300   51.7700 C.3    39  LYS39       0.1561
     42  C         -6.7010    8.7420   52.1400 C.2    39  LYS39       0.2260
     43  O         -7.0470    8.3650   53.2620 O.2    39  LYS39      -0.2867
     44  CB        -4.7030    7.4440   51.3660 C.3    39  LYS39       0.0271
     45  CG        -5.5040    6.7970   50.2420 C.3    39  LYS39       0.0035
     46  CD        -4.7750    5.6370   49.5980 C.3    39  LYS39       0.0206
     47  CE        -5.6410    4.9910   48.5310 C.3    39  LYS39       0.1093
     48  NZ        -5.0070    3.7720   47.9650 N.3    39  LYS39      -0.1314
     49  N          7.0180    1.9750   53.0160 N.3    68  VAL68      -0.1245
     50  CA         6.4480    3.1880   53.6310 C.3    68  VAL68       0.1561
     51  C          5.6010    2.7990   54.8500 C.2    68  VAL68       0.2260
     52  O          4.8130    1.8550   54.7690 O.2    68  VAL68      -0.2867
     53  CB         5.6120    4.0040   52.6120 C.3    68  VAL68       0.0252
     54  CG1        4.3550    3.2530   52.1810 C.3    68  VAL68       0.0019
     55  CG2        5.2550    5.3690   53.1790 C.3    68  VAL68       0.0019
     56  N         -0.1550    8.1270   56.7700 N.3    82  MET82      -0.1230
     57  CA         1.1440    7.5330   56.4520 C.3    82  MET82       0.1702
     58  C          2.2340    8.5610   56.7060 C.2    82  MET82       0.2592
     59  O          1.9590    9.7630   56.7660 O.2    82  MET82      -0.2718
     60  CB         1.1830    7.0940   54.9830 C.3    82  MET82       0.0401
     61  CG         0.1160    6.0750   54.6030 C.3    82  MET82       0.0596
     62  SD         0.1230    5.6110   52.8530 S.3    82  MET82      -0.1393
     63  CE        -0.7940    6.9750   52.1460 C.3    82  MET82       0.0692
     64  N          3.4700    8.0880   56.8560 N.am   83  GLU83      -0.1966
     65  CA         4.6250    8.9860   56.9260 C.3    83  GLU83       0.1733
     66  C          4.7780    9.7100   55.5900 C.2    83  GLU83       0.2616
     67  O          4.4610    9.1490   54.5340 O.2    83  GLU83      -0.2715
     68  CB         5.9160    8.2270   57.2780 C.3    83  GLU83       0.0429
     69  CG         6.4750    7.3110   56.1900 C.3    83  GLU83       0.1163
     70  CD         7.8270    6.7140   56.5420 C.2    83  GLU83       0.3649
     71  OE1        8.6230    7.3720   57.2440 O.co2  83  GLU83      -0.2457
     72  OE2        8.1020    5.5770   56.1080 O.co2  83  GLU83      -0.2457
     73  N          5.2580   10.9490   55.6450 N.am   84  TYR84      -0.1960
     74  CA         5.5170   11.7380   54.4470 C.3    84  TYR84       0.1771
     75  C          7.0240   11.8190   54.2160 C.2    84  TYR84       0.2619
     76  O          7.7660   12.2020   55.1230 O.2    84  TYR84      -0.2715
     77  CB         4.9130   13.1400   54.5830 C.3    84  TYR84       0.0574
     78  CG         5.2250   14.0330   53.4050 C.ar   84  TYR84      -0.0198
     79  CD1        4.6950   13.7600   52.1430 C.ar   84  TYR84      -0.0009
     80  CD2        6.0650   15.1390   53.5410 C.ar   84  TYR84      -0.0009
     81  CE1        4.9910   14.5640   51.0520 C.ar   84  TYR84       0.0417
     82  CE2        6.3580   15.9550   52.4580 C.ar   84  TYR84       0.0417
     83  CZ         5.8220   15.6620   51.2150 C.ar   84  TYR84       0.1957
     84  OH         6.1180   16.4590   50.1380 O.3    84  TYR84      -0.2866
     85  N          7.4590   11.4480   53.0080 N.am   85  LEU85      -0.1977
     86  CA         8.8620   11.5490   52.5830 C.3    85  LEU85       0.1596
     87  C          9.0350   12.7310   51.6060 C.2    85  LEU85       0.2287
     88  O          8.6910   12.6150   50.4340 O.2    85  LEU85      -0.2864
     89  CB         9.3200   10.2370   51.9280 C.3    85  LEU85       0.0297
     90  CG         9.0210    8.9220   52.6580 C.3    85  LEU85       0.0022
     91  CD1        9.8300    7.7860   52.0470 C.3    85  LEU85       0.0001
     92  CD2        9.2860    9.0110   54.1540 C.3    85  LEU85       0.0001
     93  N          9.8330   13.0210   47.6220 N.3    88  GLY88      -0.1210
     94  CA         8.8450   12.5820   46.6230 C.3    88  GLY88       0.1956
     95  C          9.0920   11.1640   46.1370 C.2    88  GLY88       0.2612
     96  O          9.7180   10.3680   46.8430 O.2    88  GLY88      -0.2717
     97  N          8.5990   10.8440   44.9360 N.am   89  CYS89      -0.1970
     98  CA         8.7710    9.5070   44.3540 C.3    89  CYS89       0.1712
     99  C         10.0710    9.3950   43.5650 C.2    89  CYS89       0.2296
    100  O         10.6920   10.4030   43.2320 O.2    89  CYS89      -0.2864
    101  CB         7.5700    9.0970   43.4870 C.3    89  CYS89       0.0983
    102  SG         7.4130    9.8940   41.8700 S.3    89  CYS89      -0.0798
    103  N         10.6940    8.1840   40.4260 N.3    91  ARG91      -0.1231
    104  CA        10.6040    8.5850   39.0120 C.3    91  ARG91       0.1694
    105  C         10.9420   10.0620   38.7930 C.2    91  ARG91       0.2592
    106  O         11.6880   10.3980   37.8700 O.2    91  ARG91      -0.2718
    107  CB         9.2020    8.2790   38.4690 C.3    91  ARG91       0.0321
    108  CG         8.9860    8.5340   36.9760 C.3    91  ARG91       0.0489
    109  CD         7.5000    8.5800   36.6520 C.3    91  ARG91       0.2205
    110  NE         6.8460    9.7050   37.3310 N.pl3  91  ARG91      -0.0865
    111  CZ         5.5360    9.8250   37.5740 C.cat  91  ARG91       0.5346
    112  NH1        4.6620    8.8870   37.1980 N.pl3  91  ARG91       0.1354
    113  NH2        5.0900   10.9110   38.2100 N.pl3  91  ARG91       0.1354
    114  N         10.3920   10.9300   39.6410 N.am   92  ASP92      -0.1974
    115  CA        10.6890   12.3700   39.5880 C.3    92  ASP92       0.1709
    116  C         12.0960   12.6870   40.1070 C.2    92  ASP92       0.2293
    117  O         12.7170   13.6550   39.6610 O.2    92  ASP92      -0.2864
    118  CB         9.6420   13.1700   40.3800 C.3    92  ASP92       0.1436
    119  CG         8.2310   13.0570   39.7950 C.2    92  ASP92       0.3671
    120  OD1        8.0660   12.5130   38.6810 O.co2  92  ASP92      -0.2456
    121  OD2        7.2780   13.5180   40.4590 O.co2  92  ASP92      -0.2456
    122  N          7.2280    5.0510   39.9110 N.3   133  ARG133     -0.1231
    123  CA         6.2350    6.0390   40.3750 C.3   133  ARG133      0.1694
    124  C          5.6880    5.7320   41.7750 C.2   133  ARG133      0.2592
    125  O          5.2980    6.6520   42.5010 O.2   133  ARG133     -0.2718
    126  CB         5.0690    6.1700   39.3790 C.3   133  ARG133      0.0321
    127  CG         4.2200    4.9150   39.1860 C.3   133  ARG133      0.0489
    128  CD         3.1230    5.1330   38.1530 C.3   133  ARG133      0.2205
    129  NE         2.2100    3.9900   38.0710 N.pl3 133  ARG133     -0.0865
    130  CZ         2.4590    2.8330   37.4480 C.cat 133  ARG133      0.5346
    131  NH1        3.6140    2.6090   36.8130 N.pl3 133  ARG133      0.1354
    132  NH2        1.5350    1.8750   37.4600 N.pl3 133  ARG133      0.1354
    133  N          5.6500    4.4430   42.1260 N.am  134  ASN134     -0.1974
    134  CA         5.1980    3.9690   43.4430 C.3   134  ASN134      0.1688
    135  C          6.3210    3.7370   44.4720 C.2   134  ASN134      0.2292
    136  O          6.0400    3.2870   45.5830 O.2   134  ASN134     -0.2864
    137  CB         4.3650    2.6830   43.2750 C.3   134  ASN134      0.1181
    138  CG         3.0620    2.9210   42.5310 C.2   134  ASN134      0.2629
    139  OD1        2.4370    3.9680   42.6680 O.2   134  ASN134     -0.2716
    140  ND2        2.6390    1.9380   41.7470 N.am  134  ASN134     -0.0877
    141  N          9.0950    5.5680   46.8630 N.3   136  LEU136     -0.1245
    142  CA         9.3530    6.8600   47.5100 C.3   136  LEU136      0.1561
    143  C         10.8330    7.0320   47.8520 C.2   136  LEU136      0.2260
    144  O         11.5730    6.0550   47.9330 O.2   136  LEU136     -0.2867
    145  CB         8.5070    6.9950   48.7810 C.3   136  LEU136      0.0270
    146  CG         6.9950    6.7890   48.6240 C.3   136  LEU136      0.0019
    147  CD1        6.2930    6.9120   49.9720 C.3   136  LEU136      0.0001
    148  CD2        6.4040    7.7710   47.6260 C.3   136  LEU136      0.0001
    149  N          5.8290    1.9410   48.2830 N.3   146  ALA146     -0.1231
    150  CA         4.5420    2.5120   48.7060 C.3   146  ALA146      0.1694
    151  C          3.4180    2.1900   47.7040 C.2   146  ALA146      0.2592
    152  O          3.6550    1.5250   46.6950 O.2   146  ALA146     -0.2718
    153  CB         4.6820    4.0140   48.9030 C.3   146  ALA146      0.0304
    154  N          2.2060    2.6610   48.0090 N.am  147  ASP147     -0.1974
    155  CA         0.9800    2.3910   47.2300 C.3   147  ASP147      0.1709
    156  C          0.6060    0.9050   47.2240 C.2   147  ASP147      0.2293
    157  O          0.9700    0.1690   46.3080 O.2   147  ASP147     -0.2864
    158  CB         1.0770    2.9360   45.7910 C.3   147  ASP147      0.1436
    159  CG        -0.2890    3.0520   45.0960 C.2   147  ASP147      0.3671
    160  OD1       -1.3220    2.6290   45.6600 O.co2 147  ASP147     -0.2456
    161  OD2       -0.3290    3.5830   43.9680 O.co2 147  ASP147     -0.2456
@<TRIPOS>BOND
     1   109   108    1
     2   109   110    1
     3   131   130    1
     4   108   107    1
     5   112   111    1
     6   110   111    2
     7   130   132    1
     8   130   129    2
     9   111   113    1
    10   106   105    2
    11   129   128    1
    12   128   127    1
    13   107   104    1
    14   120   119   ar
    15   105   104    1
    16   105   114   am
    17   104   103    1
    18   127   126    1
    19   126   123    1
    20   115   114    1
    21   115   116    1
    22   115   118    1
    23   117   116    2
    24   119   118    1
    25   119   121   ar
    26   122   123    1
    27   123   124    1
    28   140   138   am
    29   124   133   am
    30   124   125    2
    31   102   101    1
    32   133   134    1
    33   138   139    2
    34   138   137    1
    35   100    99    2
    36    15    13   am
    37   137   134    1
    38   134   135    1
    39   101    98    1
    40    99    98    1
    41   161   159   ar
    42    26    25    1
    43    26    27    2
    44    19    18    2
    45    98    97    1
    46    25    24    1
    47   135   136    2
    48    13    14    2
    49    13    12    1
    50    97    95   am
    51   159   160   ar
    52   159   158    1
    53    18    24   am
    54    18    17    1
    55    12    11    1
    56   158   155    1
    57    11     8    1
    58    95    94    1
    59    95    96    2
    60   157   156    2
    61    10     9    2
    62    17    16    1
    63    17    20    1
    64    94    93    1
    65   152   151    2
    66     9    16   am
    67     9     8    1
    68   141   142    1
    69     8     7    1
    70   156   155    1
    71   155   154    1
    72   142   143    1
    73   142   145    1
    74    20    21    1
    75    28    29    1
    76   148   146    1
    77   151   154   am
    78   151   150    1
    79     7     3   am
    80   143   144    2
    81    31    30    2
    82    48    47    1
    83    34    32    1
    84   149   150    1
    85    23    21    1
    86    47    46    1
    87    32    29    1
    88    32    33    1
    89   146   145    1
    90   146   147    1
    91   150   153    1
    92     5     6    1
    93     5     2    1
    94    29    30    1
    95    21    22    1
    96     3     2    1
    97     3     4    2
    98     2     1    1
    99    46    45    1
   100    84    83    1
   101    45    44    1
   102    88    87    2
   103    81    83   ar
   104    81    79   ar
   105    83    82   ar
   106    44    41    1
   107    87    86    1
   108    41    42    1
   109    41    40    1
   110    89    86    1
   111    89    90    1
   112    91    90    1
   113    42    43    2
   114    79    78   ar
   115    63    62    1
   116    54    53    1
   117    82    80   ar
   118    86    85    1
   119    53    55    1
   120    53    50    1
   121    90    92    1
   122    39    36    1
   123    62    61    1
   124    85    75   am
   125    49    50    1
   126    78    80   ar
   127    78    77    1
   128    50    51    1
   129    36    37    1
   130    36    35    1
   131    37    38    2
   132    75    74    1
   133    75    76    2
   134    74    77    1
   135    74    73    1
   136    67    66    2
   137    61    60    1
   138    52    51    2
   139    60    57    1
   140    66    73   am
   141    66    65    1
   142    72    70   ar
   143    69    70    1
   144    69    68    1
   145    57    58    1
   146    57    56    1
   147    70    71   ar
   148    58    59    2
   149    58    64   am
   150    64    65    1
   151    65    68    1
