@<TRIPOS>MOLECULE
tmp/3zetB00.pdb
 131 125 0 0 0
SMALL
GASTEIGER

@<TRIPOS>ATOM
      1  N         35.4350   -3.0830   47.4480 N.3   111  HIS111     -0.1241
      2  CA        34.4780   -2.1660   48.0870 C.3   111  HIS111      0.1621
      3  C         34.5480   -2.1850   49.6360 C.2   111  HIS111      0.2264
      4  O         34.4860   -1.1180   50.2400 O.2   111  HIS111     -0.2867
      5  CB        33.0680   -2.5020   47.6170 C.3   111  HIS111      0.0745
      6  CG        31.9980   -1.6910   48.2550 C.ar  111  HIS111      0.0817
      7  ND1       31.7150   -0.4020   47.8300 N.ar  111  HIS111     -0.2268
      8  CD2       31.1530   -2.0220   49.2570 C.ar  111  HIS111      0.1154
      9  CE1       30.7090    0.0020   48.5810 C.ar  111  HIS111      0.1986
     10  NE2       30.3330   -0.9490   49.4490 N.ar  111  HIS111     -0.2212
     11  N         35.5700    0.7950   52.5040 N.3   115  HIS115     -0.1241
     12  CA        34.8810    1.1600   53.7600 C.3   115  HIS115      0.1621
     13  C         35.8190    1.1460   54.9400 C.2   115  HIS115      0.2264
     14  O         35.8390    2.0970   55.7270 O.2   115  HIS115     -0.2867
     15  CB        33.6970    0.2280   54.0650 C.3   115  HIS115      0.0745
     16  CG        32.4360    0.5780   53.3410 C.ar  115  HIS115      0.0817
     17  ND1       31.7550    1.7410   53.6090 N.ar  115  HIS115     -0.2268
     18  CD2       31.7280   -0.1480   52.4460 C.ar  115  HIS115      0.1154
     19  CE1       30.6810    1.7130   52.8380 C.ar  115  HIS115      0.1986
     20  NE2       30.6240    0.5920   52.1210 N.ar  115  HIS115     -0.2212
     21  N         27.9530   -2.9250   57.6360 N.3   136  SER136     -0.1202
     22  CA        27.3210   -2.6180   56.3570 C.3   136  SER136      0.2020
     23  C         25.8920   -3.2070   56.2590 C.2   136  SER136      0.2619
     24  O         25.3570   -3.7540   57.2390 O.2   136  SER136     -0.2717
     25  CB        28.1850   -3.1720   55.2250 C.3   136  SER136      0.2103
     26  OG        29.2370   -2.2660   54.9310 O.3   136  SER136     -0.2182
     27  N         25.2990   -3.0610   55.0670 N.am  137  GLY137     -0.1942
     28  CA        23.9750   -3.5800   54.7400 C.3   137  GLY137      0.2014
     29  C         23.9490   -5.0980   54.7240 C.2   137  GLY137      0.2639
     30  O         23.0990   -5.7010   55.3850 O.2   137  GLY137     -0.2714
     31  N         24.9110   -5.6970   54.0100 N.am  138  GLY138     -0.1954
     32  CA        25.0510   -7.1450   53.8400 C.3   138  GLY138      0.1869
     33  C         26.0450   -7.8520   54.7490 C.2   138  GLY138      0.2309
     34  O         25.9520   -9.0710   54.9350 O.2   138  GLY138     -0.2863
     35  N         22.9650   -3.6330   59.3180 N.3   163  GLY163     -0.1225
     36  CA        22.3810   -2.6770   58.3810 C.3   163  GLY163      0.1811
     37  C         21.0520   -3.1010   57.7920 C.2   163  GLY163      0.2280
     38  O         20.1150   -2.2900   57.7250 O.2   163  GLY163     -0.2866
     39  N         18.3750   -3.0490   60.4110 N.3   166  PHE166     -0.1227
     40  CA        17.8960   -1.6620   60.5490 C.3   166  PHE166      0.1736
     41  C         16.8110   -1.3560   59.4900 C.2   166  PHE166      0.2595
     42  O         15.7310   -0.8780   59.8420 O.2   166  PHE166     -0.2718
     43  CB        19.0640   -0.6460   60.4320 C.3   166  PHE166      0.0547
     44  CG        19.6020   -0.1520   61.7560 C.ar  166  PHE166     -0.0202
     45  CD1       19.0060    0.9200   62.4110 C.ar  166  PHE166     -0.0042
     46  CD2       20.7010   -0.7610   62.3500 C.ar  166  PHE166     -0.0042
     47  CE1       19.4820    1.3520   63.6530 C.ar  166  PHE166     -0.0003
     48  CE2       21.1890   -0.3190   63.5810 C.ar  166  PHE166     -0.0003
     49  CZ        20.5630    0.7220   64.2370 C.ar  166  PHE166     -0.0000
     50  N         17.0750   -1.7150   58.2240 N.am  167  ASP167     -0.1974
     51  CA        16.1840   -1.5010   57.0780 C.3   167  ASP167      0.1709
     52  C         14.8920   -2.2920   57.2130 C.2   167  ASP167      0.2293
     53  O         13.8190   -1.7370   56.9740 O.2   167  ASP167     -0.2864
     54  CB        16.9010   -1.8420   55.7430 C.3   167  ASP167      0.1436
     55  CG        18.1110   -0.9490   55.4340 C.2   167  ASP167      0.3671
     56  OD1       18.1250    0.2180   55.8860 O.co2 167  ASP167     -0.2456
     57  OD2       19.0440   -1.4220   54.7390 O.co2 167  ASP167     -0.2456
     58  N         15.8620    3.0880   51.8090 N.3   178  PRO178     -0.2116
     59  CA        16.3730    2.3920   53.0160 C.3   178  PRO178      0.1372
     60  C         16.1210    3.2280   54.2880 C.2   178  PRO178      0.2244
     61  O         16.5440    4.3910   54.3850 O.2   178  PRO178     -0.2868
     62  CB        17.8630    2.2130   52.7000 C.3   178  PRO178      0.0268
     63  CG        18.2140    3.3530   51.7490 C.3   178  PRO178      0.0207
     64  CD        16.9080    3.9500   51.2270 C.3   178  PRO178      0.0892
     65  N         17.0330    2.7360   57.6250 N.3   180  GLY180     -0.1210
     66  CA        18.0060    2.7280   58.7190 C.3   180  GLY180      0.1940
     67  C         18.2170    4.0920   59.3590 C.2   180  GLY180      0.2453
     68  O         17.8880    4.2580   60.5360 O.2   180  GLY180     -0.2732
     69  N         18.6750    5.1110   58.5730 N.am  181  PRO181     -0.2728
     70  CA        18.8850    6.4700   59.1420 C.3   181  PRO181      0.1401
     71  C         17.6250    7.1150   59.7630 C.2   181  PRO181      0.2269
     72  O         17.7070    7.7320   60.8340 O.2   181  PRO181     -0.2865
     73  CB        19.3640    7.2840   57.9280 C.3   181  PRO181      0.0296
     74  CG        20.0400    6.2590   57.0370 C.3   181  PRO181      0.0237
     75  CD        19.1250    5.0500   57.1600 C.3   181  PRO181      0.0939
     76  N         16.8410    5.7070   63.1250 N.3   184  SER184     -0.1217
     77  CA        17.7640    6.3110   64.0880 C.3   184  SER184      0.1889
     78  C         17.2790    7.7270   64.5080 C.2   184  SER184      0.2288
     79  O         17.3660    8.0830   65.6910 O.2   184  SER184     -0.2866
     80  CB        19.1750    6.3490   63.5170 C.3   184  SER184      0.2089
     81  OG        20.0820    6.8420   64.4860 O.3   184  SER184     -0.2183
     82  N         28.1310    1.7210   56.5350 N.3   268  GLY268     -0.1210
     83  CA        26.9750    2.6090   56.6880 C.3   268  GLY268      0.1956
     84  C         26.4790    2.7700   58.1110 C.2   268  GLY268      0.2611
     85  O         26.2580    3.8950   58.5660 O.2   268  GLY268     -0.2717
     86  N         26.3790    1.6570   58.8520 N.am  269  VAL269     -0.1979
     87  CA        25.9110    1.6690   60.2410 C.3   269  VAL269      0.1595
     88  C         26.9100    2.4280   61.1610 C.2   269  VAL269      0.2287
     89  O         26.4820    2.9260   62.2070 O.2   269  VAL269     -0.2864
     90  CB        25.6060    0.2270   60.7470 C.3   269  VAL269      0.0276
     91  CG1       25.1490    0.1990   62.2110 C.3   269  VAL269      0.0022
     92  CG2       24.5470   -0.4240   59.8680 C.3   269  VAL269      0.0022
     93  N         27.8460    5.2470   60.8600 N.3   271  ALA271     -0.1231
     94  CA        27.3750    6.6380   60.9010 C.3   271  ALA271      0.1694
     95  C         26.4030    6.8270   62.0960 C.2   271  ALA271      0.2592
     96  O         26.1720    7.9530   62.5200 O.2   271  ALA271     -0.2718
     97  CB        26.6760    7.0040   59.5960 C.3   271  ALA271      0.0304
     98  N         25.8440    5.7290   62.6350 N.am  272  ASN272     -0.1960
     99  CA        24.8720    5.7720   63.7340 C.3   272  ASN272      0.1819
    100  C         25.4170    6.5580   64.9520 C.2   272  ASN272      0.2621
    101  O         26.4610    6.2060   65.5000 O.2   272  ASN272     -0.2715
    102  CB        24.4590    4.3650   64.1410 C.3   272  ASN272      0.1195
    103  CG        23.4000    4.3230   65.1980 C.2   272  ASN272      0.2630
    104  OD1       23.6800    4.4150   66.4010 O.2   272  ASN272     -0.2716
    105  ND2       22.1630    4.1920   64.7640 N.am  272  ASN272     -0.0877
    106  N         24.6860    7.6030   65.3600 N.am  273  ARG273     -0.1977
    107  CA        25.0160    8.5070   66.4800 C.3   273  ARG273      0.1597
    108  C         25.2240    7.7510   67.8030 C.2   273  ARG273      0.2287
    109  O         26.1990    8.0120   68.5120 O.2   273  ARG273     -0.2864
    110  CB        23.8900    9.5640   66.6380 C.3   273  ARG273      0.0334
    111  CG        23.9010   10.3680   67.9360 C.3   273  ARG273      0.0492
    112  CD        22.6370   11.1960   68.1290 C.3   273  ARG273      0.2205
    113  NE        21.4760   10.3880   68.5130 N.pl3 273  ARG273     -0.0865
    114  CZ        21.1790   10.0430   69.7620 C.cat 273  ARG273      0.5346
    115  NH1       21.9680   10.4100   70.7650 N.pl3 273  ARG273      0.1354
    116  NH2       20.1030    9.3100   70.0150 N.pl3 273  ARG273      0.1354
    117  N         28.8710    5.7820   54.4320 N.3   299  THR299     -0.1203
    118  CA        28.0560    5.2090   53.3590 C.3   299  THR299      0.1994
    119  C         28.8720    5.2980   52.0470 C.2   299  THR299      0.2617
    120  O         29.9760    5.8530   52.0650 O.2   299  THR299     -0.2717
    121  CB        26.6830    5.9140   53.2960 C.3   299  THR299      0.1784
    122  OG1       26.8950    7.3190   53.1480 O.3   299  THR299     -0.2211
    123  CG2       25.8130    5.6320   54.5490 C.3   299  THR299      0.0376
    124  N         28.3570    4.7410   50.9230 N.am  300  ASP300     -0.1973
    125  CA        29.0760    4.7210   49.6380 C.3   300  ASP300      0.1709
    126  C         29.4780    6.1170   49.1120 C.2   300  ASP300      0.2293
    127  O         28.6490    7.0200   48.9510 O.2   300  ASP300     -0.2864
    128  CB        28.2840    3.9920   48.5590 C.3   300  ASP300      0.1436
    129  CG        28.0240    2.5410   48.8750 C.2   300  ASP300      0.3671
    130  OD1       28.6640    2.0110   49.8320 O.co2 300  ASP300     -0.2456
    131  OD2       27.1440    1.9380   48.2070 O.co2 300  ASP300     -0.2456
@<TRIPOS>BOND
     1     1     2    1
     2     5     2    1
     3     5     6    1
     4     7     6   ar
     5     7     9   ar
     6     2     3    1
     7   131   129   ar
     8     6     8   ar
     9   128   129    1
    10   128   125    1
    11     9    10   ar
    12   129   130   ar
    13   127   126    2
    14   126   125    1
    15     8    10   ar
    16     3     4    2
    17   125   124    1
    18   124   119   am
    19    64    63    1
    20    64    58    1
    21    63    62    1
    22    58    59    1
    23   119   120    2
    24   119   118    1
    25    20    18   ar
    26    20    19   ar
    27    18    16   ar
    28    11    12    1
    29    62    59    1
    30    19    17   ar
    31    59    60    1
    32   122   121    1
    33   121   118    1
    34   121   123    1
    35    16    17   ar
    36    16    15    1
    37   118   117    1
    38    12    15    1
    39    12    13    1
    40    32    31    1
    41    32    33    1
    42    31    29   am
    43    60    61    2
    44    29    28    1
    45    29    30    2
    46    57    55   ar
    47    28    27    1
    48    33    34    2
    49    26    25    1
    50    13    14    2
    51    27    23   am
    52    25    22    1
    53    55    54    1
    54    55    56   ar
    55    54    51    1
    56    23    22    1
    57    23    24    2
    58    22    21    1
    59    82    83    1
    60    83    84    1
    61    53    52    2
    62    74    75    1
    63    74    73    1
    64    51    52    1
    65    51    50    1
    66    75    69    1
    67    65    66    1
    68    38    37    2
    69    37    36    1
    70    73    70    1
    71    84    85    2
    72    84    86   am
    73    50    41   am
    74    36    35    1
    75    69    70    1
    76    69    67   am
    77    66    67    1
    78    86    87    1
    79    70    71    1
    80    67    68    2
    81    41    42    2
    82    41    40    1
    83    97    94    1
    84    71    72    2
    85    92    90    1
    86    87    90    1
    87    87    88    1
    88    39    40    1
    89    43    40    1
    90    43    44    1
    91    90    91    1
    92    93    94    1
    93    94    95    1
    94    88    89    2
    95    44    46   ar
    96    44    45   ar
    97    95    96    2
    98    95    98   am
    99    46    48   ar
   100    45    47   ar
   101    98    99    1
   102    76    77    1
   103    80    77    1
   104    80    81    1
   105    48    49   ar
   106    47    49   ar
   107    99   102    1
   108    99   100    1
   109    77    78    1
   110   102   103    1
   111    78    79    2
   112   105   103   am
   113   100   106   am
   114   100   101    2
   115   103   104    2
   116   106   107    1
   117   107   110    1
   118   107   108    1
   119   110   111    1
   120   108   109    2
   121   111   112    1
   122   112   113    1
   123   113   114    2
   124   114   116    1
   125   114   115    1
