@<TRIPOS>MOLECULE
tmp/3zewA00.pdb
 177 166 0 0 0
SMALL
GASTEIGER

@<TRIPOS>ATOM
      1  N          6.4950   -8.7970   77.0360 N.3    13  ILE13      -0.1231
      2  CA         7.5950   -8.7710   76.0670 C.3    13  ILE13       0.1696
      3  C          7.4220   -7.6910   74.9620 C.2    13  ILE13       0.2632
      4  O          8.4250   -7.2550   74.3830 O.2    13  ILE13      -0.2714
      5  CB         7.8820  -10.1880   75.4870 C.3    13  ILE13       0.0266
      6  CG1        6.6450  -10.7920   74.7590 C.3    13  ILE13       0.0019
      7  CG2        8.4330  -11.1090   76.5860 C.3    13  ILE13       0.0020
      8  CD1        6.7860  -12.2100   74.1600 C.3    13  ILE13       0.0001
      9  N          6.1870   -7.2610   74.7080 N.am   14  GLY14      -0.1718
     10  CA         5.8940   -6.2420   73.7020 C.2    14  GLY14       0.1480
     11  C          4.5260   -5.5930   73.7770 C.2    14  GLY14       0.2820
     12  O          3.6390   -6.0730   74.4900 O.2    14  GLY14      -0.2669
     13  N          4.3470   -4.4920   73.0240 N.am   15  ALA15      -0.1929
     14  CA         3.0870   -3.7430   72.9750 C.3    15  ALA15       0.1731
     15  C          2.4460   -3.8200   71.5900 C.2    15  ALA15       0.2616
     16  O          2.8790   -3.1350   70.6560 O.2    15  ALA15      -0.2715
     17  CB         3.3120   -2.2950   73.3870 C.3    15  ALA15       0.0334
     18  N          1.4240   -4.6670   71.4780 N.am   16  GLY16      -0.1955
     19  CA         0.6790   -4.8860   70.2430 C.3    16  GLY16       0.1869
     20  C         -0.3130   -3.7850   69.9200 C.2    16  GLY16       0.2309
     21  O         -0.2560   -2.6870   70.4910 O.2    16  GLY16      -0.2863
     22  N          1.6930   -8.1190   74.8350 N.3    21  VAL21      -0.1245
     23  CA         2.3090   -9.3350   74.3100 C.3    21  VAL21       0.1561
     24  C          3.1780   -9.8480   75.4750 C.2    21  VAL21       0.2260
     25  O          3.9790   -9.0820   75.9990 O.2    21  VAL21      -0.2867
     26  CB         3.1110   -9.1260   72.9930 C.3    21  VAL21       0.0252
     27  CG1        3.6700  -10.4550   72.4810 C.3    21  VAL21       0.0019
     28  CG2        2.2490   -8.4670   71.9150 C.3    21  VAL21       0.0019
     29  N          4.2680  -17.3690   73.3210 N.3    37  ALA37      -0.1245
     30  CA         4.0580  -15.9390   73.3540 C.3    37  ALA37       0.1562
     31  C          2.5480  -15.7830   73.3610 C.2    37  ALA37       0.2260
     32  O          1.8510  -16.4060   72.5510 O.2    37  ALA37      -0.2867
     33  CB         4.6510  -15.2770   72.1350 C.3    37  ALA37       0.0290
     34  N         -0.6280  -13.1860   73.1290 N.3    39  LYS39      -0.1245
     35  CA        -1.1140  -11.8930   72.6660 C.3    39  LYS39       0.1561
     36  C         -2.4970  -11.6950   73.2660 C.2    39  LYS39       0.2260
     37  O         -3.3390  -12.5870   73.1610 O.2    39  LYS39      -0.2867
     38  CB        -1.1520  -11.8400   71.1320 C.3    39  LYS39       0.0271
     39  CG        -0.7260  -10.4960   70.5580 C.3    39  LYS39       0.0035
     40  CD        -0.7750  -10.5030   69.0370 C.3    39  LYS39       0.0206
     41  CE        -0.4630   -9.1440   68.4580 C.3    39  LYS39       0.1093
     42  NZ        -1.5820   -8.6240   67.6260 N.3    39  LYS39      -0.1314
     43  N         -5.9310  -11.9950   62.5560 N.3    52  GLU52      -0.1245
     44  CA        -4.4830  -12.2290   62.5250 C.3    52  GLU52       0.1567
     45  C         -4.1710  -13.6970   62.8390 C.2    52  GLU52       0.2260
     46  O         -3.2460  -14.2630   62.2530 O.2    52  GLU52      -0.2867
     47  CB        -3.7510  -11.3040   63.5150 C.3    52  GLU52       0.0388
     48  CG        -2.2450  -11.2440   63.2890 C.3    52  GLU52       0.1160
     49  CD        -1.4070  -10.4880   64.3030 C.2    52  GLU52       0.3649
     50  OE1       -1.9580   -9.6470   65.0510 O.co2  52  GLU52      -0.2457
     51  OE2       -0.1750  -10.7140   64.3160 O.co2  52  GLU52      -0.2457
     52  N         -2.5150  -16.5000   60.2540 N.3    56  MET56      -0.1245
     53  CA        -1.4130  -17.3080   60.8010 C.3    56  MET56       0.1570
     54  C         -1.6710  -18.8180   60.7380 C.2    56  MET56       0.2261
     55  O         -0.7380  -19.5830   60.4760 O.2    56  MET56      -0.2867
     56  CB        -1.1430  -16.8960   62.2540 C.3    56  MET56       0.0387
     57  CG         0.3080  -16.6410   62.5570 C.3    56  MET56       0.0595
     58  SD         0.5100  -15.8290   64.1610 S.3    56  MET56      -0.1393
     59  CE         0.2290  -14.1420   63.7180 C.3    56  MET56       0.0692
     60  N          5.9880  -17.1820   61.7010 N.3    65  ILE65      -0.1245
     61  CA         5.6540  -17.4510   63.1050 C.3    65  ILE65       0.1561
     62  C          4.4770  -18.4460   63.2170 C.2    65  ILE65       0.2260
     63  O          3.4000  -18.2140   62.6720 O.2    65  ILE65      -0.2867
     64  CB         5.4510  -16.1320   63.9290 C.3    65  ILE65       0.0252
     65  CG1        5.5080  -16.3810   65.4470 C.3    65  ILE65       0.0019
     66  CG2        4.1990  -15.3470   63.5380 C.3    65  ILE65       0.0019
     67  CD1        6.8350  -16.1700   66.0160 C.3    65  ILE65       0.0001
     68  N          1.3310  -18.2430   70.1950 N.3    81  THR81      -0.1203
     69  CA         2.2910  -18.5000   69.1200 C.3    81  THR81       0.1994
     70  C          3.5780  -19.0630   69.7370 C.2    81  THR81       0.2618
     71  O          3.7220  -19.0670   70.9670 O.2    81  THR81      -0.2717
     72  CB         2.6010  -17.2060   68.3290 C.3    81  THR81       0.1784
     73  OG1        3.1320  -16.2360   69.2200 O.3    81  THR81      -0.2211
     74  CG2        1.3920  -16.6280   67.6210 C.3    81  THR81       0.0376
     75  N          4.5190  -19.5180   68.8920 N.am   82  GLU82      -0.1965
     76  CA         5.8170  -20.0050   69.3590 C.3    82  GLU82       0.1733
     77  C          6.6170  -18.8530   69.9690 C.2    82  GLU82       0.2616
     78  O          6.4740  -17.7020   69.5470 O.2    82  GLU82      -0.2715
     79  CB         6.6120  -20.6430   68.2140 C.3    82  GLU82       0.0429
     80  CG         6.9860  -19.6760   67.1080 C.3    82  GLU82       0.1163
     81  CD         7.7160  -20.3140   65.9540 C.2    82  GLU82       0.3649
     82  OE1        8.7370  -20.9960   66.1930 O.co2  82  GLU82      -0.2457
     83  OE2        7.2510  -20.1520   64.8070 O.co2  82  GLU82      -0.2457
     84  N          7.4290  -19.1550   70.9780 N.am   83  PHE83      -0.1960
     85  CA         8.2270  -18.1180   71.6090 C.3    83  PHE83       0.1771
     86  C          9.5520  -17.9560   70.8590 C.2    83  PHE83       0.2619
     87  O         10.1390  -18.9420   70.4230 O.2    83  PHE83      -0.2715
     88  CB         8.4170  -18.4000   73.1130 C.3    83  PHE83       0.0574
     89  CG         9.2090  -17.3480   73.8550 C.ar   83  PHE83      -0.0200
     90  CD1        8.7280  -16.0470   73.9800 C.ar   83  PHE83      -0.0042
     91  CD2       10.4370  -17.6560   74.4280 C.ar   83  PHE83      -0.0042
     92  CE1        9.4740  -15.0690   74.6450 C.ar   83  PHE83      -0.0003
     93  CE2       11.1760  -16.6810   75.1010 C.ar   83  PHE83      -0.0003
     94  CZ        10.6920  -15.3930   75.2030 C.ar   83  PHE83      -0.0000
     95  N          9.9840  -16.7040   70.6680 N.am   84  MET84      -0.1963
     96  CA        11.2320  -16.3590   69.9870 C.3    84  MET84       0.1736
     97  C         12.1790  -15.7330   71.0070 C.2    84  MET84       0.2616
     98  O         12.1430  -14.5240   71.2570 O.2    84  MET84      -0.2715
     99  CB        10.9870  -15.4560   68.7640 C.3    84  MET84       0.0427
    100  CG        10.0230  -16.0460   67.7340 C.3    84  MET84       0.0599
    101  SD        10.5320  -17.5720   66.9190 S.3    84  MET84      -0.1393
    102  CE        11.6420  -16.9410   65.6920 C.3    84  MET84       0.0692
    103  N         12.9910  -16.6000   71.6320 N.am   85  GLU85      -0.1963
    104  CA        13.9440  -16.3110   72.7100 C.3    85  GLU85       0.1733
    105  C         14.7310  -14.9850   72.5700 C.2    85  GLU85       0.2616
    106  O         15.0260  -14.3590   73.5900 O.2    85  GLU85      -0.2715
    107  CB        14.9110  -17.4940   72.8850 C.3    85  GLU85       0.0429
    108  CG        15.4830  -17.6470   74.2860 C.3    85  GLU85       0.1163
    109  CD        16.9550  -18.0100   74.4040 C.2    85  GLU85       0.3649
    110  OE1       17.6080  -18.2790   73.3680 O.co2  85  GLU85      -0.2457
    111  OE2       17.4640  -18.0130   75.5470 O.co2  85  GLU85      -0.2457
    112  N         15.0450  -14.5500   71.3310 N.am   86  ASN86      -0.1958
    113  CA        15.8490  -13.3460   71.0940 C.3    86  ASN86       0.1819
    114  C         15.0590  -12.0870   70.6450 C.2    86  ASN86       0.2622
    115  O         15.6620  -11.0260   70.4810 O.2    86  ASN86      -0.2715
    116  CB        16.9750  -13.6680   70.1160 C.3    86  ASN86       0.1195
    117  CG        18.0340  -14.5790   70.6920 C.2    86  ASN86       0.2630
    118  OD1       18.6380  -14.2890   71.7250 O.2    86  ASN86      -0.2716
    119  ND2       18.3180  -15.6750   70.0130 N.am   86  ASN86      -0.0877
    120  N         13.7410  -12.2170   70.4870 N.am   87  GLY87      -0.1940
    121  CA        12.8380  -11.1360   70.1040 C.3    87  GLY87       0.2014
    122  C         13.1360  -10.4900   68.7680 C.2    87  GLY87       0.2638
    123  O         13.6820  -11.1460   67.8750 O.2    87  GLY87      -0.2714
    124  N         12.7850   -9.1880   68.6370 N.am   88  ALA88      -0.1977
    125  CA        12.9850   -8.3540   67.4400 C.3    88  ALA88       0.1597
    126  C         14.4280   -8.3970   66.9160 C.2    88  ALA88       0.2287
    127  O         15.3720   -8.3650   67.7050 O.2    88  ALA88      -0.2864
    128  CB        12.5680   -6.9210   67.7270 C.3    88  ALA88       0.0319
    129  N         16.1660   -6.1720   64.8640 N.3    90  ASP90      -0.1239
    130  CA        16.9310   -4.9270   64.9310 C.3    90  ASP90       0.1674
    131  C         17.5470   -4.7000   66.3050 C.2    90  ASP90       0.2266
    132  O         18.7260   -4.3630   66.3790 O.2    90  ASP90      -0.2867
    133  CB        16.0860   -3.7250   64.4800 C.3    90  ASP90       0.1410
    134  CG        14.9110   -3.3980   65.3780 C.2    90  ASP90       0.3668
    135  OD1       14.2660   -4.3370   65.8720 O.co2  90  ASP90      -0.2456
    136  OD2       14.6550   -2.1970   65.6030 O.co2  90  ASP90      -0.2456
    137  N         12.2070   -4.8910   63.0630 N.3   132  ARG132     -0.1231
    138  CA        11.4730   -4.9050   64.3470 C.3   132  ARG132      0.1694
    139  C         10.3210   -5.9240   64.3610 C.2   132  ARG132      0.2592
    140  O          9.9610   -6.4060   65.4370 O.2   132  ARG132     -0.2718
    141  CB        10.9720   -3.4970   64.7290 C.3   132  ARG132      0.0321
    142  CG         9.8850   -2.9510   63.8050 C.3   132  ARG132      0.0489
    143  CD         9.7610   -1.4420   63.8080 C.3   132  ARG132      0.2205
    144  NE         9.2250   -0.9830   62.5250 N.pl3 132  ARG132     -0.0865
    145  CZ         7.9300   -0.8860   62.2420 C.cat 132  ARG132      0.5346
    146  NH1        7.0190   -1.1960   63.1580 N.pl3 132  ARG132      0.1354
    147  NH2        7.5360   -0.4860   61.0420 N.pl3 132  ARG132      0.1354
    148  N          9.7680   -6.2530   63.1580 N.am  133  ASN133     -0.1974
    149  CA         8.6910   -7.2200   62.9640 C.3   133  ASN133      0.1688
    150  C          9.2070   -8.6040   62.5740 C.2   133  ASN133      0.2292
    151  O          8.4200   -9.4980   62.2790 O.2   133  ASN133     -0.2864
    152  CB         7.6420   -6.7000   61.9750 C.3   133  ASN133      0.1181
    153  CG         6.9350   -5.4530   62.4340 C.2   133  ASN133      0.2629
    154  OD1        6.7880   -5.1730   63.6360 O.2   133  ASN133     -0.2716
    155  ND2        6.4960   -4.6620   61.4820 N.am  133  ASN133     -0.0877
    156  N         11.3510  -11.7560   64.0590 N.3   135  LEU135     -0.1245
    157  CA        11.6900  -12.3440   65.3400 C.3   135  LEU135      0.1561
    158  C         12.7520  -13.4190   65.2110 C.2   135  LEU135      0.2260
    159  O         12.8450  -14.0770   64.1760 O.2   135  LEU135     -0.2867
    160  CB        10.4180  -12.8460   66.0340 C.3   135  LEU135      0.0270
    161  CG         9.3460  -11.7940   66.3290 C.3   135  LEU135      0.0019
    162  CD1        8.0710  -12.4550   66.6760 C.3   135  LEU135      0.0001
    163  CD2        9.7560  -10.8640   67.4770 C.3   135  LEU135      0.0001
    164  N          6.5480  -11.9070   61.3460 N.3   145  SER145     -0.1202
    165  CA         5.5420  -11.7640   62.3890 C.3   145  SER145      0.2020
    166  C          4.7290  -10.4970   62.1180 C.2   145  SER145      0.2618
    167  O          5.0610   -9.7500   61.1940 O.2   145  SER145     -0.2717
    168  CB         6.2420  -11.6920   63.7450 C.3   145  SER145      0.2103
    169  OG         5.4450  -11.1550   64.7900 O.3   145  SER145     -0.2182
    170  N          3.6750  -10.2550   62.9210 N.am  146  ASP146     -0.1973
    171  CA         2.7710   -9.1070   62.8230 C.3   146  ASP146      0.1709
    172  C          2.1170   -9.0530   61.4320 C.2   146  ASP146      0.2293
    173  O          2.5780   -8.3380   60.5320 O.2   146  ASP146     -0.2864
    174  CB         3.4740   -7.7890   63.2190 C.3   146  ASP146      0.1436
    175  CG         2.5780   -6.7100   63.8030 C.2   146  ASP146      0.3671
    176  OD1        1.3630   -6.9540   63.9420 O.co2 146  ASP146     -0.2456
    177  OD2        3.0970   -5.6250   64.1320 O.co2 146  ASP146     -0.2456
@<TRIPOS>BOND
     1    52    53    1
     2    55    54    2
     3   173   172    2
     4    54    53    1
     5    53    56    1
     6   147   145    1
     7   167   166    2
     8   164   165    1
     9   172   171    1
    10   155   153   am
    11    60    61    1
    12   152   153    1
    13   152   149    1
    14   166   165    1
    15   166   170   am
    16   145   144    2
    17   145   146    1
    18    46    45    2
    19    56    57    1
    20   151   150    2
    21   165   168    1
    22   153   154    2
    23   144   143    1
    24    44    43    1
    25    44    45    1
    26    44    47    1
    27    57    58    1
    28   150   149    1
    29    63    62    2
    30   171   170    1
    31   171   174    1
    32   149   148    1
    33   137   138    1
    34    61    62    1
    35    61    64    1
    36   148   139   am
    37   174   175    1
    38    48    47    1
    39    48    49    1
    40    66    64    1
    41    59    58    1
    42   168   169    1
    43   175   176   ar
    44   175   177   ar
    45   142   143    1
    46   142   141    1
    47    64    65    1
    48   156   157    1
    49   159   158    2
    50    49    51   ar
    51    49    50   ar
    52   138   139    1
    53   138   141    1
    54   139   140    2
    55   133   130    1
    56   133   134    1
    57    83    81   ar
    58   129   130    1
    59   130   131    1
    60   158   157    1
    61   157   160    1
    62   134   136   ar
    63   134   135   ar
    64    65    67    1
    65   102   101    1
    66    81    82   ar
    67    81    80    1
    68   160   161    1
    69   131   132    2
    70   161   162    1
    71   161   163    1
    72   126   125    1
    73   126   127    2
    74   101   100    1
    75    80    79    1
    76   125   128    1
    77   125   124    1
    78    74    72    1
    79    42    41    1
    80   100    99    1
    81   123   122    2
    82    79    76    1
    83    72    69    1
    84    72    73    1
    85    41    40    1
    86   124   122   am
    87    99    96    1
    88   122   121    1
    89    75    76    1
    90    75    70   am
    91    40    39    1
    92    69    70    1
    93    69    68    1
    94    76    77    1
    95    78    77    2
    96    70    71    2
    97    20    19    1
    98    20    21    2
    99    77    84   am
   100    96    95    1
   101    96    97    1
   102   119   117   am
   103   121   120    1
   104   116   117    1
   105   116   113    1
   106    19    18    1
   107    87    86    2
   108   115   114    2
   109   120   114   am
   110    39    38    1
   111   114   113    1
   112    16    15    2
   113    95    86   am
   114   117   118    2
   115    86    85    1
   116    84    85    1
   117    97    98    2
   118    97   103   am
   119   113   112    1
   120    38    35    1
   121   112   105   am
   122    18    15   am
   123    15    14    1
   124    85    88    1
   125   103   104    1
   126    28    26    1
   127    33    30    1
   128    27    26    1
   129    32    31    2
   130   105   104    1
   131   105   106    2
   132    35    34    1
   133    35    36    1
   134   104   107    1
   135   107   108    1
   136    14    13    1
   137    14    17    1
   138    26    23    1
   139    13    11   am
   140    88    89    1
   141    37    36    2
   142    29    30    1
   143    30    31    1
   144   110   109   ar
   145    10    11    1
   146    10     9    2
   147    11    12    2
   148    89    90   ar
   149    89    91   ar
   150    90    92   ar
   151     8     6    1
   152   108   109    1
   153    23    22    1
   154    23    24    1
   155     4     3    2
   156   109   111   ar
   157    91    93   ar
   158    92    94   ar
   159     9     3    1
   160     6     5    1
   161     3     2    1
   162    93    94   ar
   163    24    25    2
   164     5     2    1
   165     5     7    1
   166     2     1    1
