@<TRIPOS>MOLECULE
tmp/3zf5A00.pdb
 85 80 0 0 0
SMALL
GASTEIGER

@<TRIPOS>ATOM
      1  N         15.7910   22.3020  -16.3580 N.3    60  LEU60      -0.1245
      2  CA        16.0660   22.2600  -14.9260 C.3    60  LEU60       0.1561
      3  C         17.5490   21.9630  -14.7330 C.2    60  LEU60       0.2260
      4  O         17.9740   20.8050  -14.7380 O.2    60  LEU60      -0.2867
      5  CB        15.1850   21.2100  -14.2340 C.3    60  LEU60       0.0270
      6  CG        15.1950   21.0940  -12.7050 C.3    60  LEU60       0.0019
      7  CD1       14.6640   22.3540  -12.0360 C.3    60  LEU60       0.0001
      8  CD2       14.3830   19.8850  -12.2700 C.3    60  LEU60       0.0001
      9  N         22.2710   16.9000  -13.2730 N.3    75  GLU75      -0.1245
     10  CA        21.9940   16.6500  -14.6840 C.3    75  GLU75       0.1567
     11  C         20.8690   17.5480  -15.1850 C.2    75  GLU75       0.2260
     12  O         19.7670   17.5480  -14.6270 O.2    75  GLU75      -0.2867
     13  CB        21.6600   15.1750  -14.9260 C.3    75  GLU75       0.0388
     14  CG        22.8320   14.3530  -15.4420 C.3    75  GLU75       0.1160
     15  CD        23.1810   14.6720  -16.8860 C.2    75  GLU75       0.3649
     16  OE1       22.2900   14.5710  -17.7550 O.co2  75  GLU75      -0.2457
     17  OE2       24.3510   15.0210  -17.1530 O.co2  75  GLU75      -0.2457
     18  N         17.8690   18.6800  -16.5940 N.3    77  GLY77      -0.1210
     19  CA        16.6120   18.0080  -16.8990 C.3    77  GLY77       0.1956
     20  C         15.8130   18.7190  -17.9720 C.2    77  GLY77       0.2612
     21  O         15.6870   19.9450  -17.9560 O.2    77  GLY77      -0.2717
     22  N         15.2760   17.9400  -18.9060 N.am   78  LYS78      -0.1965
     23  CA        14.4710   18.4740  -19.9990 C.3    78  LYS78       0.1728
     24  C         12.9900   18.3440  -19.6610 C.2    78  LYS78       0.2616
     25  O         12.3630   17.3120  -19.9240 O.2    78  LYS78      -0.2715
     26  CB        14.7980   17.7590  -21.3180 C.3    78  LYS78       0.0311
     27  CG        16.0730   18.2270  -22.0180 C.3    78  LYS78       0.0038
     28  CD        17.3550   17.8700  -21.2690 C.3    78  LYS78       0.0206
     29  CE        17.4850   16.3740  -21.0250 C.3    78  LYS78       0.1093
     30  NZ        18.7750   16.0200  -20.3720 N.3    78  LYS78      -0.1314
     31  N         12.4440   19.4010  -19.0650 N.am   79  ILE79      -0.1963
     32  CA        11.0540   19.4150  -18.6180 C.3    79  ILE79       0.1727
     33  C         10.1150   19.5720  -19.8120 C.2    79  ILE79       0.2616
     34  O          9.9940   20.6600  -20.3860 O.2    79  ILE79      -0.2715
     35  CB        10.7890   20.5250  -17.5670 C.3    79  ILE79       0.0290
     36  CG1       11.9270   20.6190  -16.5300 C.3    79  ILE79       0.0022
     37  CG2        9.4220   20.3410  -16.9120 C.3    79  ILE79       0.0023
     38  CD1       12.2030   19.3620  -15.7250 C.3    79  ILE79       0.0001
     39  N          9.4630   18.4710  -20.1800 N.am   80  ASP80      -0.1971
     40  CA         8.5280   18.4400  -21.3040 C.3    80  ASP80       0.1709
     41  C          7.3530   19.3860  -21.0880 C.2    80  ASP80       0.2293
     42  O          6.9560   19.6480  -19.9480 O.2    80  ASP80      -0.2864
     43  CB         8.0030   17.0170  -21.5230 C.3    80  ASP80       0.1436
     44  CG         9.0780   16.0620  -22.0040 C.2    80  ASP80       0.3671
     45  OD1        9.5010   16.1780  -23.1730 O.co2  80  ASP80      -0.2456
     46  OD2        9.4880   15.1840  -21.2190 O.co2  80  ASP80      -0.2456
     47  N          4.2630   18.6070  -18.5070 N.3    83  PHE83      -0.1241
     48  CA         4.6700   17.8280  -17.3380 C.3    83  PHE83       0.1605
     49  C          4.1560   18.5250  -16.0810 C.2    83  PHE83       0.2264
     50  O          4.7200   19.5270  -15.6420 O.2    83  PHE83      -0.2867
     51  CB         6.1940   17.6430  -17.2890 C.3    83  PHE83       0.0534
     52  CG         6.6890   16.9870  -16.0250 C.ar   83  PHE83      -0.0203
     53  CD1        6.5270   15.6200  -15.8220 C.ar   83  PHE83      -0.0042
     54  CD2        7.3210   17.7380  -15.0370 C.ar   83  PHE83      -0.0042
     55  CE1        6.9810   15.0160  -14.6580 C.ar   83  PHE83      -0.0003
     56  CE2        7.7760   17.1400  -13.8710 C.ar   83  PHE83      -0.0003
     57  CZ         7.6060   15.7770  -13.6810 C.ar   83  PHE83      -0.0000
     58  N          5.8240   16.5770   -9.9980 N.3    86  ASN86      -0.1225
     59  CA         6.7680   17.1960   -9.0790 C.3    86  ASN86       0.1785
     60  C          8.1510   17.2710   -9.7190 C.2    86  ASN86       0.2597
     61  O          8.7470   16.2390  -10.0430 O.2    86  ASN86      -0.2718
     62  CB         6.8230   16.3960   -7.7730 C.3    86  ASN86       0.1169
     63  CG         7.4070   17.1870   -6.6160 C.2    86  ASN86       0.2627
     64  OD1        8.3830   17.9250   -6.7690 O.2    86  ASN86      -0.2716
     65  ND2        6.8150   17.0220   -5.4400 N.am   86  ASN86      -0.0877
     66  N          8.6490   18.4910   -9.9130 N.am   87  LEU87      -0.1966
     67  CA         9.9790   18.7000  -10.4840 C.3    87  LEU87       0.1728
     68  C         11.0420   18.0960   -9.5740 C.2    87  LEU87       0.2616
     69  O         11.1230   18.4300   -8.3910 O.2    87  LEU87      -0.2715
     70  CB        10.2580   20.1900  -10.7200 C.3    87  LEU87       0.0311
     71  CG         9.4490   20.9430  -11.7840 C.3    87  LEU87       0.0022
     72  CD1        9.6940   22.4410  -11.6830 C.3    87  LEU87       0.0001
     73  CD2        9.7590   20.4420  -13.1860 C.3    87  LEU87       0.0001
     74  N         11.8380   17.1890  -10.1320 N.am   88  GLY88      -0.1955
     75  CA        12.8680   16.4980   -9.3690 C.3    88  GLY88       0.1869
     76  C         14.2650   16.8440   -9.8370 C.2    88  GLY88       0.2309
     77  O         14.5790   16.7180  -11.0200 O.2    88  GLY88      -0.2863
     78  N         17.6800   15.9220  -10.4470 N.3    90  ASN90      -0.1240
     79  CA        18.5410   14.7610  -10.6540 C.3    90  ASN90       0.1653
     80  C         19.9680   15.0830  -10.2120 C.2    90  ASN90       0.2266
     81  O         20.7320   15.7090  -10.9520 O.2    90  ASN90      -0.2867
     82  CB        18.4970   14.3260  -12.1260 C.3    90  ASN90       0.1155
     83  CG        19.1930   12.9960  -12.3770 C.2    90  ASN90       0.2627
     84  OD1       19.5800   12.2870  -11.4460 O.2    90  ASN90      -0.2716
     85  ND2       19.3510   12.6500  -13.6500 N.am   90  ASN90      -0.0877
@<TRIPOS>BOND
     1    45    44   ar
     2    27    26    1
     3    27    28    1
     4    44    43    1
     5    44    46   ar
     6    43    40    1
     7    26    23    1
     8    40    41    1
     9    40    39    1
    10    28    29    1
    11    41    42    2
    12    29    30    1
    13    34    33    2
    14    39    33   am
    15    23    24    1
    16    23    22    1
    17    25    24    2
    18    33    32    1
    19    24    31   am
    20    31    32    1
    21    22    20   am
    22    32    35    1
    23    47    48    1
    24    20    21    2
    25    20    19    1
    26    16    15   ar
    27    35    37    1
    28    35    36    1
    29    48    51    1
    30    48    49    1
    31    51    52    1
    32    17    15   ar
    33    19    18    1
    34    15    14    1
    35    36    38    1
    36     1     2    1
    37    49    50    2
    38    52    53   ar
    39    52    54   ar
    40    53    55   ar
    41    14    13    1
    42    11    10    1
    43    11    12    2
    44    54    56   ar
    45     2     3    1
    46     2     5    1
    47    13    10    1
    48     4     3    2
    49    10     9    1
    50    55    57   ar
    51     5     6    1
    52    56    57   ar
    53    85    83   am
    54    73    71    1
    55     6     8    1
    56     6     7    1
    57    83    82    1
    58    83    84    2
    59    82    79    1
    60    71    72    1
    61    71    70    1
    62    77    76    2
    63    81    80    2
    64    70    67    1
    65    79    78    1
    66    79    80    1
    67    67    66    1
    68    67    68    1
    69    74    68   am
    70    74    75    1
    71    61    60    2
    72    58    59    1
    73    66    60   am
    74    76    75    1
    75    60    59    1
    76    68    69    2
    77    59    62    1
    78    62    63    1
    79    64    63    2
    80    63    65   am
