@<TRIPOS>MOLECULE
tmp/3zf8A00.pdb
 146 140 0 0 0
SMALL
GASTEIGER

@<TRIPOS>ATOM
      1  N          2.8800   39.6480   13.9830 N.3    28  PRO28      -0.2102
      2  CA         3.7960   40.7550   14.2690 C.3    28  PRO28       0.1504
      3  C          4.0300   41.6180   13.0310 C.2    28  PRO28       0.2576
      4  O          4.1390   41.0950   11.9140 O.2    28  PRO28      -0.2718
      5  CB         5.0830   40.0610   14.6870 C.3    28  PRO28       0.0282
      6  CG         4.9150   38.6170   14.3590 C.3    28  PRO28       0.0208
      7  CD         3.5900   38.3810   13.7180 C.3    28  PRO28       0.0893
      8  N          4.0310   42.9420   13.2020 N.am   29  MET29      -0.1966
      9  CA         3.9590   43.8120   12.0350 C.3    29  MET29       0.1736
     10  C          4.9290   44.9600   12.1710 C.2    29  MET29       0.2616
     11  O          4.7140   45.8750   12.9710 O.2    29  MET29      -0.2715
     12  CB         2.5340   44.3650   11.8460 C.3    29  MET29       0.0427
     13  CG         2.4040   45.1760   10.5780 C.3    29  MET29       0.0599
     14  SD         0.7670   45.8700   10.2700 S.3    29  MET29      -0.1393
     15  CE        -0.2320   44.4580    9.7480 C.3    29  MET29       0.0692
     16  N          5.9670   44.9480   11.3480 N.am   30  GLN30      -0.1963
     17  CA         6.8300   46.1090   11.2370 C.3    30  GLN30       0.1733
     18  C          6.3920   47.0430   10.1050 C.2    30  GLN30       0.2617
     19  O          6.6120   48.2530   10.1890 O.2    30  GLN30      -0.2715
     20  CB         8.2530   45.6370   10.9900 C.3    30  GLN30       0.0408
     21  CG         9.2060   46.7370   10.6710 C.3    30  GLN30       0.0908
     22  CD        10.5660   46.1980   10.3780 C.2    30  GLN30       0.2608
     23  OE1       10.7230   45.3320    9.5190 O.2    30  GLN30      -0.2717
     24  NE2       11.5420   46.6470   11.1290 N.am   30  GLN30      -0.0878
     25  N          5.7540   46.4830    9.0680 N.am   31  THR31      -0.1951
     26  CA         5.3170   47.2470    7.8730 C.3    31  THR31       0.1897
     27  C          3.9000   46.7940    7.5200 C.2    31  THR31       0.2313
     28  O          3.6490   45.5840    7.3800 O.2    31  THR31      -0.2863
     29  CB         6.2370   46.9570    6.6560 C.3    31  THR31       0.1794
     30  OG1        7.5880   47.2520    7.0170 O.3    31  THR31      -0.2208
     31  CG2        5.8450   47.8570    5.4540 C.3    31  THR31       0.0378
     32  N          1.2220   43.0820   16.8400 N.3    55  ILE55      -0.1245
     33  CA         2.2090   43.7260   17.7380 C.3    55  ILE55       0.1561
     34  C          3.2290   44.4520   16.8770 C.2    55  ILE55       0.2260
     35  O          3.7430   43.8760   15.8910 O.2    55  ILE55      -0.2867
     36  CB         2.8830   42.7310   18.7100 C.3    55  ILE55       0.0252
     37  CG1        3.7790   43.4360   19.7350 C.3    55  ILE55       0.0019
     38  CG2        3.5800   41.5740   17.9830 C.3    55  ILE55       0.0019
     39  CD1        3.9640   42.6260   21.0140 C.3    55  ILE55       0.0001
     40  N          6.6920   47.1250   16.5180 N.3    57  PRO57      -0.2116
     41  CA         7.8670   47.5980   17.2640 C.3    57  PRO57       0.1372
     42  C          7.7590   49.0880   17.5880 C.2    57  PRO57       0.2244
     43  O          7.0760   49.8260   16.8780 O.2    57  PRO57      -0.2868
     44  CB         9.0190   47.3550   16.2920 C.3    57  PRO57       0.0268
     45  CG         8.3450   47.5020   14.9410 C.3    57  PRO57       0.0207
     46  CD         6.9760   46.9190   15.0930 C.3    57  PRO57       0.0892
     47  N          5.1920   46.8370   21.3670 N.3    93  GLN93      -0.1245
     48  CA         6.1530   45.9380   22.0170 C.3    93  GLN93       0.1566
     49  C          6.6480   46.4940   23.3400 C.2    93  GLN93       0.2260
     50  O          6.9570   47.6910   23.4330 O.2    93  GLN93      -0.2867
     51  CB         7.3920   45.7820   21.1370 C.3    93  GLN93       0.0367
     52  CG         7.4220   44.4970   20.3710 C.3    93  GLN93       0.0905
     53  CD         8.5860   44.4450   19.4180 C.2    93  GLN93       0.2608
     54  OE1        8.4030   44.4290   18.1940 O.2    93  GLN93      -0.2717
     55  NE2        9.7960   44.3710   19.9700 N.am   93  GLN93      -0.0878
     56  N         18.0530   39.4880   15.9080 N.3   103  ARG103     -0.1245
     57  CA        16.7630   39.8790   15.3710 C.3   103  ARG103      0.1563
     58  C         15.7080   38.8150   15.7280 C.2   103  ARG103      0.2260
     59  O         14.5770   39.1480   16.1280 O.2   103  ARG103     -0.2867
     60  CB        16.8730   40.0760   13.8530 C.3   103  ARG103      0.0307
     61  CG        15.5430   40.1910   13.1030 C.3   103  ARG103      0.0489
     62  CD        15.7380   40.2180   11.5900 C.3   103  ARG103      0.2205
     63  NE        16.2250   38.9400   11.0770 N.pl3 103  ARG103     -0.0865
     64  CZ        15.4410   37.9490   10.6620 C.cat 103  ARG103      0.5346
     65  NH1       14.1240   38.0890   10.6760 N.pl3 103  ARG103      0.1354
     66  NH2       15.9760   36.8180   10.2290 N.pl3 103  ARG103      0.1354
     67  N         14.8540   38.9290   19.4660 N.3   106  ALA106     -0.1231
     68  CA        13.9140   40.0060   19.7270 C.3   106  ALA106      0.1694
     69  C         12.5120   39.6520   19.2360 C.2   106  ALA106      0.2591
     70  O         11.5250   39.9570   19.9080 O.2   106  ALA106     -0.2718
     71  CB        14.3920   41.3170   19.0980 C.3   106  ALA106      0.0304
     72  N         12.4190   39.0120   18.0760 N.am  107  MET107     -0.1979
     73  CA        11.1260   38.5890   17.5520 C.3   107  MET107      0.1605
     74  C         10.4650   37.5890   18.4740 C.2   107  MET107      0.2287
     75  O          9.2410   37.5390   18.5410 O.2   107  MET107     -0.2864
     76  CB        11.2350   37.9700   16.1550 C.3   107  MET107      0.0413
     77  CG        11.4300   38.9700   15.0230 C.3   107  MET107      0.0598
     78  SD         9.9510   39.9830   14.8870 S.3   107  MET107     -0.1393
     79  CE         8.6210   38.7780   15.0070 C.3   107  MET107      0.0692
     80  N          8.5580   39.4790   21.1500 N.3   110  ALA110     -0.1231
     81  CA         7.3620   40.0670   20.5290 C.3   110  ALA110      0.1694
     82  C          6.2480   39.0370   20.3270 C.2   110  ALA110      0.2591
     83  O          5.1070   39.3030   20.6310 O.2   110  ALA110     -0.2718
     84  CB         7.7210   40.7500   19.2130 C.3   110  ALA110      0.0304
     85  N          6.5790   37.8600   19.8020 N.am  111  ARG111     -0.1980
     86  CA         5.5890   36.8220   19.5800 C.3   111  ARG111      0.1597
     87  C          5.0190   36.3370   20.8870 C.2   111  ARG111      0.2287
     88  O          3.7990   36.1590   21.0210 O.2   111  ARG111     -0.2864
     89  CB         6.2370   35.6520   18.8530 C.3   111  ARG111      0.0334
     90  CG         6.6170   35.9600   17.3960 C.3   111  ARG111      0.0492
     91  CD         7.1370   34.7040   16.7010 C.3   111  ARG111      0.2205
     92  NE         7.5320   35.0210   15.3070 N.pl3 111  ARG111     -0.0865
     93  CZ         6.6830   35.1420   14.2930 C.cat 111  ARG111      0.5346
     94  NH1        5.3650   34.9870   14.4650 N.pl3 111  ARG111      0.1354
     95  NH2        7.1580   35.4450   13.0930 N.pl3 111  ARG111      0.1354
     96  N          2.5390   36.0490    9.1240 N.3   130  ASN130     -0.1225
     97  CA         3.4340   37.1960    9.0680 C.3   130  ASN130      0.1785
     98  C          2.8020   38.3160    8.2200 C.2   130  ASN130      0.2597
     99  O          1.9760   38.0570    7.3070 O.2   130  ASN130     -0.2718
    100  CB         4.7810   36.7810    8.5040 C.3   130  ASN130      0.1169
    101  CG         5.7650   36.3120    9.5760 C.2   130  ASN130      0.2627
    102  OD1        5.5380   36.4610   10.7960 O.2   130  ASN130     -0.2716
    103  ND2        6.9020   35.7850    9.1180 N.am  130  ASN130     -0.0877
    104  N          3.1840   39.5610    8.5070 N.am  131  ALA131     -0.1966
    105  CA         2.5070   40.7120    7.9030 C.3   131  ALA131      0.1728
    106  C          2.9090   40.8840    6.4370 C.2   131  ALA131      0.2616
    107  O          2.3080   41.6910    5.6980 O.2   131  ALA131     -0.2715
    108  CB         2.7970   41.9900    8.7030 C.3   131  ALA131      0.0334
    109  N          3.9220   40.1440    6.0020 N.am  132  ASP132     -0.1971
    110  CA         4.3020   40.2220    4.5930 C.3   132  ASP132      0.1709
    111  C          3.7710   39.0550    3.7710 C.2   132  ASP132      0.2293
    112  O          4.0940   38.9400    2.5910 O.2   132  ASP132     -0.2864
    113  CB         5.8130   40.3770    4.4190 C.3   132  ASP132      0.1436
    114  CG         6.5880   39.6390    5.4560 C.2   132  ASP132      0.3671
    115  OD1        6.2140   38.4860    5.8090 O.co2 132  ASP132     -0.2456
    116  OD2        7.5370   40.2450    5.9800 O.co2 132  ASP132     -0.2456
    117  N         10.6400   30.8250   -0.6410 N.3   173  TYR173     -0.1227
    118  CA        11.0270   31.9530    0.1790 C.3   173  TYR173      0.1736
    119  C         11.4420   31.6140    1.6190 C.2   173  TYR173      0.2595
    120  O         12.4480   32.0970    2.0900 O.2   173  TYR173     -0.2718
    121  CB         9.9510   33.0400    0.1550 C.3   173  TYR173      0.0548
    122  CG        10.4320   34.3040    0.8200 C.ar  173  TYR173     -0.0200
    123  CD1       11.1320   35.2590    0.0970 C.ar  173  TYR173     -0.0009
    124  CD2       10.2530   34.5060    2.1910 C.ar  173  TYR173     -0.0009
    125  CE1       11.6510   36.3900    0.7270 C.ar  173  TYR173      0.0417
    126  CE2       10.7740   35.6150    2.8220 C.ar  173  TYR173      0.0417
    127  CZ        11.4580   36.5550    2.0770 C.ar  173  TYR173      0.1957
    128  OH        11.9200   37.6840    2.7090 O.3   173  TYR173     -0.2866
    129  N         10.6750   30.7760    2.3130 N.am  174  ASP174     -0.1974
    130  CA        10.9270   30.5310    3.7420 C.3   174  ASP174      0.1709
    131  C         11.6530   29.2230    3.9820 C.2   174  ASP174      0.2293
    132  O         11.1000   28.1360    3.7720 O.2   174  ASP174     -0.2864
    133  CB         9.6140   30.5980    4.5370 C.3   174  ASP174      0.1436
    134  CG         9.8250   30.7750    6.0690 C.2   174  ASP174      0.3671
    135  OD1       10.8680   30.3520    6.6360 O.co2 174  ASP174     -0.2456
    136  OD2        8.9060   31.3460    6.7010 O.co2 174  ASP174     -0.2456
    137  N          4.8040   35.3460    0.0600 N.3   283  HIS283     -0.1241
    138  CA         5.4510   36.4980    0.6410 C.3   283  HIS283      0.1621
    139  C          5.5480   37.6020   -0.4010 C.2   283  HIS283      0.2264
    140  O          5.7710   37.3370   -1.5800 O.2   283  HIS283     -0.2867
    141  CB         6.8420   36.0740    1.1260 C.3   283  HIS283      0.0745
    142  CG         7.6290   37.1650    1.8210 C.ar  283  HIS283      0.0817
    143  ND1        8.2830   38.1280    1.1430 N.ar  283  HIS283     -0.2268
    144  CD2        7.9890   37.3260    3.1740 C.ar  283  HIS283      0.1154
    145  CE1        8.9610   38.9200    2.0250 C.ar  283  HIS283      0.1986
    146  NE2        8.8010   38.4060    3.2470 N.ar  283  HIS283     -0.2212
@<TRIPOS>BOND
     1   140   139    2
     2   117   118    1
     3   139   138    1
     4   137   138    1
     5   123   125   ar
     6   123   122   ar
     7   121   118    1
     8   121   122    1
     9   118   119    1
    10   138   141    1
    11   125   127   ar
    12   122   124   ar
    13   141   142    1
    14   143   142   ar
    15   143   145   ar
    16   119   120    2
    17   119   129   am
    18   142   144   ar
    19   145   146   ar
    20   127   128    1
    21   127   126   ar
    22   124   126   ar
    23   129   130    1
    24   112   111    2
    25   144   146   ar
    26   130   131    1
    27   130   133    1
    28   111   110    1
    29   132   131    2
    30   113   110    1
    31   113   114    1
    32   133   134    1
    33   110   109    1
    34    31    29    1
    35   114   115   ar
    36   114   116   ar
    37   107   106    2
    38   109   106   am
    39   134   135   ar
    40   134   136   ar
    41   106   105    1
    42    29    30    1
    43    29    26    1
    44    99    98    2
    45    28    27    2
    46    27    26    1
    47    26    25    1
    48   105   104    1
    49   105   108    1
    50    98   104   am
    51    98    97    1
    52   100    97    1
    53   100   101    1
    54    97    96    1
    55    25    18   am
    56   103   101   am
    57    23    22    2
    58   101   102    2
    59    15    14    1
    60    18    19    2
    61    18    17    1
    62    66    64    1
    63    14    13    1
    64    22    21    1
    65    22    24   am
    66    13    12    1
    67    64    65    1
    68    64    63    2
    69    21    20    1
    70    20    17    1
    71    63    62    1
    72    17    16    1
    73    16    10   am
    74    62    61    1
    75    12     9    1
    76     4     3    2
    77     9    10    1
    78     9     8    1
    79    10    11    2
    80     3     8   am
    81     3     2    1
    82    95    93    1
    83    61    60    1
    84     7     1    1
    85     7     6    1
    86    60    57    1
    87     1     2    1
    88     2     5    1
    89    93    94    1
    90    93    92    2
    91     6     5    1
    92    78    79    1
    93    78    77    1
    94    45    46    1
    95    45    44    1
    96    77    76    1
    97    46    40    1
    98    92    91    1
    99    57    58    1
   100    57    56    1
   101    58    59    2
   102    35    34    2
   103    76    73    1
   104    44    41    1
   105    40    41    1
   106    91    90    1
   107    32    33    1
   108    34    33    1
   109    43    42    2
   110    41    42    1
   111    90    89    1
   112    73    72    1
   113    73    74    1
   114    33    36    1
   115    38    36    1
   116    72    69   am
   117    54    53    2
   118    74    75    2
   119    36    37    1
   120    89    86    1
   121    71    68    1
   122    84    81    1
   123    69    68    1
   124    69    70    2
   125    53    55   am
   126    53    52    1
   127    67    68    1
   128    86    85    1
   129    86    87    1
   130    37    39    1
   131    85    82   am
   132    82    81    1
   133    82    83    2
   134    52    51    1
   135    81    80    1
   136    87    88    2
   137    51    48    1
   138    47    48    1
   139    48    49    1
   140    49    50    2
