@<TRIPOS>MOLECULE
tmp/3zfdA00.pdb
 151 145 0 0 0
SMALL
GASTEIGER

@<TRIPOS>ATOM
      1  N        -30.1640   13.8620   24.3150 N.3    12  ARG12      -0.1245
      2  CA       -30.0720   12.5130   24.8430 C.3    12  ARG12       0.1563
      3  C        -29.0920   12.4260   25.9650 C.2    12  ARG12       0.2260
      4  O        -27.9010   12.6670   25.7780 O.2    12  ARG12      -0.2867
      5  CB       -29.7090   11.4790   23.8080 C.3    12  ARG12       0.0307
      6  CG       -29.7280   10.1040   24.5040 C.3    12  ARG12       0.0489
      7  CD       -29.2150    9.0270   23.6390 C.3    12  ARG12       0.2205
      8  NE       -29.7010    7.7200   24.0620 N.pl3  12  ARG12      -0.0865
      9  CZ       -29.4720    6.6030   23.3960 C.cat  12  ARG12       0.5346
     10  NH1      -28.6870    6.6000   22.3270 N.pl3  12  ARG12       0.1354
     11  NH2      -29.9890    5.4590   23.8280 N.pl3  12  ARG12       0.1354
     12  N        -27.2850   10.0000   28.5510 N.3    14  ARG14      -0.1231
     13  CA       -26.9390    8.6050   28.7700 C.3    14  ARG14       0.1679
     14  C        -26.9220    8.3590   30.2610 C.2    14  ARG14       0.2434
     15  O        -26.9260    9.2920   31.0500 O.2    14  ARG14      -0.2733
     16  CB       -25.5660    8.3110   28.1800 C.3    14  ARG14       0.0321
     17  CG       -24.4200    9.1340   28.7580 C.3    14  ARG14       0.0489
     18  CD       -23.1530    8.3300   28.6120 C.3    14  ARG14       0.2205
     19  NE       -21.9350    9.0810   28.9060 N.pl3  14  ARG14      -0.0865
     20  CZ       -21.5390    9.4710   30.1130 C.cat  14  ARG14       0.5346
     21  NH1      -22.2270    9.1630   31.1980 N.pl3  14  ARG14       0.1354
     22  NH2      -20.4150   10.1540   30.2400 N.pl3  14  ARG14       0.1354
     23  N        -26.8980    7.0910   30.6700 N.am   15  PRO15      -0.2729
     24  CA       -26.6800    6.8000   32.0780 C.3    15  PRO15       0.1401
     25  C        -25.2680    7.1470   32.5270 C.2    15  PRO15       0.2269
     26  O        -24.3610    7.2870   31.7020 O.2    15  PRO15      -0.2865
     27  CB       -26.8710    5.2790   32.1570 C.3    15  PRO15       0.0296
     28  CG       -27.3450    4.8330   30.8360 C.3    15  PRO15       0.0237
     29  CD       -27.0360    5.8830   29.8500 C.3    15  PRO15       0.0939
     30  N        -21.6210    6.3620   33.6580 N.3    17  VAL17      -0.1245
     31  CA       -20.6910    5.3520   33.2210 C.3    17  VAL17       0.1561
     32  C        -19.7290    5.0450   34.3730 C.2    17  VAL17       0.2260
     33  O        -19.6910    5.7500   35.3800 O.2    17  VAL17      -0.2867
     34  CB       -19.9050    5.7710   31.9670 C.3    17  VAL17       0.0252
     35  CG1      -20.8360    5.9180   30.7720 C.3    17  VAL17       0.0019
     36  CG2      -19.1180    7.0610   32.1990 C.3    17  VAL17       0.0019
     37  N        -31.8800    8.8390   30.5730 N.3    54  PRO54      -0.2116
     38  CA       -31.0010    7.6900   30.5660 C.3    54  PRO54       0.1372
     39  C        -31.6590    6.3250   30.3360 C.2    54  PRO54       0.2244
     40  O        -30.9730    5.3810   29.9350 O.2    54  PRO54      -0.2868
     41  CB       -30.3340    7.7670   31.9500 C.3    54  PRO54       0.0268
     42  CG       -30.3240    9.2180   32.2530 C.3    54  PRO54       0.0207
     43  CD       -31.6640    9.6740   31.7600 C.3    54  PRO54       0.0892
     44  N        -33.8770    5.6780   28.0470 N.3    56  THR56      -0.1218
     45  CA       -34.3790    5.6090   26.6820 C.3    56  THR56       0.1862
     46  C        -33.4660    4.7410   25.8480 C.2    56  THR56       0.2287
     47  O        -32.2520    4.9630   25.7960 O.2    56  THR56      -0.2866
     48  CB       -34.4960    6.9910   26.0420 C.3    56  THR56       0.1770
     49  OG1      -35.2620    7.8500   26.8950 O.3    56  THR56      -0.2211
     50  CG2      -35.2010    6.8870   24.6890 C.3    56  THR56       0.0375
     51  N        -16.6670   14.6980   24.7880 N.3    87  THR87      -0.1203
     52  CA       -16.1180   13.3380   24.7670 C.3    87  THR87       0.1994
     53  C        -16.7790   12.4410   25.8190 C.2    87  THR87       0.2618
     54  O        -16.9960   12.8320   26.9580 O.2    87  THR87      -0.2717
     55  CB       -14.5720   13.3360   24.9420 C.3    87  THR87       0.1784
     56  OG1      -14.0640   11.9980   24.8210 O.3    87  THR87      -0.2211
     57  CG2      -14.1590   13.9140   26.2870 C.3    87  THR87       0.0376
     58  N        -17.1210   11.2210   25.4050 N.am   88  GLY88      -0.1942
     59  CA       -17.7000   10.2350   26.2760 C.3    88  GLY88       0.2014
     60  C        -19.1890   10.3720   26.4890 C.2    88  GLY88       0.2640
     61  O        -19.7640    9.5510   27.2020 O.2    88  GLY88      -0.2714
     62  N        -19.8080   11.3930   25.8870 N.am   89  SER89      -0.1935
     63  CA       -21.2570   11.6420   26.0580 C.3    89  SER89       0.2055
     64  C        -22.2090   10.6540   25.3920 C.2    89  SER89       0.2644
     65  O        -23.3540   10.5060   25.8700 O.2    89  SER89      -0.2714
     66  CB       -21.6650   13.0610   25.6720 C.3    89  SER89       0.2130
     67  OG       -21.3230   13.3390   24.3390 O.3    89  SER89      -0.2179
     68  N        -21.7610    9.9830   24.3180 N.am   90  GLY90      -0.1939
     69  CA       -22.5320    8.9320   23.6410 C.3    90  GLY90       0.2014
     70  C        -22.8850    9.1990   22.1870 C.2    90  GLY90       0.2639
     71  O        -23.8290    8.6200   21.6770 O.2    90  GLY90      -0.2714
     72  N        -22.1150   10.0480   21.5140 N.am   91  LYS91      -0.1963
     73  CA       -22.3370   10.3670   20.0910 C.3    91  LYS91       0.1728
     74  C        -22.1700    9.1290   19.1920 C.2    91  LYS91       0.2617
     75  O        -23.0360    8.8040   18.4040 O.2    91  LYS91      -0.2715
     76  CB       -21.3680   11.4370   19.6230 C.3    91  LYS91       0.0311
     77  CG       -21.4540   12.7990   20.3610 C.3    91  LYS91       0.0038
     78  CD       -20.4440   13.7980   19.8380 C.3    91  LYS91       0.0206
     79  CE       -19.0050   13.4040   20.1590 C.3    91  LYS91       0.1093
     80  NZ       -18.7160   13.2700   21.5970 N.3    91  LYS91      -0.1314
     81  N        -21.0400    8.4460   19.3260 N.am   92  THR92      -0.1937
     82  CA       -20.7470    7.2740   18.4940 C.3    92  THR92       0.2028
     83  C        -21.7410    6.1630   18.8210 C.2    92  THR92       0.2642
     84  O        -22.2890    5.5130   17.9210 O.2    92  THR92      -0.2714
     85  CB       -19.2960    6.8300   18.7110 C.3    92  THR92       0.1808
     86  OG1      -18.4230    7.8540   18.2300 O.3    92  THR92      -0.2208
     87  CG2      -18.9600    5.5480   17.9380 C.3    92  THR92       0.0379
     88  N        -21.9870    5.9620   20.1140 N.am   93  TYR93      -0.1959
     89  CA       -22.9760    5.0130   20.5680 C.3    93  TYR93       0.1771
     90  C        -24.3340    5.3000   19.9530 C.2    93  TYR93       0.2620
     91  O        -24.9950    4.3900   19.4210 O.2    93  TYR93      -0.2715
     92  CB       -23.0810    5.0340   22.0870 C.3    93  TYR93       0.0574
     93  CG       -24.1290    4.0870   22.6130 C.ar   93  TYR93      -0.0198
     94  CD1      -23.8260    2.7550   22.7950 C.ar   93  TYR93      -0.0009
     95  CD2      -25.4150    4.5130   22.8870 C.ar   93  TYR93      -0.0009
     96  CE1      -24.7720    1.8770   23.2740 C.ar   93  TYR93       0.0417
     97  CE2      -26.3630    3.6350   23.3740 C.ar   93  TYR93       0.0417
     98  CZ       -26.0350    2.3250   23.5630 C.ar   93  TYR93       0.1957
     99  OH       -26.9700    1.4130   24.0270 O.3    93  TYR93      -0.2866
    100  N        -24.7410    6.5580   19.9860 N.am   94  SER94      -0.1950
    101  CA       -26.0710    6.9320   19.4580 C.3    94  SER94       0.1924
    102  C        -26.1360    6.7480   17.9480 C.2    94  SER94       0.2314
    103  O        -27.1700    6.3510   17.4130 O.2    94  SER94      -0.2863
    104  CB       -26.4100    8.3790   19.8190 C.3    94  SER94       0.2116
    105  OG       -26.6200    8.5010   21.2130 O.3    94  SER94      -0.2180
    106  N        -11.0030    9.7660   29.3670 N.3   198  MET198     -0.1230
    107  CA       -12.4380   10.0390   29.2970 C.3   198  MET198      0.1702
    108  C        -13.1900    9.0510   28.4030 C.2   198  MET198      0.2592
    109  O        -14.4090    8.9130   28.5240 O.2   198  MET198     -0.2718
    110  CB       -12.6850   11.4680   28.7980 C.3   198  MET198      0.0401
    111  CG       -12.3330   12.4980   29.8440 C.3   198  MET198      0.0596
    112  SD       -13.4550   12.4890   31.2460 S.3   198  MET198     -0.1393
    113  CE       -14.8920   13.2920   30.5600 C.3   198  MET198      0.0692
    114  N        -12.4780    8.4050   27.4880 N.am  199  ASN199     -0.1974
    115  CA       -13.0970    7.4140   26.6050 C.3   199  ASN199      0.1688
    116  C        -12.0250    6.4930   26.0020 C.2   199  ASN199      0.2292
    117  O        -11.1770    6.9260   25.2410 O.2   199  ASN199     -0.2864
    118  CB       -13.9290    8.1160   25.5030 C.3   199  ASN199      0.1181
    119  CG       -14.7790    7.1490   24.6750 C.2   199  ASN199      0.2629
    120  OD1      -14.6480    5.9210   24.7590 O.2   199  ASN199     -0.2716
    121  ND2      -15.6390    7.7060   23.8410 N.am  199  ASN199     -0.0877
    122  N        -12.3370    4.4260   23.7210 N.3   201  GLN201     -0.1231
    123  CA       -12.5790    4.3510   22.2840 C.3   201  GLN201      0.1698
    124  C        -13.0240    5.7110   21.7430 C.2   201  GLN201      0.2593
    125  O        -14.0360    5.8240   21.0430 O.2   201  GLN201     -0.2718
    126  CB       -13.6390    3.3000   22.0050 C.3   201  GLN201      0.0381
    127  CG       -13.2860    1.9010   22.5260 C.3   201  GLN201      0.0905
    128  CD       -12.3340    1.0990   21.6650 C.2   201  GLN201      0.2608
    129  OE1      -11.8900   -0.0120   22.0630 O.2   201  GLN201     -0.2717
    130  NE2      -12.0270    1.6020   20.4920 N.am  201  GLN201     -0.0878
    131  N        -12.2600    6.7400   22.0780 N.am  202  SER202     -0.1938
    132  CA       -12.5520    8.1030   21.6700 C.3   202  SER202      0.2055
    133  C        -12.4070    8.2600   20.1670 C.2   202  SER202      0.2643
    134  O        -11.3850    7.8540   19.5700 O.2   202  SER202     -0.2714
    135  CB       -11.6360    9.1030   22.3630 C.3   202  SER202      0.2130
    136  OG       -11.9180   10.4120   21.8930 O.3   202  SER202     -0.2179
    137  N        -13.4070    8.8860   19.5480 N.am  203  SER203     -0.1949
    138  CA       -13.3070    9.2040   18.1220 C.3   203  SER203      0.1924
    139  C        -12.3480   10.3870   17.9270 C.2   203  SER203      0.2314
    140  O        -12.5600   11.4630   18.5100 O.2   203  SER203     -0.2863
    141  CB       -14.6600    9.5630   17.5480 C.3   203  SER203      0.2116
    142  OG       -15.6790    8.6490   17.9390 O.3   203  SER203     -0.2180
    143  N        -16.5780   14.3820   16.4410 N.3   235  ALA235     -0.1231
    144  CA       -15.7130   14.3080   17.5940 C.3   235  ALA235      0.1694
    145  C        -16.2310   15.2970   18.6540 C.2   235  ALA235      0.2592
    146  O        -17.0970   16.1350   18.3690 O.2   235  ALA235     -0.2718
    147  CB       -14.2650   14.5690   17.1870 C.3   235  ALA235      0.0304
    148  N        -15.7960   15.1020   19.8900 N.am  236  GLY236     -0.1957
    149  CA       -16.3470   15.8240   21.0350 C.3   236  GLY236      0.1869
    150  C        -15.3290   16.6870   21.7400 C.2   236  GLY236      0.2309
    151  O        -14.1110   16.4480   21.6750 O.2   236  GLY236     -0.2863
@<TRIPOS>BOND
     1   143   144    1
     2   147   144    1
     3   103   102    2
     4   141   142    1
     5   141   138    1
     6   144   145    1
     7    84    83    2
     8   139   138    1
     9   139   140    2
    10    87    85    1
    11   102   101    1
    12   138   137    1
    13    86    85    1
    14   146   145    2
    15    75    74    2
    16    82    85    1
    17    82    83    1
    18    82    81    1
    19   145   148   am
    20    83    88   am
    21    74    81   am
    22    74    73    1
    23    91    90    2
    24   101   104    1
    25   101   100    1
    26   137   133   am
    27   134   133    2
    28    76    73    1
    29    76    77    1
    30   104   105    1
    31    78    79    1
    32    78    77    1
    33   148   149    1
    34    90   100   am
    35    90    89    1
    36    73    72    1
    37    88    89    1
    38    79    80    1
    39   133   132    1
    40   130   128   am
    41    89    92    1
    42   149   150    1
    43   125   124    2
    44    72    70   am
    45   128   129    2
    46   128   127    1
    47   132   131    1
    48   132   135    1
    49   151   150    2
    50    71    70    2
    51   124   131   am
    52   124   123    1
    53   136   135    1
    54   126   123    1
    55   126   127    1
    56    92    93    1
    57    70    69    1
    58   123   122    1
    59    10     9    1
    60    93    94   ar
    61    93    95   ar
    62    94    96   ar
    63    95    97   ar
    64    96    98   ar
    65    97    98   ar
    66     9    11    1
    67     9     8    2
    68    98    99    1
    69     7     8    1
    70     7     6    1
    71    69    68    1
    72     5     6    1
    73     5     2    1
    74   121   119   am
    75     1     2    1
    76    68    64   am
    77    67    66    1
    78   119   120    2
    79   119   118    1
    80    50    48    1
    81    52    51    1
    82    52    55    1
    83    52    53    1
    84    56    55    1
    85     2     3    1
    86    55    57    1
    87   117   116    2
    88    64    65    2
    89    64    63    1
    90    58    53   am
    91    58    59    1
    92   118   115    1
    93    66    63    1
    94     4     3    2
    95    47    46    2
    96    53    54    2
    97    46    45    1
    98    62    63    1
    99    62    60   am
   100   116   115    1
   101    48    45    1
   102    48    49    1
   103    59    60    1
   104    60    61    2
   105   115   114    1
   106    45    44    1
   107   114   108   am
   108    16    17    1
   109    16    13    1
   110   108   109    2
   111   108   107    1
   112    12    13    1
   113    18    17    1
   114    18    19    1
   115    13    14    1
   116   110   107    1
   117   110   111    1
   118    19    20    2
   119   107   106    1
   120   111   112    1
   121    29    23    1
   122    29    28    1
   123    40    39    2
   124    20    22    1
   125    20    21    1
   126    14    23   am
   127    14    15    2
   128    39    38    1
   129   113   112    1
   130    38    37    1
   131    38    41    1
   132    37    43    1
   133    23    24    1
   134    35    34    1
   135    28    27    1
   136    26    25    2
   137    43    42    1
   138    41    42    1
   139    34    36    1
   140    34    31    1
   141    24    27    1
   142    24    25    1
   143    31    30    1
   144    31    32    1
   145    32    33    2
