@<TRIPOS>MOLECULE
tmp/3zfgA00.pdb
 231 226 0 0 0
SMALL
GASTEIGER

@<TRIPOS>ATOM
      1  N         64.4970  177.4930  558.7190 N.3   108  TRP108     -0.1241
      2  CA        65.8590  177.6650  559.1870 C.3   108  TRP108      0.1605
      3  C         66.6340  178.5310  558.2130 C.2   108  TRP108      0.2264
      4  O         66.7710  178.1820  557.0440 O.2   108  TRP108     -0.2867
      5  CB        66.5460  176.3120  559.3200 C.3   108  TRP108      0.0550
      6  CG        67.9410  176.4070  559.8370 C.ar  108  TRP108      0.0003
      7  CD1       68.3300  176.8130  561.0820 C.ar  108  TRP108      0.0946
      8  CD2       69.1410  176.0970  559.1230 C.ar  108  TRP108      0.0152
      9  NE1       69.7000  176.7770  561.1870 N.ar  108  TRP108     -0.2442
     10  CE2       70.2220  176.3420  559.9970 C.ar  108  TRP108      0.0810
     11  CE3       69.4090  175.6410  557.8260 C.ar  108  TRP108      0.0012
     12  CZ2       71.5510  176.1390  559.6180 C.ar  108  TRP108      0.0191
     13  CZ3       70.7300  175.4410  557.4500 C.ar  108  TRP108      0.0001
     14  CH2       71.7830  175.6920  558.3430 C.ar  108  TRP108      0.0015
     15  N         69.5200  179.5310  556.3510 N.3   110  ILE110     -0.1231
     16  CA        70.7420  178.7980  555.9870 C.3   110  ILE110      0.1692
     17  C         72.0000  179.5810  556.3470 C.2   110  ILE110      0.2592
     18  O         72.4310  180.4850  555.6210 O.2   110  ILE110     -0.2718
     19  CB        70.7630  178.4880  554.4920 C.3   110  ILE110      0.0266
     20  CG1       69.4820  177.7470  554.1110 C.3   110  ILE110      0.0019
     21  CG2       71.9940  177.6650  554.1460 C.3   110  ILE110      0.0020
     22  CD1       69.2990  177.5830  552.6280 C.3   110  ILE110      0.0001
     23  N         72.5970  179.1990  557.4650 N.am  111  ASP111     -0.1960
     24  CA        73.7630  179.8710  557.9830 C.3   111  ASP111      0.1840
     25  C         74.5930  178.8500  558.7510 C.2   111  ASP111      0.2622
     26  O         74.1520  178.3480  559.7860 O.2   111  ASP111     -0.2715
     27  CB        73.2820  180.9730  558.9230 C.3   111  ASP111      0.1450
     28  CG        74.4060  181.7670  559.4920 C.2   111  ASP111      0.3671
     29  OD1       75.5310  181.2450  559.4520 O.co2 111  ASP111     -0.2456
     30  OD2       74.1770  182.8930  559.9830 O.co2 111  ASP111     -0.2456
     31  N         75.7940  178.5420  558.2730 N.am  112  ILE112     -0.1963
     32  CA        76.6190  177.5540  558.9710 C.3   112  ILE112      0.1727
     33  C         77.4140  178.0600  560.1790 C.2   112  ILE112      0.2616
     34  O         78.1040  177.2780  560.8460 O.2   112  ILE112     -0.2715
     35  CB        77.6070  176.8800  558.0200 C.3   112  ILE112      0.0290
     36  CG1       78.5830  177.9110  557.4640 C.3   112  ILE112      0.0022
     37  CG2       76.8490  176.1880  556.9100 C.3   112  ILE112      0.0023
     38  CD1       79.8110  177.2810  556.8520 C.3   112  ILE112      0.0001
     39  N         77.3130  179.3550  560.4660 N.am  113  THR113     -0.1951
     40  CA        78.0290  179.9300  561.5970 C.3   113  THR113      0.1897
     41  C         77.4010  179.6330  562.9790 C.2   113  THR113      0.2313
     42  O         77.8450  180.1680  563.9990 O.2   113  THR113     -0.2863
     43  CB        78.1840  181.4560  561.4210 C.3   113  THR113      0.1794
     44  OG1       78.8890  181.9870  562.5440 O.3   113  THR113     -0.2208
     45  CG2       76.8520  182.1350  561.3510 C.3   113  THR113      0.0378
     46  N         83.0040  176.2700  547.0120 N.3   130  PHE130     -0.1241
     47  CA        82.8310  174.8210  547.0790 C.3   130  PHE130      0.1605
     48  C         81.3940  174.3640  546.8750 C.2   130  PHE130      0.2264
     49  O         80.4420  175.1530  546.9410 O.2   130  PHE130     -0.2867
     50  CB        83.2890  174.3290  548.4480 C.3   130  PHE130      0.0534
     51  CG        82.5280  174.9580  549.5940 C.ar  130  PHE130     -0.0203
     52  CD1       81.2370  174.5380  549.9120 C.ar  130  PHE130     -0.0042
     53  CD2       83.0800  176.0050  550.3260 C.ar  130  PHE130     -0.0042
     54  CE1       80.5100  175.1530  550.9340 C.ar  130  PHE130     -0.0003
     55  CE2       82.3540  176.6240  551.3520 C.ar  130  PHE130     -0.0003
     56  CZ        81.0710  176.1950  551.6510 C.ar  130  PHE130     -0.0000
     57  N         78.5800  171.2520  548.0980 N.3   132  ALA132     -0.1245
     58  CA        78.3960  170.5750  549.3690 C.3   132  ALA132      0.1562
     59  C         77.3730  169.4640  549.3210 C.2   132  ALA132      0.2260
     60  O         76.5200  169.4230  548.4350 O.2   132  ALA132     -0.2867
     61  CB        78.0110  171.5780  550.4320 C.3   132  ALA132      0.0290
     62  N         74.5240  167.9560  551.5990 N.3   134  PHE134     -0.1241
     63  CA        73.7290  168.1360  552.7870 C.3   134  PHE134      0.1605
     64  C         72.9890  166.8700  553.1230 C.2   134  PHE134      0.2264
     65  O         72.3140  166.2900  552.2750 O.2   134  PHE134     -0.2867
     66  CB        72.7470  169.2760  552.6040 C.3   134  PHE134      0.0534
     67  CG        73.3730  170.6070  552.7590 C.ar  134  PHE134     -0.0203
     68  CD1       74.0560  171.1900  551.7050 C.ar  134  PHE134     -0.0042
     69  CD2       73.3590  171.2450  553.9900 C.ar  134  PHE134     -0.0042
     70  CE1       74.7270  172.3970  551.8750 C.ar  134  PHE134     -0.0003
     71  CE2       74.0230  172.4480  554.1760 C.ar  134  PHE134     -0.0003
     72  CZ        74.7110  173.0280  553.1180 C.ar  134  PHE134     -0.0000
     73  N         70.3390  165.1600  556.0010 N.3   136  PHE136     -0.1241
     74  CA        69.3680  165.4870  557.0400 C.3   136  PHE136      0.1605
     75  C         68.9450  164.2950  557.8790 C.2   136  PHE136      0.2264
     76  O         68.2300  163.4080  557.4020 O.2   136  PHE136     -0.2867
     77  CB        68.1430  166.1190  556.3940 C.3   136  PHE136      0.0534
     78  CG        68.4820  167.1670  555.3890 C.ar  136  PHE136     -0.0203
     79  CD1       68.7920  166.8180  554.0870 C.ar  136  PHE136     -0.0042
     80  CD2       68.5520  168.5010  555.7580 C.ar  136  PHE136     -0.0042
     81  CE1       69.1650  167.7870  553.1560 C.ar  136  PHE136     -0.0003
     82  CE2       68.9250  169.4770  554.8400 C.ar  136  PHE136     -0.0003
     83  CZ        69.2340  169.1200  553.5320 C.ar  136  PHE136     -0.0000
     84  N         61.1950  168.5850  552.9750 N.3   152  TYR152     -0.1227
     85  CA        62.2040  169.6120  553.1350 C.3   152  TYR152      0.1736
     86  C         62.0950  170.4280  551.8640 C.2   152  TYR152      0.2595
     87  O         61.8350  169.8710  550.7970 O.2   152  TYR152     -0.2718
     88  CB        63.5950  169.0130  553.2240 C.3   152  TYR152      0.0548
     89  CG        63.7690  167.9570  554.2800 C.ar  152  TYR152     -0.0200
     90  CD1       63.2950  168.1380  555.5780 C.ar  152  TYR152     -0.0009
     91  CD2       64.4820  166.8000  553.9990 C.ar  152  TYR152     -0.0009
     92  CE1       63.5400  167.1790  556.5740 C.ar  152  TYR152      0.0417
     93  CE2       64.7320  165.8450  554.9750 C.ar  152  TYR152      0.0417
     94  CZ        64.2660  166.0350  556.2570 C.ar  152  TYR152      0.1957
     95  OH        64.5640  165.0780  557.2000 O.3   152  TYR152     -0.2866
     96  N         62.2780  171.7380  551.9650 N.am  153  MET153     -0.1965
     97  CA        62.1830  172.5850  550.7880 C.3   153  MET153      0.1736
     98  C         63.1690  173.7270  550.8210 C.2   153  MET153      0.2616
     99  O         63.1360  174.5570  551.7170 O.2   153  MET153     -0.2715
    100  CB        60.7780  173.1540  550.6510 C.3   153  MET153      0.0427
    101  CG        60.6120  174.0220  549.4230 C.3   153  MET153      0.0599
    102  SD        58.8990  174.5280  549.1520 S.3   153  MET153     -0.1393
    103  CE        59.0970  176.2710  548.8060 C.3   153  MET153      0.0692
    104  N         64.0550  173.7680  549.8420 N.am  154  PHE154     -0.1974
    105  CA        65.0260  174.8380  549.7780 C.3   154  PHE154      0.1639
    106  C         64.2850  176.0620  549.2460 C.2   154  PHE154      0.2290
    107  O         63.6340  175.9940  548.2060 O.2   154  PHE154     -0.2864
    108  CB        66.1690  174.4400  548.8470 C.3   154  PHE154      0.0560
    109  CG        67.1260  175.5500  548.5620 C.ar  154  PHE154     -0.0200
    110  CD1       67.6540  176.3090  549.5930 C.ar  154  PHE154     -0.0042
    111  CD2       67.4930  175.8470  547.2590 C.ar  154  PHE154     -0.0042
    112  CE1       68.5320  177.3540  549.3260 C.ar  154  PHE154     -0.0003
    113  CE2       68.3690  176.8860  546.9850 C.ar  154  PHE154     -0.0003
    114  CZ        68.8880  177.6400  548.0190 C.ar  154  PHE154     -0.0000
    115  N         63.2610  173.1730  544.9440 N.3   176  PRO176     -0.2102
    116  CA        63.5510  171.7440  545.0510 C.3   176  PRO176      0.1504
    117  C         63.1620  171.2520  546.4410 C.2   176  PRO176      0.2576
    118  O         63.6620  171.7510  547.4470 O.2   176  PRO176     -0.2718
    119  CB        65.0560  171.6740  544.7880 C.3   176  PRO176      0.0282
    120  CG        65.5460  172.9780  545.3070 C.3   176  PRO176      0.0208
    121  CD        64.5030  173.9560  544.8170 C.3   176  PRO176      0.0893
    122  N         62.2490  170.2920  546.4960 N.am  177  SER177     -0.1938
    123  CA        61.8230  169.7430  547.7770 C.3   177  SER177      0.2055
    124  C         62.1610  168.2690  547.8810 C.2   177  SER177      0.2642
    125  O         62.3970  167.5920  546.8770 O.2   177  SER177     -0.2714
    126  CB        60.3180  169.9210  547.9800 C.3   177  SER177      0.2130
    127  OG        59.9980  171.2750  548.2230 O.3   177  SER177     -0.2179
    128  N         62.1810  167.7730  549.1070 N.am  178  VAL178     -0.1977
    129  CA        62.4820  166.3760  549.3440 C.3   178  VAL178      0.1596
    130  C         61.4380  165.8050  550.2720 C.2   178  VAL178      0.2287
    131  O         61.0940  166.4200  551.2810 O.2   178  VAL178     -0.2864
    132  CB        63.8560  166.2140  549.9990 C.3   178  VAL178      0.0276
    133  CG1       64.1100  164.7540  550.3420 C.3   178  VAL178      0.0022
    134  CG2       64.9190  166.7390  549.0700 C.3   178  VAL178      0.0022
    135  N         71.6060  165.1080  549.7770 N.3   189  VAL189     -0.1245
    136  CA        71.4590  165.7300  548.4840 C.3   189  VAL189      0.1561
    137  C         72.7100  166.5420  548.1400 C.2   189  VAL189      0.2260
    138  O         73.4890  166.9060  549.0210 O.2   189  VAL189     -0.2867
    139  CB        70.2030  166.6180  548.5200 C.3   189  VAL189      0.0252
    140  CG1       70.5650  168.0360  548.8980 C.3   189  VAL189      0.0019
    141  CG2       69.4850  166.5430  547.2240 C.3   189  VAL189      0.0019
    142  N         74.5050  169.9340  546.6160 N.3   191  VAL191     -0.1245
    143  CA        74.3290  171.3610  546.3640 C.3   191  VAL191      0.1561
    144  C         75.5600  171.9990  545.7290 C.2   191  VAL191      0.2260
    145  O         76.6890  171.7440  546.1470 O.2   191  VAL191     -0.2867
    146  CB        74.0420  172.1220  547.6720 C.3   191  VAL191      0.0252
    147  CG1       73.9060  173.6040  547.3870 C.3   191  VAL191      0.0019
    148  CG2       72.7840  171.5900  548.3170 C.3   191  VAL191      0.0019
    149  N         76.3180  178.1600  544.8050 N.3   194  MET194     -0.1245
    150  CA        75.3980  179.2130  544.4190 C.3   194  MET194      0.1570
    151  C         75.8710  180.4370  545.1430 C.2   194  MET194      0.2261
    152  O         76.2970  180.3350  546.2770 O.2   194  MET194     -0.2867
    153  CB        73.9870  178.8490  544.8500 C.3   194  MET194      0.0387
    154  CG        73.9470  178.1210  546.1640 C.3   194  MET194      0.0595
    155  SD        72.4630  177.1460  546.3220 S.3   194  MET194     -0.1393
    156  CE        72.7470  175.9800  545.0520 C.3   194  MET194      0.0692
    157  N         82.2920  182.2720  548.9210 N.3   200  TYR200     -0.1227
    158  CA        81.5550  182.6620  550.1100 C.3   200  TYR200      0.1736
    159  C         82.5890  183.4430  550.9170 C.2   200  TYR200      0.2595
    160  O         83.7890  183.1960  550.8110 O.2   200  TYR200     -0.2718
    161  CB        81.0620  181.4410  550.8880 C.3   200  TYR200      0.0548
    162  CG        80.1120  180.5370  550.1260 C.ar  200  TYR200     -0.0200
    163  CD1       78.9290  181.0210  549.5660 C.ar  200  TYR200     -0.0009
    164  CD2       80.3860  179.1850  549.9980 C.ar  200  TYR200     -0.0009
    165  CE1       78.0400  180.1660  548.8970 C.ar  200  TYR200      0.0417
    166  CE2       79.5120  178.3230  549.3350 C.ar  200  TYR200      0.0417
    167  CZ        78.3400  178.8090  548.7820 C.ar  200  TYR200      0.1957
    168  OH        77.5060  177.9140  548.1200 O.3   200  TYR200     -0.2866
    169  N         82.1210  184.3820  551.7220 N.am  201  GLN201     -0.1965
    170  CA        82.9910  185.2520  552.4960 C.3   201  GLN201      0.1733
    171  C         82.6860  185.0690  553.9750 C.2   201  GLN201      0.2616
    172  O         81.5900  185.3930  554.4380 O.2   201  GLN201     -0.2715
    173  CB        82.6730  186.6680  552.0590 C.3   201  GLN201      0.0408
    174  CG        83.7020  187.7080  552.2490 C.3   201  GLN201      0.0908
    175  CD        83.4170  188.8860  551.3370 C.2   201  GLN201      0.2608
    176  OE1       82.4990  188.6930  550.3820 O.2   201  GLN201     -0.2717
    177  NE2       84.0150  189.9500  551.4750 N.am  201  GLN201     -0.0878
    178  N         83.6370  184.5440  554.7300 N.am  202  TRP202     -0.1974
    179  CA        83.3890  184.3450  556.1500 C.3   202  TRP202      0.1640
    180  C         83.4310  185.6640  556.8920 C.2   202  TRP202      0.2290
    181  O         82.7510  185.8320  557.8980 O.2   202  TRP202     -0.2864
    182  CB        84.4120  183.3790  556.7340 C.3   202  TRP202      0.0576
    183  CG        84.3340  182.0340  556.1130 C.ar  202  TRP202      0.0006
    184  CD1       85.3770  181.2310  555.7560 C.ar  202  TRP202      0.0946
    185  CD2       83.1420  181.3340  555.7460 C.ar  202  TRP202      0.0152
    186  NE1       84.9090  180.0720  555.1850 N.ar  202  TRP202     -0.2442
    187  CE2       83.5390  180.1090  555.1660 C.ar  202  TRP202      0.0810
    188  CE3       81.7710  181.6210  555.8530 C.ar  202  TRP202      0.0012
    189  CZ2       82.6150  179.1730  554.6870 C.ar  202  TRP202      0.0191
    190  CZ3       80.8570  180.6930  555.3810 C.ar  202  TRP202      0.0001
    191  CH2       81.2810  179.4830  554.8040 C.ar  202  TRP202      0.0015
    192  N         76.2630  185.8040  550.9160 N.3   227  ASN227     -0.1240
    193  CA        76.3400  184.6060  551.7580 C.3   227  ASN227      0.1653
    194  C         74.9770  184.1090  552.2060 C.2   227  ASN227      0.2266
    195  O         74.8490  182.9500  552.6500 O.2   227  ASN227     -0.2867
    196  CB        77.1830  184.8440  553.0150 C.3   227  ASN227      0.1155
    197  CG        78.5910  185.2930  552.7010 C.2   227  ASN227      0.2627
    198  OD1       79.3060  184.6520  551.9320 O.2   227  ASN227     -0.2716
    199  ND2       79.0030  186.4040  553.3040 N.am  227  ASN227     -0.0877
    200  N         72.0880  182.5260  551.4340 N.3   229  MET229     -0.1245
    201  CA        71.6200  181.6460  550.3710 C.3   229  MET229      0.1570
    202  C         70.1370  181.3470  550.4080 C.2   229  MET229      0.2261
    203  O         69.6320  180.5990  549.5790 O.2   229  MET229     -0.2867
    204  CB        72.4140  180.3360  550.4180 C.3   229  MET229      0.0387
    205  CG        73.8650  180.5030  550.0170 C.3   229  MET229      0.0595
    206  SD        73.9480  181.2090  548.3480 S.3   229  MET229     -0.1393
    207  CE        74.3720  182.9200  548.6720 C.3   229  MET229      0.0692
    208  N         65.8620  177.1710  554.5610 N.3   232  PHE232     -0.1241
    209  CA        65.5600  175.7530  554.4260 C.3   232  PHE232      0.1605
    210  C         64.3040  175.5390  555.2560 C.2   232  PHE232      0.2264
    211  O         64.3330  175.7190  556.4650 O.2   232  PHE232     -0.2867
    212  CB        66.6960  174.9170  555.0050 C.3   232  PHE232      0.0534
    213  CG        66.3490  173.4720  555.1830 C.ar  232  PHE232     -0.0203
    214  CD1       65.7110  173.0340  556.3400 C.ar  232  PHE232     -0.0042
    215  CD2       66.6360  172.5500  554.1910 C.ar  232  PHE232     -0.0042
    216  CE1       65.3620  171.6930  556.5050 C.ar  232  PHE232     -0.0003
    217  CE2       66.2930  171.2050  554.3430 C.ar  232  PHE232     -0.0003
    218  CZ        65.6550  170.7760  555.5020 C.ar  232  PHE232     -0.0000
    219  N         76.6670  169.0950  556.8740 N.3   252  MET252     -0.1245
    220  CA        77.2160  169.5510  555.6020 C.3   252  MET252      0.1570
    221  C         78.6320  169.0780  555.3440 C.2   252  MET252      0.2261
    222  O         79.5200  169.2450  556.1790 O.2   252  MET252     -0.2867
    223  CB        77.2090  171.0680  555.5250 C.3   252  MET252      0.0387
    224  CG        77.9270  171.5810  554.3030 C.3   252  MET252      0.0595
    225  SD        78.1770  173.3550  554.3370 S.3   252  MET252     -0.1393
    226  CE        79.6520  173.4810  555.3650 C.3   252  MET252      0.0692
    227  N         77.6520  185.1680  562.4820 N.3   274  ALA274     -0.1245
    228  CA        78.0810  186.2870  561.6310 C.3   274  ALA274      0.1562
    229  C         78.2640  187.5310  562.4940 C.2   274  ALA274      0.2260
    230  O         77.5230  188.5090  562.3760 O.2   274  ALA274     -0.2867
    231  CB        77.0490  186.5500  560.5270 C.3   274  ALA274      0.0290
@<TRIPOS>BOND
     1   150   149    1
     2   150   153    1
     3   150   151    1
     4   119   116    1
     5   119   120    1
     6   121   115    1
     7   121   120    1
     8   153   154    1
     9   115   116    1
    10   116   117    1
    11   156   155    1
    12   151   152    2
    13   144   145    2
    14   144   143    1
    15   154   155    1
    16   143   142    1
    17   143   146    1
    18   117   122   am
    19   117   118    2
    20   122   123    1
    21    48    49    2
    22    48    47    1
    23   125   124    2
    24   113   111   ar
    25   113   114   ar
    26    46    47    1
    27    47    50    1
    28   141   139    1
    29   111   109   ar
    30   147   146    1
    31   146   148    1
    32   123   124    1
    33   123   126    1
    34   124   128   am
    35   126   127    1
    36   114   112   ar
    37    57    58    1
    38   168   167    1
    39   137   136    1
    40   137   138    2
    41   107   106    2
    42   206   207    1
    43   206   205    1
    44    60    59    2
    45    50    51    1
    46   136   139    1
    47   136   135    1
    48   139   140    1
    49   109   108    1
    50   109   110   ar
    51   167   165   ar
    52   167   166   ar
    53   103   102    1
    54   108   105    1
    55   165   163   ar
    56   157   158    1
    57   134   132    1
    58   128   129    1
    59   102   101    1
    60   106   105    1
    61    59    58    1
    62   112   110   ar
    63   166   164   ar
    64   129   132    1
    65   129   130    1
    66    58    61    1
    67   101   100    1
    68   163   162   ar
    69   203   202    2
    70    51    52   ar
    71    51    53   ar
    72   105   104    1
    73   104    98   am
    74    52    54   ar
    75   164   162   ar
    76   132   133    1
    77   205   204    1
    78   158   161    1
    79   158   159    1
    80   162   161    1
    81   130   131    2
    82    53    55   ar
    83   201   202    1
    84   201   204    1
    85   201   200    1
    86   176   175    2
    87   100    97    1
    88    97    98    1
    89    97    96    1
    90    87    86    2
    91   160   159    2
    92    98    99    2
    93   192   193    1
    94   159   169   am
    95    54    56   ar
    96   175   177   am
    97   175   174    1
    98    55    56   ar
    99    62    63    1
   100    68    70   ar
   101    68    67   ar
   102   169   170    1
   103   193   194    1
   104   193   196    1
   105    86    96   am
   106    86    85    1
   107    70    72   ar
   108   198   197    2
   109   173   174    1
   110   173   170    1
   111   194   195    2
   112    65    64    2
   113   170   171    1
   114    66    67    1
   115    66    63    1
   116    22    20    1
   117   197   196    1
   118   197   199   am
   119    67    69   ar
   120    63    64    1
   121    84    85    1
   122    72    71   ar
   123    85    88    1
   124    81    83   ar
   125    81    79   ar
   126    88    89    1
   127    83    82   ar
   128   171   172    2
   129   171   178   am
   130    69    71   ar
   131    91    89   ar
   132    91    93   ar
   133    79    78   ar
   134    20    19    1
   135    21    19    1
   136   215   217   ar
   137   215   213   ar
   138    89    90   ar
   139   224   225    1
   140   224   223    1
   141   225   226    1
   142   217   218   ar
   143   209   208    1
   144   209   212    1
   145   209   210    1
   146    19    16    1
   147   189   191   ar
   148   189   187   ar
   149   178   179    1
   150   191   190   ar
   151    82    80   ar
   152    93    94   ar
   153   212   213    1
   154   187   186   ar
   155   187   185   ar
   156   213   214   ar
   157   186   184   ar
   158   210   211    2
   159   221   220    1
   160   221   222    2
   161   190   188   ar
   162    78    80   ar
   163    78    77    1
   164   218   216   ar
   165   223   220    1
   166    90    92   ar
   167   220   219    1
   168    18    17    2
   169   185   188   ar
   170   185   183   ar
   171   184   183   ar
   172    16    17    1
   173    16    15    1
   174    73    74    1
   175   183   182    1
   176   179   182    1
   177   179   180    1
   178    94    92   ar
   179    94    95    1
   180   214   216   ar
   181    17    23   am
   182    77    74    1
   183    38    36    1
   184   180   181    2
   185    37    35    1
   186    74    75    1
   187     4     3    2
   188    76    75    2
   189    13    11   ar
   190    13    14   ar
   191    36    35    1
   192    23    24    1
   193    11     8   ar
   194    24    25    1
   195    24    27    1
   196    35    32    1
   197     3     2    1
   198    31    25   am
   199    31    32    1
   200    14    12   ar
   201     1     2    1
   202    25    26    2
   203    27    28    1
   204    32    33    1
   205     8     6   ar
   206     8    10   ar
   207     2     5    1
   208     5     6    1
   209    29    28   ar
   210    28    30   ar
   211    12    10   ar
   212     6     7   ar
   213    10     9   ar
   214    33    39   am
   215    33    34    2
   216    39    40    1
   217   231   228    1
   218     7     9   ar
   219    45    43    1
   220    43    40    1
   221    43    44    1
   222    40    41    1
   223   228   227    1
   224   228   229    1
   225   230   229    2
   226    41    42    2
