@<TRIPOS>MOLECULE
tmp/3zg2A01.pdb
 213 204 0 0 0
SMALL
GASTEIGER

@<TRIPOS>ATOM
      1  N         18.3600    3.0420  -19.3090 N.3    75  VAL75      -0.1231
      2  CA        17.4480    3.8510  -20.0950 C.3    75  VAL75       0.1692
      3  C         18.2380    4.9040  -20.8560 C.2    75  VAL75       0.2592
      4  O         17.7560    5.4740  -21.8290 O.2    75  VAL75      -0.2718
      5  CB        16.4010    4.4890  -19.1730 C.3    75  VAL75       0.0266
      6  CG1       15.5010    5.4320  -19.9560 C.3    75  VAL75       0.0020
      7  CG2       15.5930    3.3900  -18.5020 C.3    75  VAL75       0.0020
      8  N         19.4710    5.1250  -20.4160 N.am   76  TYR76      -0.1976
      9  CA        20.3010    6.2180  -20.9100 C.3    76  TYR76       0.1639
     10  C         21.4600    5.7540  -21.7870 C.2    76  TYR76       0.2290
     11  O         22.4950    6.4100  -21.8690 O.2    76  TYR76      -0.2864
     12  CB        20.8010    7.0530  -19.7290 C.3    76  TYR76       0.0560
     13  CG        19.6780    7.6980  -18.9490 C.ar   76  TYR76      -0.0198
     14  CD1       18.4110    7.8100  -19.4990 C.ar   76  TYR76      -0.0009
     15  CD2       19.8850    8.2140  -17.6800 C.ar   76  TYR76      -0.0009
     16  CE1       17.3760    8.3990  -18.8000 C.ar   76  TYR76       0.0417
     17  CE2       18.8560    8.8070  -16.9750 C.ar   76  TYR76       0.0417
     18  CZ        17.6060    8.8960  -17.5420 C.ar   76  TYR76       0.1957
     19  OH        16.5760    9.4880  -16.8530 O.3    76  TYR76      -0.2866
     20  N         21.3500    5.6590  -24.8380 N.3    78  ILE78      -0.1231
     21  CA        21.2530    6.4690  -26.0390 C.3    78  ILE78       0.1692
     22  C         22.1670    7.6710  -25.8940 C.2    78  ILE78       0.2591
     23  O         22.0510    8.6470  -26.6270 O.2    78  ILE78      -0.2718
     24  CB        19.8230    6.9980  -26.2280 C.3    78  ILE78       0.0266
     25  CG1       19.4590    7.9880  -25.1240 C.3    78  ILE78       0.0019
     26  CG2       18.8320    5.8470  -26.2440 C.3    78  ILE78       0.0020
     27  CD1       18.0630    8.5490  -25.2630 C.3    78  ILE78       0.0001
     28  N         23.0510    7.6130  -24.9100 N.am   79  MET79      -0.1979
     29  CA        23.8780    8.7740  -24.6210 C.3    79  MET79       0.1605
     30  C         25.3560    8.4440  -24.7660 C.2    79  MET79       0.2287
     31  O         26.1860    9.3450  -24.8720 O.2    79  MET79      -0.2864
     32  CB        23.5990    9.2850  -23.2080 C.3    79  MET79       0.0413
     33  CG        23.2680   10.7660  -23.1650 C.3    79  MET79       0.0598
     34  SD        21.6460   11.0780  -23.8850 S.3    79  MET79      -0.1393
     35  CE        21.9350   12.6640  -24.6630 C.3    79  MET79       0.0692
     36  N         28.8860   10.8360  -25.2940 N.3    83  PHE83      -0.1241
     37  CA        29.7750   11.0850  -24.1600 C.3    83  PHE83       0.1605
     38  C         31.0540   10.2530  -24.1740 C.2    83  PHE83       0.2264
     39  O         32.0790   10.6770  -23.6410 O.2    83  PHE83      -0.2867
     40  CB        29.0580   10.8500  -22.8290 C.3    83  PHE83       0.0534
     41  CG        27.8150   11.6760  -22.6340 C.ar   83  PHE83      -0.0203
     42  CD1       27.5210   12.7470  -23.4640 C.ar   83  PHE83      -0.0042
     43  CD2       26.9520   11.3970  -21.5860 C.ar   83  PHE83      -0.0042
     44  CE1       26.3770   13.5010  -23.2670 C.ar   83  PHE83      -0.0003
     45  CE2       25.8090   12.1490  -21.3790 C.ar   83  PHE83      -0.0003
     46  CZ        25.5190   13.2050  -22.2220 C.ar   83  PHE83      -0.0000
     47  N         30.0220    9.1450  -17.8470 N.3    88  ALA88      -0.1231
     48  CA        28.6460    9.2020  -17.3820 C.3    88  ALA88       0.1694
     49  C         28.1300    7.7850  -17.1520 C.2    88  ALA88       0.2592
     50  O         28.7420    6.9990  -16.4340 O.2    88  ALA88      -0.2718
     51  CB        27.7810    9.9370  -18.3910 C.3    88  ALA88       0.0304
     52  N         27.0020    7.4620  -17.7670 N.am   89  TYR89      -0.1976
     53  CA        26.3340    6.1990  -17.4960 C.3    89  TYR89       0.1639
     54  C         27.1430    4.9990  -17.9460 C.2    89  TYR89       0.2290
     55  O         27.1850    3.9730  -17.2730 O.2    89  TYR89      -0.2864
     56  CB        24.9660    6.2040  -18.1660 C.3    89  TYR89       0.0560
     57  CG        24.1560    7.3100  -17.5490 C.ar   89  TYR89      -0.0198
     58  CD1       24.1050    7.4330  -16.1690 C.ar   89  TYR89      -0.0009
     59  CD2       23.5190    8.2630  -18.3250 C.ar   89  TYR89      -0.0009
     60  CE1       23.4010    8.4520  -15.5690 C.ar   89  TYR89       0.0417
     61  CE2       22.8060    9.2850  -17.7310 C.ar   89  TYR89       0.0417
     62  CZ        22.7540    9.3670  -16.3580 C.ar   89  TYR89       0.1957
     63  OH        22.0520   10.3750  -15.7490 O.3    89  TYR89      -0.2866
     64  N         30.5550   13.1430  -12.0040 N.3   100  LEU100     -0.1245
     65  CA        29.5520   14.1550  -11.7030 C.3   100  LEU100      0.1561
     66  C         30.0140   15.1110  -10.6050 C.2   100  LEU100      0.2260
     67  O         29.7570   16.3120  -10.6810 O.2   100  LEU100     -0.2867
     68  CB        28.2230   13.4850  -11.3530 C.3   100  LEU100      0.0270
     69  CG        27.5930   12.7380  -12.5310 C.3   100  LEU100      0.0019
     70  CD1       26.9730   11.4190  -12.0960 C.3   100  LEU100      0.0001
     71  CD2       26.5690   13.6040  -13.2480 C.3   100  LEU100      0.0001
     72  N         32.3890   17.7910  -12.1440 N.3   103  LEU103     -0.1245
     73  CA        31.5610   18.7860  -12.8110 C.3   103  LEU103      0.1561
     74  C         30.8040   19.6290  -11.7920 C.2   103  LEU103      0.2260
     75  O         30.7450   20.8540  -11.9080 O.2   103  LEU103     -0.2867
     76  CB        30.5910   18.0650  -13.7480 C.3   103  LEU103      0.0270
     77  CG        29.4990   18.8450  -14.4770 C.3   103  LEU103      0.0019
     78  CD1       30.1120   19.9240  -15.3530 C.3   103  LEU103      0.0001
     79  CD2       28.6640   17.8780  -15.3010 C.3   103  LEU103      0.0001
     80  N         14.0770    9.7250  -29.9510 N.3   183  PRO183     -0.2116
     81  CA        13.4680    9.3950  -28.6660 C.3   183  PRO183      0.1372
     82  C         13.2280    7.8940  -28.5100 C.2   183  PRO183      0.2244
     83  O         13.7060    7.2940  -27.5460 O.2   183  PRO183     -0.2868
     84  CB        12.1430   10.1670  -28.6790 C.3   183  PRO183      0.0268
     85  CG        12.0590   10.8690  -29.9950 C.3   183  PRO183      0.0207
     86  CD        13.4420   10.8960  -30.5790 C.3   183  PRO183      0.0892
     87  N         15.4090    4.1750  -26.7530 N.3   186  VAL186     -0.1231
     88  CA        15.6920    3.8040  -25.3740 C.3   186  VAL186      0.1692
     89  C         14.8190    2.6270  -24.9420 C.2   186  VAL186      0.2592
     90  O         14.8860    2.1610  -23.7970 O.2   186  VAL186     -0.2718
     91  CB        15.5460    4.9850  -24.4250 C.3   186  VAL186      0.0266
     92  CG1       14.1230    5.4850  -24.4370 C.3   186  VAL186      0.0020
     93  CG2       15.9980    4.6240  -23.0280 C.3   186  VAL186      0.0020
     94  N         13.9620    2.1800  -25.8670 N.am  187  PHE187     -0.1976
     95  CA        12.9910    1.1310  -25.5700 C.3   187  PHE187      0.1639
     96  C         13.1040   -0.0930  -26.4770 C.2   187  PHE187      0.2290
     97  O         12.1630   -0.8800  -26.5940 O.2   187  PHE187     -0.2864
     98  CB        11.5700    1.7020  -25.5580 C.3   187  PHE187      0.0560
     99  CG        11.3240    2.6910  -24.4530 C.ar  187  PHE187     -0.0200
    100  CD1       11.6550    2.3810  -23.1440 C.ar  187  PHE187     -0.0042
    101  CD2       10.7550    3.9280  -24.7160 C.ar  187  PHE187     -0.0042
    102  CE1       11.4320    3.2840  -22.1210 C.ar  187  PHE187     -0.0003
    103  CE2       10.5250    4.8360  -23.6970 C.ar  187  PHE187     -0.0003
    104  CZ        10.8630    4.5150  -22.3950 C.ar  187  PHE187     -0.0000
    105  N         32.7190   14.8630  -20.7540 N.3   255  MET255     -0.1245
    106  CA        32.1860   15.6210  -19.6260 C.3   255  MET255      0.1570
    107  C         31.8340   17.0570  -20.0000 C.2   255  MET255      0.2261
    108  O         30.8150   17.5860  -19.5570 O.2   255  MET255     -0.2867
    109  CB        33.1860   15.6330  -18.4680 C.3   255  MET255      0.0387
    110  CG        33.2270   14.3560  -17.6450 C.3   255  MET255      0.0595
    111  SD        31.6360   13.9220  -16.9130 S.3   255  MET255     -0.1393
    112  CE        31.1990   15.4580  -16.1000 C.3   255  MET255      0.0692
    113  N         28.8040   16.6180  -22.1840 N.3   258  ALA258     -0.1231
    114  CA        27.7010   16.3330  -21.2640 C.3   258  ALA258      0.1694
    115  C         27.2050   17.5580  -20.4950 C.2   258  ALA258      0.2591
    116  O         26.0060   17.8220  -20.4690 O.2   258  ALA258     -0.2718
    117  CB        28.0730   15.2060  -20.3120 C.3   258  ALA258      0.0304
    118  N         28.1100   18.3180  -19.8850 N.am  259  ALA259     -0.1980
    119  CA        27.7160   19.5580  -19.2220 C.3   259  ALA259      0.1597
    120  C         26.9670   20.4770  -20.1790 C.2   259  ALA259      0.2287
    121  O         25.9710   21.0930  -19.8100 O.2   259  ALA259     -0.2864
    122  CB        28.9270   20.2770  -18.6510 C.3   259  ALA259      0.0319
    123  N         25.5900   19.9500  -23.4630 N.3   261  PHE261     -0.1227
    124  CA        24.3230   19.4490  -23.9700 C.3   261  PHE261      0.1736
    125  C         23.2930   19.5230  -22.8490 C.2   261  PHE261      0.2595
    126  O         22.1660   19.9710  -23.0630 O.2   261  PHE261     -0.2718
    127  CB        24.4520   18.0110  -24.4820 C.3   261  PHE261      0.0547
    128  CG        23.1490   17.2630  -24.4880 C.ar  261  PHE261     -0.0202
    129  CD1       22.1250   17.6380  -25.3440 C.ar  261  PHE261     -0.0042
    130  CD2       22.9310   16.2140  -23.6090 C.ar  261  PHE261     -0.0042
    131  CE1       20.9140   16.9710  -25.3390 C.ar  261  PHE261     -0.0003
    132  CE2       21.7230   15.5400  -23.5990 C.ar  261  PHE261     -0.0003
    133  CZ        20.7130   15.9180  -24.4650 C.ar  261  PHE261     -0.0000
    134  N         23.6880   19.0990  -21.6530 N.am  262  ALA262     -0.1980
    135  CA        22.7930   19.1040  -20.5010 C.3   262  ALA262      0.1597
    136  C         22.0180   20.4110  -20.3860 C.2   262  ALA262      0.2287
    137  O         20.7930   20.4040  -20.2630 O.2   262  ALA262     -0.2864
    138  CB        23.5630   18.8300  -19.2190 C.3   262  ALA262      0.0319
    139  N         17.4430   22.6310  -22.3320 N.3   266  THR266     -0.1218
    140  CA        16.6280   22.7720  -21.1310 C.3   266  THR266      0.1862
    141  C         16.4670   24.2360  -20.7480 C.2   266  THR266      0.2287
    142  O         15.3440   24.7070  -20.5790 O.2   266  THR266     -0.2866
    143  CB        17.2170   22.0150  -19.9310 C.3   266  THR266      0.1770
    144  OG1       18.5880   22.3970  -19.7580 O.3   266  THR266     -0.2211
    145  CG2       17.1140   20.5060  -20.1460 C.3   266  THR266      0.0375
    146  N         12.0130   18.0320  -19.5130 N.3   327  LEU327     -0.1231
    147  CA        12.1930   16.5880  -19.4600 C.3   327  LEU327      0.1693
    148  C         10.9360   15.9710  -18.8590 C.2   327  LEU327      0.2592
    149  O         10.6440   16.1730  -17.6800 O.2   327  LEU327     -0.2718
    150  CB        13.4220   16.2230  -18.6270 C.3   327  LEU327      0.0284
    151  CG        14.7730   16.5360  -19.2750 C.3   327  LEU327      0.0019
    152  CD1       15.9250   16.3030  -18.3040 C.3   327  LEU327      0.0001
    153  CD2       14.9670   15.7440  -20.5640 C.3   327  LEU327      0.0001
    154  N         10.2020   15.2230  -19.6770 N.am  328  LEU328     -0.1966
    155  CA         8.8720   14.7530  -19.3130 C.3   328  LEU328      0.1728
    156  C          8.9220   13.4770  -18.4930 C.2   328  LEU328      0.2616
    157  O          8.0540   13.2250  -17.6590 O.2   328  LEU328     -0.2715
    158  CB         8.0580   14.4340  -20.5640 C.3   328  LEU328      0.0311
    159  CG         8.0880   15.4510  -21.7010 C.3   328  LEU328      0.0022
    160  CD1        7.0970   14.9930  -22.7600 C.3   328  LEU328      0.0001
    161  CD2        7.7210   16.8270  -21.1660 C.3   328  LEU328      0.0001
    162  N          9.9060   12.6410  -18.7960 N.am  329  MET329     -0.1963
    163  CA        10.0140   11.3750  -18.0970 C.3   329  MET329      0.1736
    164  C         11.4330   11.3050  -17.5760 C.2   329  MET329      0.2616
    165  O         12.3820   11.7050  -18.2440 O.2   329  MET329     -0.2715
    166  CB         9.7870   10.2040  -19.0490 C.3   329  MET329      0.0427
    167  CG         8.4610   10.2880  -19.7770 C.3   329  MET329      0.0599
    168  SD         7.1130   10.0030  -18.6160 S.3   329  MET329     -0.1393
    169  CE         7.2140    8.2220  -18.4420 C.3   329  MET329      0.0692
    170  N         11.5390   10.7970  -16.3580 N.am  330  VAL330     -0.1963
    171  CA        12.8180   10.3930  -15.8150 C.3   330  VAL330      0.1727
    172  C         12.6400    8.8890  -15.6500 C.2   330  VAL330      0.2616
    173  O         11.5290    8.4160  -15.4040 O.2   330  VAL330     -0.2715
    174  CB        13.0470   11.1190  -14.4790 C.3   330  VAL330      0.0290
    175  CG1       14.0410   10.3650  -13.6120 C.3   330  VAL330      0.0023
    176  CG2       13.5160   12.5430  -14.7380 C.3   330  VAL330      0.0023
    177  N         13.7110    8.1270  -15.8410 N.am  331  MET331     -0.1977
    178  CA        13.5520    6.6790  -15.8780 C.3   331  MET331      0.1605
    179  C         14.6720    5.9120  -15.1970 C.2   331  MET331      0.2287
    180  O         15.7940    6.3960  -15.0520 O.2   331  MET331     -0.2864
    181  CB        13.4280    6.1870  -17.3180 C.3   331  MET331      0.0413
    182  CG        12.1380    6.6170  -17.9910 C.3   331  MET331      0.0598
    183  SD        12.1980    6.1670  -19.7320 S.3   331  MET331     -0.1393
    184  CE        11.1170    7.4270  -20.4030 C.3   331  MET331      0.0692
    185  N         19.2700   17.5880  -10.1380 N.3   393  CYS393     -0.1221
    186  CA        20.1070   18.1610  -11.1600 C.3   393  CYS393      0.1808
    187  C         21.2110   18.8830  -10.4720 C.2   393  CYS393      0.2601
    188  O         20.9980   19.4000   -9.4210 O.2   393  CYS393     -0.2717
    189  CB        19.4080   19.2710  -11.9470 C.3   393  CYS393      0.0970
    190  SG        20.2030   19.8790  -13.4020 S.3   393  CYS393     -0.0800
    191  N         22.3940   18.8990  -11.0640 N.am  394  ILE394     -0.1979
    192  CA        23.5200   19.6340  -10.4990 C.3   394  ILE394      0.1595
    193  C         23.6430   20.9900  -11.1910 C.2   394  ILE394      0.2287
    194  O         24.3810   21.8660  -10.7390 O.2   394  ILE394     -0.2864
    195  CB        24.8450   18.8450  -10.5730 C.3   394  ILE394      0.0276
    196  CG1       25.4200   18.8530  -11.9890 C.3   394  ILE394      0.0022
    197  CG2       24.6610   17.4190  -10.0780 C.3   394  ILE394      0.0022
    198  CD1       26.5630   17.8800  -12.1770 C.3   394  ILE394      0.0001
    199  N         12.9540   14.6850  -27.6500 N.3   431  MET431     -0.1230
    200  CA        13.2310   14.0740  -26.3510 C.3   431  MET431      0.1702
    201  C         13.3090   15.1090  -25.2310 C.2   431  MET431      0.2592
    202  O         13.0940   14.8000  -24.0570 O.2   431  MET431     -0.2718
    203  CB        14.4940   13.2070  -26.3890 C.3   431  MET431      0.0401
    204  CG        15.7810   13.9350  -26.7420 C.3   431  MET431      0.0596
    205  SD        17.1680   13.3750  -25.7300 S.3   431  MET431     -0.1393
    206  CE        16.8690   11.6080  -25.6970 C.3   431  MET431      0.0692
    207  N         13.6180   16.3440  -25.6140 N.am  432  VAL432     -0.1980
    208  CA        13.5790   17.4860  -24.7130 C.3   432  VAL432      0.1595
    209  C         12.5590   18.4720  -25.2690 C.2   432  VAL432      0.2287
    210  O         12.7940   19.0810  -26.3110 O.2   432  VAL432     -0.2864
    211  CB        14.9540   18.1750  -24.6300 C.3   432  VAL432      0.0276
    212  CG1       14.8710   19.4370  -23.7830 C.3   432  VAL432      0.0022
    213  CG2       16.0020   17.2170  -24.0800 C.3   432  VAL432      0.0022
@<TRIPOS>BOND
     1    86    85    1
     2    86    80    1
     3    85    84    1
     4    80    81    1
     5    84    81    1
     6    81    82    1
     7    82    83    2
     8   199   200    1
     9    87    88    1
    10   204   203    1
    11   204   205    1
    12    23    22    2
    13    97    96    2
    14    96    95    1
    15   203   200    1
    16   200   201    1
    17   210   209    2
    18    26    24    1
    19    24    21    1
    20    24    25    1
    21    21    22    1
    22    21    20    1
    23    22    28   am
    24    94    95    1
    25    94    89   am
    26   205   206    1
    27   207   201   am
    28   207   208    1
    29    95    98    1
    30    98    99    1
    31    88    89    1
    32    88    91    1
    33   129   131   ar
    34   129   128   ar
    35   131   133   ar
    36    36    37    1
    37   209   208    1
    38    27    25    1
    39   201   202    2
    40    89    90    2
    41    28    29    1
    42    31    30    2
    43    30    29    1
    44   101    99   ar
    45   101   103   ar
    46   208   211    1
    47    35    34    1
    48   211   213    1
    49   211   212    1
    50    29    32    1
    51   128   127    1
    52   128   130   ar
    53   127   124    1
    54   133   132   ar
    55    99   100   ar
    56    92    91    1
    57    91    93    1
    58    38    37    1
    59    38    39    2
    60    37    40    1
    61   124   123    1
    62   124   125    1
    63    34    33    1
    64   103   104   ar
    65   130   132   ar
    66    42    44   ar
    67    42    41   ar
    68    44    46   ar
    69    32    33    1
    70   100   102   ar
    71   126   125    2
    72   125   134   am
    73    40    41    1
    74   160   159    1
    75    41    43   ar
    76   104   102   ar
    77   139   140    1
    78    46    45   ar
    79   113   114    1
    80    11    10    2
    81     4     3    2
    82    10     9    1
    83   159   161    1
    84   159   158    1
    85   134   135    1
    86    43    45   ar
    87   114   115    1
    88   114   117    1
    89   140   141    1
    90   140   143    1
    91     9     8    1
    92     9    12    1
    93     3     8   am
    94     3     2    1
    95   105   106    1
    96   141   142    2
    97   153   151    1
    98   158   155    1
    99   135   136    1
   100   135   138    1
   101   115   116    2
   102   115   118   am
   103   184   183    1
   104   136   137    2
   105   120   121    2
   106   120   119    1
   107   145   143    1
   108     2     1    1
   109     2     5    1
   110   107   106    1
   111   107   108    2
   112     6     5    1
   113   143   144    1
   114   118   119    1
   115   167   166    1
   116   167   168    1
   117   183   182    1
   118    12    13    1
   119   154   155    1
   120   154   148   am
   121   106   109    1
   122   146   147    1
   123    14    13   ar
   124    14    16   ar
   125   147   148    1
   126   147   150    1
   127   155   156    1
   128   151   150    1
   129   151   152    1
   130   119   122    1
   131     5     7    1
   132   166   163    1
   133    13    15   ar
   134   148   149    2
   135    16    18   ar
   136   162   156   am
   137   162   163    1
   138   168   169    1
   139   156   157    2
   140   109   110    1
   141    51    48    1
   142    59    61   ar
   143    59    57   ar
   144   165   164    2
   145    56    57    1
   146    56    53    1
   147   163   164    1
   148   182   181    1
   149    54    53    1
   150    54    55    2
   151    47    48    1
   152    52    53    1
   153    52    49   am
   154    61    62   ar
   155    15    17   ar
   156   110   111    1
   157   164   170   am
   158    57    58   ar
   159    18    17   ar
   160    18    19    1
   161    48    49    1
   162   181   178    1
   163    49    50    2
   164   111   112    1
   165    62    63    1
   166    62    60   ar
   167   170   171    1
   168    58    60   ar
   169   178   177    1
   170   178   179    1
   171   177   172   am
   172   171   172    1
   173   171   174    1
   174   172   173    2
   175    78    77    1
   176    79    77    1
   177   179   180    2
   178   176   174    1
   179   174   175    1
   180    77    76    1
   181    76    73    1
   182   190   189    1
   183    71    69    1
   184    73    72    1
   185    73    74    1
   186    69    70    1
   187    69    68    1
   188   198   196    1
   189    64    65    1
   190   196   195    1
   191   189   186    1
   192    75    74    2
   193    65    68    1
   194    65    66    1
   195   193   194    2
   196   193   192    1
   197   186   187    1
   198   186   185    1
   199   191   192    1
   200   191   187   am
   201    67    66    2
   202   195   192    1
   203   195   197    1
   204   187   188    2
