@<TRIPOS>MOLECULE
tmp/3zg3A01.pdb
 205 194 0 0 0
SMALL
GASTEIGER

@<TRIPOS>ATOM
      1  N         12.2830   13.6860  -16.6120 N.3    75  TYR75      -0.1241
      2  CA        13.6620   13.5680  -16.1490 C.3    75  TYR75       0.1605
      3  C         14.0700   14.6880  -15.2020 C.2    75  TYR75       0.2264
      4  O         15.2500   14.8540  -14.9020 O.2    75  TYR75      -0.2867
      5  CB        14.6240   13.5360  -17.3340 C.3    75  TYR75       0.0534
      6  CG        14.6140   12.2340  -18.0950 C.ar   75  TYR75      -0.0201
      7  CD1       14.1410   11.0700  -17.5070 C.ar   75  TYR75      -0.0009
      8  CD2       15.1050   12.1620  -19.3920 C.ar   75  TYR75      -0.0009
      9  CE1       14.1350    9.8730  -18.1970 C.ar   75  TYR75       0.0417
     10  CE2       15.1080   10.9700  -20.0880 C.ar   75  TYR75       0.0417
     11  CZ        14.6220    9.8300  -19.4860 C.ar   75  TYR75       0.1957
     12  OH        14.6220    8.6430  -20.1770 O.3    75  TYR75      -0.2866
     13  N         14.1680   14.9880  -12.2550 N.3    77  ILE77      -0.1231
     14  CA        14.7080   14.6320  -10.9790 C.3    77  ILE77       0.1692
     15  C         16.1530   15.0640  -10.9400 C.2    77  ILE77       0.2591
     16  O         16.7110   15.3000   -9.8910 O.2    77  ILE77      -0.2718
     17  CB        14.6340   13.1290  -10.8060 C.3    77  ILE77       0.0266
     18  CG1       15.4830   12.4550  -11.8800 C.3    77  ILE77       0.0019
     19  CG2       13.1880   12.6970  -10.9270 C.3    77  ILE77       0.0020
     20  CD1       15.1410   11.0070  -12.1350 C.3    77  ILE77       0.0001
     21  N         16.7680   15.1190  -12.0960 N.am   78  MET78      -0.1979
     22  CA        18.1990   15.3930  -12.2050 C.3    78  MET78       0.1605
     23  C         18.5420   16.8720  -12.0450 C.2    78  MET78       0.2287
     24  O         19.7170   17.2380  -11.9760 O.2    78  MET78      -0.2864
     25  CB        18.7490   14.8710  -13.5360 C.3    78  MET78       0.0413
     26  CG        19.2970   13.4540  -13.4750 C.3    78  MET78       0.0598
     27  SD        18.0800   12.2440  -12.9270 S.3    78  MET78      -0.1393
     28  CE        19.0360   10.7330  -13.0280 C.3    78  MET78       0.0692
     29  N         22.4340   18.3750  -11.3890 N.3    82  PHE82      -0.1241
     30  CA        23.2240   19.1280  -12.3590 C.3    82  PHE82       0.1605
     31  C         23.0600   20.6330  -12.1800 C.2    82  PHE82       0.2264
     32  O         23.8670   21.4170  -12.6820 O.2    82  PHE82      -0.2867
     33  CB        22.8540   18.7300  -13.7900 C.3    82  PHE82       0.0534
     34  CG        22.8630   17.2470  -14.0320 C.ar   82  PHE82      -0.0203
     35  CD1       23.8080   16.4350  -13.4250 C.ar   82  PHE82      -0.0042
     36  CD2       21.9370   16.6670  -14.8850 C.ar   82  PHE82      -0.0042
     37  CE1       23.8180   15.0710  -13.6510 C.ar   82  PHE82      -0.0003
     38  CE2       21.9440   15.3040  -15.1180 C.ar   82  PHE82      -0.0003
     39  CZ        22.8860   14.5040  -14.5000 C.ar   82  PHE82      -0.0000
     40  N         21.3220   20.9860  -18.6590 N.3    87  ALA87      -0.1231
     41  CA        20.6220   19.8180  -19.1850 C.3    87  ALA87       0.1694
     42  C         19.1510   20.1290  -19.4470 C.2    87  ALA87       0.2592
     43  O         18.8330   21.0720  -20.1700 O.2    87  ALA87      -0.2718
     44  CB        20.7640   18.6340  -18.2400 C.3    87  ALA87       0.0304
     45  N         18.2550   19.3460  -18.8560 N.am   88  TYR88      -0.1976
     46  CA        16.8300   19.5300  -19.1110 C.3    88  TYR88       0.1639
     47  C         16.3200   20.8540  -18.5590 C.2    88  TYR88       0.2290
     48  O         15.5260   21.5380  -19.2060 O.2    88  TYR88      -0.2864
     49  CB        16.0210   18.3590  -18.5560 C.3    88  TYR88       0.0560
     50  CG        16.6110   17.0190  -18.9200 C.ar   88  TYR88      -0.0198
     51  CD1       17.5290   16.9070  -19.9560 C.ar   88  TYR88      -0.0009
     52  CD2       16.2460   15.8670  -18.2410 C.ar   88  TYR88      -0.0009
     53  CE1       18.0770   15.6870  -20.2980 C.ar   88  TYR88       0.0417
     54  CE2       16.7880   14.6400  -18.5780 C.ar   88  TYR88       0.0417
     55  CZ        17.7020   14.5570  -19.6090 C.ar   88  TYR88       0.1957
     56  OH        18.2470   13.3420  -19.9580 O.3    88  TYR88      -0.2866
     57  N         20.2740   23.1690  -24.3990 N.3    95  MET95      -0.1245
     58  CA        20.7170   21.8790  -23.8850 C.3    95  MET95       0.1570
     59  C         21.4520   21.1470  -24.9970 C.2    95  MET95       0.2261
     60  O         22.4790   20.5130  -24.7650 O.2    95  MET95      -0.2867
     61  CB        19.5390   21.0410  -23.3900 C.3    95  MET95       0.0387
     62  CG        19.8350   19.5480  -23.3390 C.3    95  MET95       0.0595
     63  SD        18.7380   18.6190  -22.2500 S.3    95  MET95      -0.1393
     64  CE        17.1320   19.1700  -22.8220 C.3    95  MET95       0.0692
     65  N         25.1410   19.8890  -24.8620 N.3    99  LEU99      -0.1245
     66  CA        25.5190   18.5210  -25.1870 C.3    99  LEU99       0.1561
     67  C         26.5050   18.4710  -26.3460 C.2    99  LEU99       0.2260
     68  O         27.3170   17.5520  -26.4360 O.2    99  LEU99      -0.2867
     69  CB        24.2850   17.6780  -25.4990 C.3    99  LEU99       0.0270
     70  CG        23.3890   17.3930  -24.2940 C.3    99  LEU99       0.0019
     71  CD1       22.2050   16.5240  -24.6880 C.3    99  LEU99       0.0001
     72  CD2       24.1940   16.7350  -23.1850 C.3    99  LEU99       0.0001
     73  N         29.9290   18.8930  -24.9010 N.3   102  LEU102     -0.1245
     74  CA        30.3520   17.6650  -24.2380 C.3   102  LEU102      0.1561
     75  C         30.7510   16.6100  -25.2600 C.2   102  LEU102      0.2260
     76  O         31.7950   15.9710  -25.1310 O.2   102  LEU102     -0.2867
     77  CB        29.2420   17.1300  -23.3300 C.3   102  LEU102      0.0270
     78  CG        29.5330   15.8200  -22.5870 C.3   102  LEU102      0.0019
     79  CD1       30.8150   15.9200  -21.7730 C.3   102  LEU102      0.0001
     80  CD2       28.3610   15.4160  -21.7020 C.3   102  LEU102      0.0001
     81  N         13.5670    6.3920   -6.6910 N.3   182  PRO182     -0.2116
     82  CA        12.8920    5.8740   -7.8800 C.3   182  PRO182      0.1372
     83  C         11.4300    6.3110   -7.9770 C.2   182  PRO182      0.2244
     84  O         10.9440    6.6030   -9.0700 O.2   182  PRO182     -0.2868
     85  CB        12.9810    4.3570   -7.6950 C.3   182  PRO182      0.0268
     86  CG        14.2120    4.1570   -6.8810 C.3   182  PRO182      0.0207
     87  CD        14.2700    5.3320   -5.9470 C.3   182  PRO182      0.0892
     88  N          9.4400   10.1130   -9.8790 N.3   185  VAL185     -0.1245
     89  CA         9.5550   10.4550  -11.2930 C.3   185  VAL185      0.1561
     90  C          8.1920   10.5840  -11.9720 C.2   185  VAL185      0.2260
     91  O          8.0870   11.1300  -13.0710 O.2   185  VAL185     -0.2867
     92  CB        10.4030    9.4130  -12.0510 C.3   185  VAL185      0.0252
     93  CG1        9.7610    8.0360  -11.9620 C.3   185  VAL185      0.0019
     94  CG2       10.5890    9.8290  -13.5020 C.3   185  VAL185      0.0019
     95  N         27.9170   20.2570  -15.8890 N.3   251  MET251     -0.1245
     96  CA        28.2670   19.4600  -17.0590 C.3   251  MET251      0.1570
     97  C         29.3040   18.3960  -16.7020 C.2   251  MET251      0.2261
     98  O         29.1700   17.2330  -17.0860 O.2   251  MET251     -0.2867
     99  CB        28.7920   20.3600  -18.1790 C.3   251  MET251      0.0387
    100  CG        28.3680   19.9400  -19.5770 C.3   251  MET251      0.0595
    101  SD        26.6780   20.4330  -19.9840 S.3   251  MET251     -0.1393
    102  CE        25.7190   19.2230  -19.0740 C.3   251  MET251      0.0692
    103  N         27.5910   15.7590  -14.6510 N.3   254  ALA254     -0.1231
    104  CA        26.7930   14.9030  -15.5240 C.3   254  ALA254      0.1694
    105  C         27.6630   13.9170  -16.3020 C.2   254  ALA254      0.2591
    106  O         27.3060   12.7480  -16.4580 O.2   254  ALA254     -0.2718
    107  CB        25.9580   15.7450  -16.4750 C.3   254  ALA254      0.0304
    108  N         28.8050   14.3960  -16.7860 N.am  255  ALA255     -0.1980
    109  CA        29.7260   13.5590  -17.5440 C.3   255  ALA255      0.1597
    110  C         30.1890   12.3540  -16.7300 C.2   255  ALA255      0.2287
    111  O         30.2820   11.2380  -17.2460 O.2   255  ALA255     -0.2864
    112  CB        30.9250   14.3790  -17.9980 C.3   255  ALA255      0.0319
    113  N         28.8320   11.2520  -13.5970 N.3   257  PHE257     -0.1227
    114  CA        27.6980   10.5140  -13.0530 C.3   257  PHE257      0.1736
    115  C         27.1500    9.4920  -14.0500 C.2   257  PHE257      0.2595
    116  O         26.8790    8.3400  -13.6940 O.2   257  PHE257     -0.2718
    117  CB        26.6060   11.4980  -12.6230 C.3   257  PHE257      0.0547
    118  CG        25.2320   10.8950  -12.5530 C.ar  257  PHE257     -0.0202
    119  CD1       24.8510   10.1230  -11.4670 C.ar  257  PHE257     -0.0042
    120  CD2       24.3150   11.1170  -13.5690 C.ar  257  PHE257     -0.0042
    121  CE1       23.5830    9.5730  -11.4020 C.ar  257  PHE257     -0.0003
    122  CE2       23.0470   10.5710  -13.5100 C.ar  257  PHE257     -0.0003
    123  CZ        22.6800    9.7970  -12.4240 C.ar  257  PHE257     -0.0000
    124  N         27.0020    9.9210  -15.3000 N.am  258  ALA258     -0.1980
    125  CA        26.4460    9.0730  -16.3490 C.3   258  ALA258      0.1597
    126  C         27.2910    7.8280  -16.5820 C.2   258  ALA258      0.2287
    127  O         26.7690    6.7150  -16.6630 O.2   258  ALA258     -0.2864
    128  CB        26.3000    9.8620  -17.6430 C.3   258  ALA258      0.0319
    129  N         28.2800    4.8470  -13.0150 N.3   261  HIS261     -0.1226
    130  CA        27.3450    3.8040  -12.5990 C.3   261  HIS261      0.1752
    131  C         27.1210    2.7760  -13.7040 C.2   261  HIS261      0.2596
    132  O         27.2270    1.5680  -13.4760 O.2   261  HIS261     -0.2718
    133  CB        26.0090    4.4100  -12.1670 C.3   261  HIS261      0.0759
    134  CG        25.9710    4.8200  -10.7280 C.ar  261  HIS261      0.0818
    135  ND1       25.7800    3.9180   -9.7040 N.ar  261  HIS261     -0.2268
    136  CD2       26.0950    6.0340  -10.1410 C.ar  261  HIS261      0.1154
    137  CE1       25.7900    4.5570   -8.5480 C.ar  261  HIS261      0.1986
    138  NE2       25.9800    5.8420   -8.7850 N.ar  261  HIS261     -0.2212
    139  N         26.8190    3.2650  -14.9010 N.am  262  THR262     -0.1953
    140  CA        26.5380    2.3970  -16.0340 C.3   262  THR262      0.1897
    141  C         27.7530    1.5800  -16.4740 C.2   262  THR262      0.2313
    142  O         27.6310    0.3890  -16.7640 O.2   262  THR262     -0.2863
    143  CB        26.0120    3.2120  -17.2160 C.3   262  THR262      0.1794
    144  OG1       26.9120    4.2980  -17.4750 O.3   262  THR262     -0.2208
    145  CG2       24.6400    3.7710  -16.8830 C.3   262  THR262      0.0378
    146  N         20.0360    0.6320  -17.3990 N.3   323  LEU323     -0.1245
    147  CA        18.8390    1.4680  -17.3600 C.3   323  LEU323      0.1561
    148  C         17.6320    0.7160  -17.9100 C.2   323  LEU323      0.2260
    149  O         17.6030    0.3420  -19.0810 O.2   323  LEU323     -0.2867
    150  CB        19.0650    2.7680  -18.1350 C.3   323  LEU323      0.0270
    151  CG        20.2000    3.6490  -17.6090 C.3   323  LEU323      0.0019
    152  CD1       20.2910    4.9430  -18.4050 C.3   323  LEU323      0.0001
    153  CD2       20.0100    3.9380  -16.1280 C.3   323  LEU323      0.0001
    154  N         14.2860    1.6710  -17.9960 N.3   325  MET325     -0.1230
    155  CA        13.2350    2.4370  -18.6510 C.3   325  MET325      0.1702
    156  C         13.7430    3.7520  -19.2250 C.2   325  MET325      0.2592
    157  O         14.4410    4.5070  -18.5560 O.2   325  MET325     -0.2718
    158  CB        12.0970    2.7210  -17.6660 C.3   325  MET325      0.0401
    159  CG        11.2830    1.5000  -17.2720 C.3   325  MET325      0.0596
    160  SD         9.9270    1.1680  -18.4110 S.3   325  MET325     -0.1393
    161  CE         8.7620    2.4450  -17.9400 C.3   325  MET325      0.0692
    162  N         13.3860    4.0110  -20.4740 N.am  326  VAL326     -0.1966
    163  CA        13.5770    5.3140  -21.0770 C.3   326  VAL326      0.1727
    164  C         12.1870    5.9350  -21.1840 C.2   326  VAL326      0.2616
    165  O         11.2210    5.2380  -21.4970 O.2   326  VAL326     -0.2715
    166  CB        14.2060    5.1860  -22.4720 C.3   326  VAL326      0.0290
    167  CG1       14.5770    6.5550  -23.0120 C.3   326  VAL326      0.0023
    168  CG2       15.4300    4.2860  -22.4160 C.3   326  VAL326      0.0023
    169  N         12.0750    7.2330  -20.9150 N.am  327  MET327     -0.1977
    170  CA        10.7560    7.8570  -20.7940 C.3   327  MET327      0.1605
    171  C         10.5960    9.1900  -21.5240 C.2   327  MET327      0.2287
    172  O         11.5590    9.9350  -21.7150 O.2   327  MET327     -0.2864
    173  CB        10.3970    8.0500  -19.3200 C.3   327  MET327      0.0413
    174  CG        10.5930    6.8170  -18.4560 C.3   327  MET327      0.0598
    175  SD         9.9090    7.0660  -16.8080 S.3   327  MET327     -0.1393
    176  CE        10.6110    5.6720  -15.9300 C.3   327  MET327      0.0692
    177  N         23.1850    7.4560  -27.0470 N.3   389  CYS389     -0.1221
    178  CA        24.2140    7.7000  -26.0400 C.3   389  CYS389      0.1808
    179  C         25.4960    8.3000  -26.6150 C.2   389  CYS389      0.2601
    180  O         26.1530    7.6900  -27.4570 O.2   389  CYS389     -0.2717
    181  CB        24.5370    6.4030  -25.3040 C.3   389  CYS389      0.0970
    182  SG        25.4860    6.6490  -23.7950 S.3   389  CYS389     -0.0800
    183  N         25.8550    9.4890  -26.1420 N.am  390  ILE390     -0.1979
    184  CA        27.0570   10.1670  -26.6180 C.3   390  ILE390      0.1595
    185  C         28.3040    9.6510  -25.9040 C.2   390  ILE390      0.2287
    186  O         29.4260    9.9150  -26.3260 O.2   390  ILE390     -0.2864
    187  CB        26.9550   11.7010  -26.4680 C.3   390  ILE390      0.0276
    188  CG1       27.2810   12.1370  -25.0390 C.3   390  ILE390      0.0022
    189  CG2       25.5730   12.1910  -26.8810 C.3   390  ILE390      0.0022
    190  CD1       27.3400   13.6400  -24.8670 C.3   390  ILE390      0.0001
    191  N         17.4290    2.3150   -9.1220 N.3   427  MET427     -0.1230
    192  CA        16.9070    2.7070  -10.4280 C.3   427  MET427      0.1702
    193  C         17.8550    2.2690  -11.5410 C.2   427  MET427      0.2592
    194  O         17.4210    1.8830  -12.6270 O.2   427  MET427     -0.2718
    195  CB        16.6730    4.2190  -10.4750 C.3   427  MET427      0.0401
    196  CG        17.9150    5.0490  -10.1950 C.3   427  MET427      0.0596
    197  SD        17.5620    6.5000   -9.1850 S.3   427  MET427     -0.1393
    198  CE        17.3640    5.7480   -7.5710 C.3   427  MET427      0.0692
    199  N         19.1530    2.3320  -11.2570 N.am  428  VAL428     -0.1980
    200  CA        20.1740    1.8110  -12.1580 C.3   428  VAL428      0.1595
    201  C         20.5740    0.4220  -11.6740 C.2   428  VAL428      0.2287
    202  O         21.0580    0.2650  -10.5550 O.2   428  VAL428     -0.2864
    203  CB        21.4140    2.7250  -12.1980 C.3   428  VAL428      0.0276
    204  CG1       22.3940    2.2470  -13.2590 C.3   428  VAL428      0.0022
    205  CG2       20.9990    4.1650  -12.4610 C.3   428  VAL428      0.0022
@<TRIPOS>BOND
     1   180   179    2
     2   177   178    1
     3   189   187    1
     4   184   187    1
     5   184   183    1
     6   184   185    1
     7   179   183   am
     8   179   178    1
     9   187   188    1
    10    68    67    2
    11    67    66    1
    12   186   185    2
    13   178   181    1
    14    69    66    1
    15    69    70    1
    16   181   182    1
    17    75    76    2
    18    75    74    1
    19    66    65    1
    20   188   190    1
    21    59    60    2
    22    59    58    1
    23    73    74    1
    24    71    70    1
    25    57    58    1
    26    70    72    1
    27    74    77    1
    28    58    61    1
    29    61    62    1
    30    62    63    1
    31    77    78    1
    32   167   166    1
    33    64    63    1
    34    78    79    1
    35    78    80    1
    36   166   168    1
    37   166   163    1
    38   172   171    2
    39   171   170    1
    40   165   164    2
    41   164   163    1
    42   164   169   am
    43   163   162    1
    44   169   170    1
    45   170   173    1
    46   162   156   am
    47    53    51   ar
    48    53    55   ar
    49    12    11    1
    50    43    42    2
    51    10    11   ar
    52    10     8   ar
    53   101   100    1
    54   101   102    1
    55    56    55    1
    56    51    50   ar
    57    55    54   ar
    58   100    99    1
    59    11     9   ar
    60    42    41    1
    61    42    45   am
    62     8     6   ar
    63   173   174    1
    64   156   155    1
    65   156   157    2
    66    48    47    2
    67    41    40    1
    68    41    44    1
    69    46    45    1
    70    46    47    1
    71    46    49    1
    72   149   148    2
    73    50    49    1
    74    50    52   ar
    75   155   154    1
    76   155   158    1
    77    54    52   ar
    78   174   175    1
    79   160   161    1
    80   160   159    1
    81   152   151    1
    82     9     7   ar
    83    99    96    1
    84   150   151    1
    85   150   147    1
    86     6     7   ar
    87     6     5    1
    88   112   109    1
    89   148   147    1
    90   158   159    1
    91   128   125    1
    92   151   153    1
    93   109   108    1
    94   109   110    1
    95   144   143    1
    96   146   147    1
    97     5     2    1
    98   111   110    2
    99   143   145    1
   100   143   140    1
   101    98    97    2
   102    96    97    1
   103    96    95    1
   104   175   176    1
   105   108   105   am
   106   142   141    2
   107   127   126    2
   108     1     2    1
   109   126   125    1
   110   107   104    1
   111   141   140    1
   112   106   105    2
   113   125   124    1
   114   105   104    1
   115     2     3    1
   116   140   139    1
   117   104   103    1
   118   124   115   am
   119     3     4    2
   120    38    36   ar
   121    38    39   ar
   122   139   131   am
   123    36    34   ar
   124    39    37   ar
   125   115   116    2
   126   115   114    1
   127    34    33    1
   128    34    35   ar
   129    33    30    1
   130   131   132    2
   131   131   130    1
   132    37    35   ar
   133   113   114    1
   134   120   122   ar
   135   120   118   ar
   136    25    26    1
   137    25    22    1
   138   122   123   ar
   139    94    92    1
   140    26    27    1
   141   204   203    1
   142    91    90    2
   143   114   117    1
   144    28    27    1
   145   129   130    1
   146    32    31    2
   147   194   193    2
   148   117   118    1
   149   130   133    1
   150   118   119   ar
   151   205   203    1
   152   123   121   ar
   153    30    31    1
   154    30    29    1
   155    13    14    1
   156    22    21    1
   157    22    23    1
   158   203   200    1
   159   133   134    1
   160   200   201    1
   161   200   199    1
   162    20    18    1
   163    21    15   am
   164    92    93    1
   165    92    89    1
   166    23    24    2
   167    90    89    1
   168    18    17    1
   169   201   202    2
   170   193   199   am
   171   193   192    1
   172   119   121   ar
   173    89    88    1
   174    14    15    1
   175    14    17    1
   176    15    16    2
   177    19    17    1
   178   134   136   ar
   179   134   135   ar
   180   195   192    1
   181   195   196    1
   182   192   191    1
   183   196   197    1
   184   136   138   ar
   185   135   137   ar
   186   197   198    1
   187    84    83    2
   188   138   137   ar
   189    83    82    1
   190    82    85    1
   191    82    81    1
   192    85    86    1
   193    86    87    1
   194    81    87    1
