@<TRIPOS>MOLECULE
tmp/3zgbB00.pdb
 103 95 0 0 0
SMALL
GASTEIGER

@<TRIPOS>ATOM
      1  N        -13.0550   33.4120  -33.7720 N.3   620  ARG620     -0.1231
      2  CA       -13.6410   34.4080  -32.8710 C.3   620  ARG620      0.1694
      3  C        -12.9860   35.7760  -32.9100 C.2   620  ARG620      0.2592
      4  O        -13.6730   36.8130  -32.7410 O.2   620  ARG620     -0.2718
      5  CB       -13.6430   33.9190  -31.4200 C.3   620  ARG620      0.0321
      6  CG       -14.6230   32.7820  -31.2430 C.3   620  ARG620      0.0489
      7  CD       -14.5910   32.2810  -29.8520 C.3   620  ARG620      0.2205
      8  NE       -14.9480   33.3350  -28.9280 N.pl3 620  ARG620     -0.0865
      9  CZ       -15.1310   33.1480  -27.6290 C.cat 620  ARG620      0.5346
     10  NH1      -15.0110   31.9310  -27.1100 N.pl3 620  ARG620      0.1354
     11  NH2      -15.4520   34.1880  -26.8740 N.pl3 620  ARG620      0.1354
     12  N        -11.6660   35.7610  -33.0930 N.am  621  GLY621     -0.1957
     13  CA       -10.8820   36.9370  -32.9060 C.3   621  GLY621      0.1869
     14  C        -10.6350   37.2490  -31.4470 C.2   621  GLY621      0.2309
     15  O        -11.3350   36.7670  -30.5360 O.2   621  GLY621     -0.2863
     16  N         -9.5730   34.9070  -27.5630 N.3   624  PRO624     -0.2116
     17  CA       -10.0260   33.5360  -27.8180 C.3   624  PRO624      0.1372
     18  C         -9.3930   32.8450  -29.0100 C.2   624  PRO624      0.2244
     19  O         -9.3140   31.6120  -29.0400 O.2   624  PRO624     -0.2868
     20  CB       -11.5330   33.7020  -28.0040 C.3   624  PRO624      0.0268
     21  CG       -11.8410   34.8590  -27.1340 C.3   624  PRO624      0.0207
     22  CD       -10.6850   35.8140  -27.2950 C.3   624  PRO624      0.0892
     23  N        -13.3120   44.2230  -36.1430 N.3   652  GLN652     -0.1245
     24  CA       -12.7980   44.0200  -34.7880 C.3   652  GLN652      0.1566
     25  C        -11.3510   43.5420  -34.8100 C.2   652  GLN652      0.2260
     26  O        -10.5580   43.8880  -33.9370 O.2   652  GLN652     -0.2867
     27  CB       -13.6710   43.0180  -34.0210 C.3   652  GLN652      0.0367
     28  CG       -14.0930   43.4200  -32.5990 C.3   652  GLN652      0.0905
     29  CD       -14.6960   42.2180  -31.8340 C.2   652  GLN652      0.2608
     30  OE1      -15.4960   41.4370  -32.4030 O.2   652  GLN652     -0.2717
     31  NE2      -14.2960   42.0440  -30.5450 N.am  652  GLN652     -0.0878
     32  N        -20.5520   32.1950  -24.9290 N.3   799  MET799     -0.1245
     33  CA       -20.5810   33.5150  -25.4930 C.3   799  MET799      0.1570
     34  C        -21.8280   33.7240  -26.3100 C.2   799  MET799      0.2261
     35  O        -22.4430   34.7740  -26.2450 O.2   799  MET799     -0.2867
     36  CB       -19.3250   33.7480  -26.3480 C.3   799  MET799      0.0387
     37  CG       -19.3450   35.0290  -27.1350 C.3   799  MET799      0.0595
     38  SD       -20.0530   34.9040  -28.7880 S.3   799  MET799     -0.1393
     39  CE       -18.8220   33.9720  -29.6800 C.3   799  MET799      0.0692
     40  N        -25.3080   36.3430  -25.9220 N.3   803  LYS803     -0.1245
     41  CA       -25.9500   37.1420  -26.9670 C.3   803  LYS803      0.1561
     42  C        -27.3850   36.7120  -27.1570 C.2   803  LYS803      0.2260
     43  O        -28.0610   37.2400  -28.0340 O.2   803  LYS803     -0.2867
     44  CB       -25.2420   36.9970  -28.3060 C.3   803  LYS803      0.0271
     45  CG       -23.8230   37.5320  -28.3270 C.3   803  LYS803      0.0035
     46  CD       -23.1410   37.4240  -29.6830 C.3   803  LYS803      0.0206
     47  CE       -21.7650   38.0850  -29.6430 C.3   803  LYS803      0.1093
     48  NZ       -20.9140   37.7550  -30.7870 N.3   803  LYS803     -0.1314
     49  N        -15.7380   40.6870  -21.5270 N.3   855  LEU855     -0.1245
     50  CA       -16.6500   40.3310  -22.6260 C.3   855  LEU855      0.1561
     51  C        -18.1070   40.4740  -22.2090 C.2   855  LEU855      0.2260
     52  O        -18.9310   40.9630  -22.9800 O.2   855  LEU855     -0.2867
     53  CB       -16.3370   38.9210  -23.1340 C.3   855  LEU855      0.0270
     54  CG       -17.1990   38.2580  -24.2080 C.3   855  LEU855      0.0019
     55  CD1      -17.1130   39.1120  -25.4470 C.3   855  LEU855      0.0001
     56  CD2      -16.7800   36.8280  -24.4690 C.3   855  LEU855      0.0001
     57  N        -19.0370   44.1590  -22.4540 N.3   858  ARG858     -0.1231
     58  CA       -19.1860   44.6180  -23.8270 C.3   858  ARG858      0.1694
     59  C        -20.5500   44.1840  -24.3570 C.2   858  ARG858      0.2591
     60  O        -21.2770   44.9730  -24.9240 O.2   858  ARG858     -0.2718
     61  CB       -18.0780   44.1040  -24.7560 C.3   858  ARG858      0.0321
     62  CG       -16.6730   44.3610  -24.2520 C.3   858  ARG858      0.0489
     63  CD       -15.6090   44.3350  -25.3240 C.3   858  ARG858      0.2205
     64  NE       -15.2710   42.9970  -25.8300 N.pl3 858  ARG858     -0.0865
     65  CZ       -15.3190   42.6280  -27.1160 C.cat 858  ARG858      0.5346
     66  NH1      -15.6910   43.4750  -28.0800 N.pl3 858  ARG858      0.1354
     67  NH2      -14.9940   41.3900  -27.4610 N.pl3 858  ARG858      0.1354
     68  N        -20.8940   42.9160  -24.1640 N.am  859  ILE859     -0.1980
     69  CA       -22.1250   42.3740  -24.7470 C.3   859  ILE859      0.1595
     70  C        -23.3570   43.0170  -24.1290 C.2   859  ILE859      0.2287
     71  O        -24.2650   43.4350  -24.8470 O.2   859  ILE859     -0.2864
     72  CB       -22.1830   40.8590  -24.6250 C.3   859  ILE859      0.0276
     73  CG1      -21.1380   40.2500  -25.5740 C.3   859  ILE859      0.0022
     74  CG2      -23.5950   40.3630  -24.9520 C.3   859  ILE859      0.0022
     75  CD1      -20.8050   38.7960  -25.2770 C.3   859  ILE859      0.0001
     76  N        -23.9780   46.4500  -25.6640 N.3   862  ARG862     -0.1245
     77  CA       -24.5520   46.5020  -26.9920 C.3   862  ARG862      0.1563
     78  C        -26.0270   46.1970  -26.9570 C.2   862  ARG862      0.2260
     79  O        -26.7550   46.6790  -27.8020 O.2   862  ARG862     -0.2867
     80  CB       -23.9790   45.4550  -27.8990 C.3   862  ARG862      0.0307
     81  CG       -22.5250   45.5820  -28.1920 C.3   862  ARG862      0.0489
     82  CD       -22.1870   44.5170  -29.2060 C.3   862  ARG862      0.2205
     83  NE       -20.7840   44.2460  -29.1450 N.pl3 862  ARG862     -0.0865
     84  CZ       -20.2200   43.0880  -29.4280 C.cat 862  ARG862      0.5346
     85  NH1      -20.9300   42.0700  -29.8120 N.pl3 862  ARG862      0.1354
     86  NH2      -18.9230   42.9620  -29.3040 N.pl3 862  ARG862      0.1354
     87  N        -22.3050   40.1790  -34.3850 N.3   912  GLN912     -0.1231
     88  CA       -21.0520   39.7220  -34.9450 C.3   912  GLN912      0.1698
     89  C        -20.9500   38.2110  -35.0810 C.2   912  GLN912      0.2592
     90  O        -21.8070   37.6070  -35.7030 O.2   912  GLN912     -0.2718
     91  CB       -19.9110   40.3190  -34.1730 C.3   912  GLN912      0.0381
     92  CG       -19.9650   41.8330  -34.2910 C.3   912  GLN912      0.0905
     93  CD       -18.7240   42.5200  -33.8010 C.2   912  GLN912      0.2608
     94  OE1      -18.8270   43.4100  -32.9930 O.2   912  GLN912     -0.2717
     95  NE2      -17.5460   42.0800  -34.2430 N.am  912  GLN912     -0.0878
     96  N        -19.9120   37.6040  -34.5360 N.am  913  ASN913     -0.1974
     97  CA       -19.6640   36.1950  -34.7640 C.3   913  ASN913      0.1688
     98  C        -20.4160   35.3630  -33.7500 C.2   913  ASN913      0.2292
     99  O        -20.4570   35.7270  -32.5800 O.2   913  ASN913     -0.2864
    100  CB       -18.1760   35.9010  -34.6740 C.3   913  ASN913      0.1181
    101  CG       -17.5750   36.3130  -33.3470 C.2   913  ASN913      0.2629
    102  OD1      -17.5470   37.5000  -33.0100 O.2   913  ASN913     -0.2716
    103  ND2      -17.1240   35.3340  -32.5610 N.am  913  ASN913     -0.0877
@<TRIPOS>BOND
     1    23    24    1
     2    90    89    2
     3    89    88    1
     4    89    96   am
     5    88    87    1
     6    88    91    1
     7    25    24    1
     8    25    26    2
     9    24    27    1
    10    97   100    1
    11    97    96    1
    12    97    98    1
    13   100   101    1
    14    92    91    1
    15    92    93    1
    16    95    93   am
    17    27    28    1
    18    93    94    2
    19     1     2    1
    20    98    99    2
    21   101   102    2
    22   101   103   am
    23    12     3   am
    24    12    13    1
    25     3     2    1
    26     3     4    2
    27    13    14    1
    28     2     5    1
    29    28    29    1
    30    30    29    2
    31    29    31   am
    32    14    15    2
    33     5     6    1
    34     6     7    1
    35    48    47    1
    36     7     8    1
    37    85    84    1
    38    46    47    1
    39    46    45    1
    40    39    38    1
    41    84    86    1
    42    84    83    2
    43    82    83    1
    44    82    81    1
    45    19    18    2
    46    18    17    1
    47     8     9    2
    48    38    37    1
    49    45    44    1
    50    44    41    1
    51    81    80    1
    52    66    65    1
    53    43    42    2
    54    20    17    1
    55    20    21    1
    56    80    77    1
    57    17    16    1
    58    79    78    2
    59     9    10    1
    60     9    11    1
    61    16    22    1
    62    67    65    1
    63    22    21    1
    64    42    41    1
    65    37    36    1
    66    65    64    2
    67    77    78    1
    68    77    76    1
    69    41    40    1
    70    36    33    1
    71    34    35    2
    72    34    33    1
    73    64    63    1
    74    73    75    1
    75    73    72    1
    76    33    32    1
    77    55    54    1
    78    63    62    1
    79    74    72    1
    80    60    59    2
    81    71    70    2
    82    61    62    1
    83    61    58    1
    84    69    72    1
    85    69    68    1
    86    69    70    1
    87    56    54    1
    88    59    68   am
    89    59    58    1
    90    54    53    1
    91    58    57    1
    92    53    50    1
    93    52    51    2
    94    50    51    1
    95    50    49    1
