@<TRIPOS>MOLECULE
tmp/3zgcA00.pdb
 153 143 0 0 0
SMALL
GASTEIGER

@<TRIPOS>ATOM
      1  N         -6.4240    2.4990   34.7860 N.3    10  TYR10      -0.1241
      2  CA        -6.4500    3.2200   33.5240 C.3    10  TYR10       0.1605
      3  C         -7.8150    3.8020   33.1740 C.2    10  TYR10       0.2264
      4  O         -8.8280    3.1160   33.2270 O.2    10  TYR10      -0.2867
      5  CB        -5.9850    2.2880   32.3830 C.3    10  TYR10       0.0534
      6  CG        -6.0450    2.9110   30.9990 C.ar   10  TYR10      -0.0201
      7  CD1       -7.2060    2.8440   30.2290 C.ar   10  TYR10      -0.0009
      8  CD2       -4.9310    3.5330   30.4430 C.ar   10  TYR10      -0.0009
      9  CE1       -7.2700    3.4160   28.9550 C.ar   10  TYR10       0.0417
     10  CE2       -4.9730    4.0800   29.1550 C.ar   10  TYR10       0.0417
     11  CZ        -6.1550    4.0400   28.4250 C.ar   10  TYR10       0.1957
     12  OH        -6.2270    4.5840   27.1650 O.3    10  TYR10      -0.2866
     13  N         -0.9020    0.9170   35.2090 N.3    39  SER39      -0.1202
     14  CA        -2.0620    0.0550   34.9920 C.3    39  SER39       0.2020
     15  C         -1.4440   -1.2740   34.5850 C.2    39  SER39       0.2619
     16  O         -0.2530   -1.3160   34.2350 O.2    39  SER39      -0.2717
     17  CB        -3.0050    0.6040   33.9210 C.3    39  SER39       0.2103
     18  OG        -2.3590    1.0440   32.7380 O.3    39  SER39      -0.2182
     19  N         -2.2020   -2.3480   34.7040 N.am   40  GLY40      -0.1956
     20  CA        -1.6850   -3.6830   34.4150 C.3    40  GLY40       0.1869
     21  C         -0.7510   -4.2120   35.4940 C.2    40  GLY40       0.2309
     22  O         -0.0240   -5.1790   35.2650 O.2    40  GLY40      -0.2863
     23  N          2.4660   -1.0910   33.6570 N.3    56  ARG56      -0.1245
     24  CA         2.9650   -0.2380   32.5720 C.3    56  ARG56       0.1563
     25  C          2.4170    1.1680   32.7190 C.2    56  ARG56       0.2260
     26  O          1.2340    1.3260   32.9920 O.2    56  ARG56      -0.2867
     27  CB         2.5460   -0.8250   31.2040 C.3    56  ARG56       0.0307
     28  CG         3.1010   -0.1050   29.9760 C.3    56  ARG56       0.0489
     29  CD         1.9840    0.1580   29.0180 C.3    56  ARG56       0.2205
     30  NE         2.0430   -0.7050   27.8540 N.pl3  56  ARG56      -0.0865
     31  CZ         1.0080   -0.9840   27.0690 C.cat  56  ARG56       0.5346
     32  NH1       -0.2030   -0.5180   27.3600 N.pl3  56  ARG56       0.1354
     33  NH2        1.1650   -1.7640   26.0120 N.pl3  56  ARG56       0.1354
     34  N          1.1530    3.9590   30.7830 N.3    58  ASN58      -0.1240
     35  CA         0.6340    4.3660   29.4940 C.3    58  ASN58       0.1653
     36  C          0.2990    5.8580   29.6160 C.2    58  ASN58       0.2266
     37  O         -0.5680    6.2280   30.4080 O.2    58  ASN58      -0.2867
     38  CB        -0.6180    3.5400   29.1350 C.3    58  ASN58       0.1155
     39  CG        -1.3210    3.9360   27.8580 C.2    58  ASN58       0.2627
     40  OD1       -1.2640    5.0770   27.3990 O.2    58  ASN58      -0.2716
     41  ND2       -2.0490    3.0040   27.2790 N.am   58  ASN58      -0.0877
     42  N          0.8440   -6.4580   32.9120 N.3    91  ARG91      -0.1245
     43  CA        -0.1910   -7.5230   32.9270 C.3    91  ARG91       0.1563
     44  C          0.3240   -8.7320   33.7580 C.2    91  ARG91       0.2260
     45  O          0.2120   -9.8950   33.3570 O.2    91  ARG91      -0.2867
     46  CB        -0.5810   -7.9790   31.4960 C.3    91  ARG91       0.0307
     47  CG        -0.7670   -6.8760   30.4280 C.3    91  ARG91       0.0489
     48  CD        -2.0680   -6.1090   30.5330 C.3    91  ARG91       0.2205
     49  NE        -3.1890   -6.9450   30.9740 N.pl3  91  ARG91      -0.0865
     50  CZ        -3.8720   -7.7790   30.1950 C.cat  91  ARG91       0.5346
     51  NH1       -3.5610   -7.9050   28.9090 N.pl3  91  ARG91       0.1354
     52  NH2       -4.8750   -8.4860   30.6930 N.pl3  91  ARG91       0.1354
     53  N         -2.4940  -15.0620   28.1360 N.3   154  PHE154     -0.1241
     54  CA        -2.1770  -14.9930   26.7070 C.3   154  PHE154      0.1605
     55  C         -0.6940  -15.3420   26.5190 C.2   154  PHE154      0.2264
     56  O          0.1520  -14.7500   27.1880 O.2   154  PHE154     -0.2867
     57  CB        -2.4900  -13.5650   26.2030 C.3   154  PHE154      0.0534
     58  CG        -2.1940  -13.2510   24.7530 C.ar  154  PHE154     -0.0203
     59  CD1       -2.8660  -13.9100   23.7290 C.ar  154  PHE154     -0.0042
     60  CD2       -1.2970  -12.2440   24.4110 C.ar  154  PHE154     -0.0042
     61  CE1       -2.6080  -13.6010   22.3860 C.ar  154  PHE154     -0.0003
     62  CE2       -1.0450  -11.9300   23.0680 C.ar  154  PHE154     -0.0003
     63  CZ        -1.7010  -12.6110   22.0650 C.ar  154  PHE154     -0.0000
     64  N         -5.0920  -16.8830   23.5180 N.3   159  ARG159     -0.1245
     65  CA        -5.5800  -16.6710   24.8700 C.3   159  ARG159      0.1563
     66  C         -5.8580  -18.0740   25.4190 C.2   159  ARG159      0.2260
     67  O         -6.2660  -18.9600   24.6630 O.2   159  ARG159     -0.2867
     68  CB        -6.8000  -15.7530   24.8760 C.3   159  ARG159      0.0307
     69  CG        -6.3970  -14.2870   24.8670 C.3   159  ARG159      0.0489
     70  CD        -7.5910  -13.3700   24.7950 C.3   159  ARG159      0.2205
     71  NE        -7.7480  -12.8520   23.4410 N.pl3 159  ARG159     -0.0865
     72  CZ        -7.3080  -11.6680   23.0360 C.cat 159  ARG159      0.5346
     73  NH1       -6.7060  -10.8490   23.8880 N.pl3 159  ARG159      0.1354
     74  NH2       -7.4760  -11.2880   21.7790 N.pl3 159  ARG159      0.1354
     75  N         -8.3540  -14.3030   29.5770 N.3   184  SER184     -0.1202
     76  CA        -7.1730  -13.4560   29.7250 C.3   184  SER184      0.2020
     77  C         -7.7000  -12.1610   30.3350 C.2   184  SER184      0.2619
     78  O         -8.7500  -11.6830   29.9170 O.2   184  SER184     -0.2717
     79  CB        -6.4980  -13.2060   28.3800 C.3   184  SER184      0.2103
     80  OG        -5.2090  -12.6380   28.5640 O.3   184  SER184     -0.2182
     81  N         -7.0210  -11.6420   31.3480 N.am  185  GLY185     -0.1956
     82  CA        -7.4600  -10.4260   32.0330 C.3   185  GLY185      0.1869
     83  C         -8.6200  -10.6550   32.9880 C.2   185  GLY185      0.2309
     84  O         -9.3800   -9.7260   33.2830 O.2   185  GLY185     -0.2863
     85  N        -11.4260  -11.8230   29.1370 N.3   201  TYR201     -0.1241
     86  CA       -11.6600  -11.7750   27.6930 C.3   201  TYR201      0.1605
     87  C        -11.3490  -13.1320   27.0360 C.2   201  TYR201      0.2264
     88  O        -10.2750  -13.6870   27.2600 O.2   201  TYR201     -0.2867
     89  CB       -10.8230  -10.6360   27.0790 C.3   201  TYR201      0.0534
     90  CG       -11.1900  -10.2840   25.6540 C.ar  201  TYR201     -0.0201
     91  CD1      -12.3770   -9.6230   25.3650 C.ar  201  TYR201     -0.0009
     92  CD2      -10.3150  -10.5420   24.6030 C.ar  201  TYR201     -0.0009
     93  CE1      -12.7180   -9.2830   24.0530 C.ar  201  TYR201      0.0417
     94  CE2      -10.6260  -10.1740   23.2920 C.ar  201  TYR201      0.0417
     95  CZ       -11.8390   -9.5600   23.0190 C.ar  201  TYR201      0.1957
     96  OH       -12.1620   -9.1950   21.7310 O.3   201  TYR201     -0.2866
     97  N        -15.9480   -9.6530   26.3090 N.3   206  GLN206     -0.1245
     98  CA       -15.6410   -9.4720   27.7290 C.3   206  GLN206      0.1566
     99  C        -16.6650  -10.3680   28.4440 C.2   206  GLN206      0.2260
    100  O        -17.8040  -10.4790   27.9870 O.2   206  GLN206     -0.2867
    101  CB       -15.8020   -8.0100   28.1750 C.3   206  GLN206      0.0367
    102  CG       -14.7150   -7.0880   27.6290 C.3   206  GLN206      0.0905
    103  CD       -15.0020   -6.5970   26.2260 C.2   206  GLN206      0.2608
    104  OE1      -16.1320   -6.6530   25.7300 O.2   206  GLN206     -0.2717
    105  NE2      -13.9920   -6.0640   25.5680 N.am  206  GLN206     -0.0878
    106  N        -13.3640   -7.1300   31.8710 N.3   231  SER231     -0.1202
    107  CA       -12.0280   -7.6410   31.5970 C.3   231  SER231      0.2020
    108  C        -11.0610   -6.6430   32.2410 C.2   231  SER231      0.2618
    109  O        -11.4150   -5.4700   32.3550 O.2   231  SER231     -0.2717
    110  CB       -11.8180   -7.7560   30.0890 C.3   231  SER231      0.2103
    111  OG       -10.6180   -8.4480   29.8000 O.3   231  SER231     -0.2182
    112  N         -9.8720   -7.1000   32.6970 N.am  232  ALA232     -0.1979
    113  CA        -8.8900   -6.2640   33.4060 C.3   232  ALA232      0.1597
    114  C         -9.5160   -5.6340   34.6790 C.2   232  ALA232      0.2287
    115  O         -9.3160   -4.4560   35.0040 O.2   232  ALA232     -0.2864
    116  CB        -8.2810   -5.2030   32.4790 C.3   232  ALA232      0.0319
    117  N        -13.0050   -3.2220   32.0630 N.3   248  TYR248     -0.1241
    118  CA       -13.4950   -2.7260   30.7880 C.3   248  TYR248      0.1605
    119  C        -14.5800   -3.6740   30.2600 C.2   248  TYR248      0.2264
    120  O        -14.3620   -4.8830   30.2190 O.2   248  TYR248     -0.2867
    121  CB       -12.3070   -2.5780   29.8010 C.3   248  TYR248      0.0534
    122  CG       -12.6700   -2.0300   28.4390 C.ar  248  TYR248     -0.0201
    123  CD1      -13.1210   -0.7230   28.2900 C.ar  248  TYR248     -0.0009
    124  CD2      -12.5020   -2.7980   27.2900 C.ar  248  TYR248     -0.0009
    125  CE1      -13.4520   -0.2090   27.0400 C.ar  248  TYR248      0.0417
    126  CE2      -12.8050   -2.2850   26.0270 C.ar  248  TYR248      0.0417
    127  CZ       -13.2870   -0.9900   25.9090 C.ar  248  TYR248      0.1957
    128  OH       -13.5960   -0.4500   24.6830 O.3   248  TYR248     -0.2866
    129  N        -16.0810   -3.3850   27.1410 N.3   250  GLY250     -0.1225
    130  CA       -16.1290   -3.2860   25.6860 C.3   250  GLY250      0.1811
    131  C        -16.6240   -1.9360   25.1990 C.2   250  GLY250      0.2280
    132  O        -16.5880   -1.6580   23.9990 O.2   250  GLY250     -0.2866
    133  N        -15.3130    2.1420   30.9640 N.3   253  PHE253     -0.1241
    134  CA       -14.3550    1.8480   32.0170 C.3   253  PHE253      0.1605
    135  C        -15.1980    1.9220   33.2750 C.2   253  PHE253      0.2264
    136  O        -15.6350    3.0040   33.6730 O.2   253  PHE253     -0.2867
    137  CB       -13.1740    2.8490   32.0060 C.3   253  PHE253      0.0534
    138  CG       -12.2760    2.6150   30.8170 C.ar  253  PHE253     -0.0203
    139  CD1      -11.2340    1.6930   30.8820 C.ar  253  PHE253     -0.0042
    140  CD2      -12.5280    3.2460   29.6020 C.ar  253  PHE253     -0.0042
    141  CE1      -10.4310    1.4420   29.7660 C.ar  253  PHE253     -0.0003
    142  CE2      -11.7280    2.9900   28.4870 C.ar  253  PHE253     -0.0003
    143  CZ       -10.6790    2.0990   28.5810 C.ar  253  PHE253     -0.0000
    144  N         -9.8190    0.5170   34.5980 N.3   278  SER278     -0.1202
    145  CA        -9.4720   -0.8870   34.3910 C.3   278  SER278      0.2020
    146  C         -7.9970   -1.0580   34.7550 C.2   278  SER278      0.2619
    147  O         -7.3110   -0.0620   34.9570 O.2   278  SER278     -0.2717
    148  CB        -9.7290   -1.2940   32.9410 C.3   278  SER278      0.2103
    149  OG        -8.8710   -0.6080   32.0460 O.3   278  SER278     -0.2182
    150  N         -7.5360   -2.3040   34.8600 N.am  279  GLY279     -0.1956
    151  CA        -6.1400   -2.6360   35.1340 C.3   279  GLY279      0.1869
    152  C         -5.5780   -2.1930   36.4700 C.2   279  GLY279      0.2309
    153  O         -4.3780   -1.9080   36.5770 O.2   279  GLY279     -0.2863
@<TRIPOS>BOND
     1    96    95    1
     2    74    72    1
     3    63    61   ar
     4    63    62   ar
     5    61    59   ar
     6    95    94   ar
     7    95    93   ar
     8    72    71    2
     9    72    73    1
    10    62    60   ar
    11    94    92   ar
    12    71    70    1
    13    64    65    1
    14    59    58   ar
    15   132   131    2
    16    93    91   ar
    17    60    58   ar
    18    92    90   ar
    19    67    66    2
    20   128   127    1
    21    58    57    1
    22    70    69    1
    23    69    68    1
    24    65    68    1
    25    65    66    1
    26   131   130    1
    27    91    90   ar
    28   105   103   am
    29    90    89    1
    30   130   129    1
    31   104   103    2
    32   127   126   ar
    33   127   125   ar
    34    33    31    1
    35   126   124   ar
    36    57    54    1
    37   103   102    1
    38    97    98    1
    39    55    54    1
    40    55    56    2
    41    54    53    1
    42    87    88    2
    43    87    86    1
    44   125   123   ar
    45    31    32    1
    46    31    30    2
    47    89    86    1
    48    12    11    1
    49    41    39   am
    50   124   122   ar
    51    40    39    2
    52   102   101    1
    53    86    85    1
    54    98   101    1
    55    98    99    1
    56    30    29    1
    57    39    38    1
    58   100    99    2
    59   123   122   ar
    60    79    80    1
    61    79    76    1
    62    11     9   ar
    63    11    10   ar
    64   122   121    1
    65   142   143   ar
    66   142   140   ar
    67   143   141   ar
    68    51    50    1
    69     9     7   ar
    70    29    28    1
    71    38    35    1
    72    10     8   ar
    73    35    36    1
    74    35    34    1
    75    75    76    1
    76   140   138   ar
    77    36    37    2
    78    76    77    1
    79   141   139   ar
    80   111   110    1
    81   121   118    1
    82    78    77    2
    83    28    27    1
    84   110   107    1
    85    50    52    1
    86    50    49    2
    87   120   119    2
    88     7     6   ar
    89   119   118    1
    90    77    81   am
    91    47    48    1
    92    47    46    1
    93     8     6   ar
    94    48    49    1
    95   118   117    1
    96   138   139   ar
    97   138   137    1
    98   133   134    1
    99     6     5    1
   100    27    24    1
   101    81    82    1
   102    46    43    1
   103   107   106    1
   104   107   108    1
   105   137   134    1
   106   134   135    1
   107    82    83    1
   108   149   148    1
   109   108   109    2
   110   108   112   am
   111     5     2    1
   112   116   113    1
   113    24    25    1
   114    24    23    1
   115   112   113    1
   116    25    26    2
   117    18    17    1
   118    42    43    1
   119    43    44    1
   120   148   145    1
   121    83    84    2
   122     3     4    2
   123     3     2    1
   124   135   136    2
   125    45    44    2
   126   113   114    1
   127     2     1    1
   128    17    14    1
   129    16    15    2
   130   145   144    1
   131   145   146    1
   132    20    19    1
   133    20    21    1
   134    15    19   am
   135    15    14    1
   136   114   115    2
   137   146   150   am
   138   146   147    2
   139   150   151    1
   140    14    13    1
   141   151   152    1
   142    22    21    2
   143   152   153    2
