@<TRIPOS>MOLECULE
tmp/3zgfB00.pdb
 237 235 0 0 0
SMALL
GASTEIGER

@<TRIPOS>ATOM
      1  N        -17.4970   15.1610  -13.3000 N.3    57  PHE57      -0.1241
      2  CA       -17.7900   16.4930  -12.7720 C.3    57  PHE57       0.1605
      3  C        -18.9300   17.1590  -13.5290 C.2    57  PHE57       0.2264
      4  O        -18.9190   17.2250  -14.7610 O.2    57  PHE57      -0.2867
      5  CB       -16.5370   17.3650  -12.7640 C.3    57  PHE57       0.0534
      6  CG       -15.5370   16.9560  -11.7220 C.ar   57  PHE57      -0.0203
      7  CD1      -14.7840   15.7990  -11.8790 C.ar   57  PHE57      -0.0042
      8  CD2      -15.3530   17.7230  -10.5820 C.ar   57  PHE57      -0.0042
      9  CE1      -13.8540   15.4190  -10.9260 C.ar   57  PHE57      -0.0003
     10  CE2      -14.4320   17.3400   -9.6140 C.ar   57  PHE57      -0.0003
     11  CZ       -13.6820   16.1840   -9.7860 C.ar   57  PHE57      -0.0000
     12  N        -20.3150   20.5460  -12.9380 N.3    59  ILE59      -0.1231
     13  CA       -20.2290   21.8500  -12.2900 C.3    59  ILE59       0.1692
     14  C        -20.9290   22.9200  -13.1300 C.2    59  ILE59       0.2592
     15  O        -20.7300   22.9970  -14.3500 O.2    59  ILE59      -0.2718
     16  CB       -18.7450   22.2340  -12.0680 C.3    59  ILE59       0.0266
     17  CG1      -18.0770   21.2530  -11.0950 C.3    59  ILE59       0.0019
     18  CG2      -18.6190   23.6650  -11.5820 C.3    59  ILE59       0.0020
     19  CD1      -18.5610   21.3710   -9.6650 C.3    59  ILE59       0.0001
     20  N        -21.7570   23.7320  -12.4730 N.am   60  LYS60      -0.1966
     21  CA       -22.5370   24.7700  -13.1380 C.3    60  LYS60       0.1728
     22  C        -23.4540   24.2010  -14.2240 C.2    60  LYS60       0.2616
     23  O        -24.2630   23.3010  -13.9630 O.2    60  LYS60      -0.2715
     24  CB       -21.6380   25.8940  -13.6680 C.3    60  LYS60       0.0311
     25  CG       -20.9920   26.7010  -12.5570 C.3    60  LYS60       0.0038
     26  CD       -19.5420   27.0480  -12.8570 C.3    60  LYS60       0.0206
     27  CE       -19.4170   28.0560  -13.9740 C.3    60  LYS60       0.1093
     28  NZ       -17.9860   28.3550  -14.2710 N.3    60  LYS60      -0.1314
     29  N        -23.3210   24.7090  -15.4420 N.am   61  LYS61      -0.1963
     30  CA       -24.2580   24.3530  -16.5040 C.3    61  LYS61       0.1728
     31  C        -24.0950   22.9170  -17.0140 C.2    61  LYS61       0.2616
     32  O        -24.9580   22.4120  -17.7330 O.2    61  LYS61      -0.2715
     33  CB       -24.1750   25.3530  -17.6600 C.3    61  LYS61       0.0311
     34  CG       -24.5260   26.7810  -17.2570 C.3    61  LYS61       0.0038
     35  CD       -24.3490   27.7380  -18.4160 C.3    61  LYS61       0.0206
     36  CE       -24.7100   29.1650  -18.0120 C.3    61  LYS61       0.1093
     37  NZ       -24.4950   30.1250  -19.1320 N.3    61  LYS61      -0.1314
     38  N        -22.9960   22.2620  -16.6400 N.am   62  TYR62      -0.1974
     39  CA       -22.7250   20.9070  -17.1140 C.3    62  TYR62       0.1639
     40  C        -23.5890   19.8430  -16.4290 C.2    62  TYR62       0.2290
     41  O        -23.4590   18.6540  -16.7290 O.2    62  TYR62      -0.2864
     42  CB       -21.2420   20.5510  -16.9820 C.3    62  TYR62       0.0560
     43  CG       -20.3570   21.1310  -18.0660 C.ar   62  TYR62      -0.0198
     44  CD1      -20.3430   22.4980  -18.3230 C.ar   62  TYR62      -0.0009
     45  CD2      -19.5170   20.3130  -18.8210 C.ar   62  TYR62      -0.0009
     46  CE1      -19.5310   23.0350  -19.3070 C.ar   62  TYR62       0.0417
     47  CE2      -18.6910   20.8460  -19.8110 C.ar   62  TYR62       0.0417
     48  CZ       -18.7010   22.2100  -20.0450 C.ar   62  TYR62       0.1957
     49  OH       -17.8930   22.7630  -21.0270 O.3    62  TYR62      -0.2866
     50  N        -13.6260   28.1200  -16.8290 N.3   117  TRP117     -0.1241
     51  CA       -13.7870   26.7290  -17.2250 C.3   117  TRP117      0.1605
     52  C        -12.4530   25.9980  -17.1610 C.2   117  TRP117      0.2264
     53  O        -12.4220   24.7900  -16.9140 O.2   117  TRP117     -0.2867
     54  CB       -14.4000   26.6140  -18.6260 C.3   117  TRP117      0.0550
     55  CG       -13.5030   27.1140  -19.7100 C.ar  117  TRP117      0.0003
     56  CD1      -13.4750   28.3720  -20.2380 C.ar  117  TRP117      0.0946
     57  CD2      -12.4950   26.3640  -20.4010 C.ar  117  TRP117      0.0152
     58  NE1      -12.5130   28.4520  -21.2150 N.ar  117  TRP117     -0.2442
     59  CE2      -11.8950   27.2330  -21.3330 C.ar  117  TRP117      0.0810
     60  CE3      -12.0390   25.0430  -20.3190 C.ar  117  TRP117      0.0012
     61  CZ2      -10.8660   26.8250  -22.1790 C.ar  117  TRP117      0.0191
     62  CZ3      -11.0170   24.6400  -21.1600 C.ar  117  TRP117      0.0001
     63  CH2      -10.4450   25.5300  -22.0790 C.ar  117  TRP117      0.0015
     64  N        -12.1600   24.9800  -13.5300 N.3   120  VAL120     -0.1231
     65  CA       -13.0530   23.8580  -13.2330 C.3   120  VAL120      0.1692
     66  C        -12.4110   22.5580  -13.7020 C.2   120  VAL120      0.2592
     67  O        -12.3520   21.5740  -12.9480 O.2   120  VAL120     -0.2718
     68  CB       -14.4260   23.9950  -13.8990 C.3   120  VAL120      0.0266
     69  CG1      -15.2340   22.7260  -13.6600 C.3   120  VAL120      0.0020
     70  CG2      -15.1720   25.2000  -13.3400 C.3   120  VAL120      0.0020
     71  N        -11.9180   22.5670  -14.9400 N.am  121  SER121     -0.1952
     72  CA       -11.2890   21.3850  -15.5340 C.3   121  SER121      0.1924
     73  C        -10.0470   20.9730  -14.7540 C.2   121  SER121      0.2314
     74  O         -9.8950   19.8050  -14.3940 O.2   121  SER121     -0.2863
     75  CB       -10.9260   21.6320  -17.0060 C.3   121  SER121      0.2116
     76  OG       -10.3690   20.4640  -17.6030 O.3   121  SER121     -0.2180
     77  N        -10.1340   19.3900  -11.0580 N.3   124  ARG124     -0.1245
     78  CA       -10.5890   18.0090  -10.9400 C.3   124  ARG124      0.1563
     79  C         -9.5050   17.1470  -10.3120 C.2   124  ARG124      0.2260
     80  O         -9.7960   16.2270   -9.5390 O.2   124  ARG124     -0.2867
     81  CB       -10.9860   17.4500  -12.3060 C.3   124  ARG124      0.0307
     82  CG       -12.2480   18.0770  -12.8730 C.3   124  ARG124      0.0489
     83  CD       -12.6870   17.3560  -14.1410 C.3   124  ARG124      0.2205
     84  NE       -11.7700   17.5900  -15.2480 N.pl3 124  ARG124     -0.0865
     85  CZ       -11.8480   16.9720  -16.4190 C.cat 124  ARG124      0.5346
     86  NH1      -12.7970   16.0660  -16.6290 N.pl3 124  ARG124      0.1354
     87  NH2      -10.9690   17.2530  -17.3760 N.pl3 124  ARG124      0.1354
     88  N        -14.8100   12.9000  -18.5350 N.3   147  ASP147     -0.1225
     89  CA       -15.6190   14.0860  -18.8530 C.3   147  ASP147      0.1805
     90  C        -17.1080   13.7320  -18.8410 C.2   147  ASP147      0.2598
     91  O        -17.4730   12.5810  -19.1080 O.2   147  ASP147     -0.2718
     92  CB       -15.2660   14.6080  -20.2550 C.3   147  ASP147      0.1424
     93  CG       -14.0740   15.5600  -20.2630 C.2   147  ASP147      0.3668
     94  OD1      -13.2380   15.5010  -19.3430 O.co2 147  ASP147     -0.2456
     95  OD2      -13.9730   16.3610  -21.2170 O.co2 147  ASP147     -0.2456
     96  N        -17.9630   14.7180  -18.5570 N.am  148  VAL148     -0.1966
     97  CA       -19.4200   14.4930  -18.4490 C.3   148  VAL148      0.1727
     98  C        -20.1430   14.7400  -19.7640 C.2   148  VAL148      0.2616
     99  O        -21.2300   14.1980  -19.9840 O.2   148  VAL148     -0.2715
    100  CB       -20.0750   15.3770  -17.3690 C.3   148  VAL148      0.0290
    101  CG1      -20.1450   16.8350  -17.8120 C.3   148  VAL148      0.0023
    102  CG2      -21.4760   14.8680  -17.0090 C.3   148  VAL148      0.0023
    103  N        -19.5340   15.5450  -20.6400 N.am  149  ASP149     -0.1971
    104  CA       -20.1830   15.9730  -21.8820 C.3   149  ASP149      0.1709
    105  C        -20.0900   14.8770  -22.9410 C.2   149  ASP149      0.2293
    106  O        -19.7160   15.1220  -24.0960 O.2   149  ASP149     -0.2864
    107  CB       -19.5960   17.3070  -22.3940 C.3   149  ASP149      0.1436
    108  CG       -18.0690   17.2840  -22.5200 C.2   149  ASP149      0.3671
    109  OD1      -17.4060   16.5200  -21.8020 O.co2 149  ASP149     -0.2456
    110  OD2      -17.5110   18.0410  -23.3390 O.co2 149  ASP149     -0.2456
    111  N         -5.7440   10.0600  -27.2980 N.3   169  HIS169     -0.1227
    112  CA        -6.5680   11.1850  -27.7340 C.3   169  HIS169      0.1737
    113  C         -6.9130   10.9790  -29.2060 C.2   169  HIS169      0.2438
    114  O         -6.0330   10.6760  -30.0160 O.2   169  HIS169     -0.2733
    115  CB        -5.7820   12.4750  -27.5450 C.3   169  HIS169      0.0758
    116  CG        -6.5770   13.7280  -27.7620 C.ar  169  HIS169      0.0818
    117  ND1       -7.1370   14.0590  -28.9780 N.ar  169  HIS169     -0.2268
    118  CD2       -6.8640   14.7520  -26.9260 C.ar  169  HIS169      0.1154
    119  CE1       -7.7490   15.2270  -28.8760 C.ar  169  HIS169      0.1986
    120  NE2       -7.5990   15.6680  -27.6400 N.ar  169  HIS169     -0.2212
    121  N         -8.2040   11.1010  -29.5520 N.am  170  PRO170     -0.2718
    122  CA        -8.6580   10.7310  -30.8970 C.3   170  PRO170      0.1535
    123  C         -8.0970   11.6370  -31.9730 C.2   170  PRO170      0.2599
    124  O         -8.0880   11.2640  -33.1470 O.2   170  PRO170     -0.2715
    125  CB       -10.1800   10.9020  -30.8180 C.3   170  PRO170      0.0310
    126  CG       -10.4010   11.8510  -29.6820 C.3   170  PRO170      0.0237
    127  CD        -9.3210   11.5230  -28.6900 C.3   170  PRO170      0.0939
    128  N         -7.6370   12.8210  -31.5930 N.am  171  GLY171     -0.1941
    129  CA        -7.1330   13.7500  -32.5860 C.3   171  GLY171      0.2014
    130  C         -5.6950   13.4980  -33.0090 C.2   171  GLY171      0.2638
    131  O         -5.2430   14.0800  -33.9930 O.2   171  GLY171     -0.2714
    132  N         -4.9900   12.6250  -32.2860 N.am  172  PHE172     -0.1973
    133  CA        -3.5350   12.5160  -32.4260 C.3   172  PHE172      0.1639
    134  C         -2.9850   11.1000  -32.4950 C.2   172  PHE172      0.2290
    135  O         -1.7630   10.9210  -32.5760 O.2   172  PHE172     -0.2864
    136  CB        -2.8450   13.2210  -31.2550 C.3   172  PHE172      0.0560
    137  CG        -3.0900   14.6910  -31.2100 C.ar  172  PHE172     -0.0200
    138  CD1       -2.2430   15.5640  -31.8720 C.ar  172  PHE172     -0.0042
    139  CD2       -4.1660   15.2030  -30.5020 C.ar  172  PHE172     -0.0042
    140  CE1       -2.4660   16.9200  -31.8390 C.ar  172  PHE172     -0.0003
    141  CE2       -4.4000   16.5560  -30.4700 C.ar  172  PHE172     -0.0003
    142  CZ        -3.5520   17.4180  -31.1340 C.ar  172  PHE172     -0.0000
    143  N         -5.5550   11.5820  -23.7860 N.3   202  GLY202     -0.1210
    144  CA        -6.6290   12.5380  -23.6010 C.3   202  GLY202      0.1956
    145  C         -6.9700   12.7900  -22.1370 C.2   202  GLY202      0.2612
    146  O         -7.0660   11.8570  -21.3440 O.2   202  GLY202     -0.2717
    147  N         -7.1870   14.0570  -21.7840 N.am  203  GLY203     -0.1942
    148  CA        -7.5640   14.4040  -20.4190 C.3   203  GLY203      0.2014
    149  C         -8.9210   13.8620  -19.9970 C.2   203  GLY203      0.2638
    150  O         -9.2290   13.8000  -18.8090 O.2   203  GLY203     -0.2714
    151  N         -9.7370   13.4550  -20.9670 N.am  204  ALA204     -0.1977
    152  CA       -11.1380   13.1110  -20.6720 C.3   204  ALA204      0.1597
    153  C        -11.3730   11.6610  -20.2220 C.2   204  ALA204      0.2287
    154  O        -12.5150   11.2820  -19.9730 O.2   204  ALA204     -0.2864
    155  CB       -12.0150   13.4170  -21.8800 C.3   204  ALA204      0.0319
    156  N         -2.6610   22.9870  -22.4990 N.3   236  TRP236     -0.1241
    157  CA        -3.8860   22.1990  -22.4200 C.3   236  TRP236      0.1605
    158  C         -4.2290   21.8000  -20.9860 C.2   236  TRP236      0.2264
    159  O         -4.8490   20.7540  -20.7390 O.2   236  TRP236     -0.2867
    160  CB        -3.8320   21.0080  -23.3850 C.3   236  TRP236      0.0550
    161  CG        -4.0280   21.4690  -24.7930 C.ar  236  TRP236      0.0003
    162  CD1       -3.0770   21.5930  -25.7610 C.ar  236  TRP236      0.0946
    163  CD2       -5.2540   21.9370  -25.3730 C.ar  236  TRP236      0.0152
    164  NE1       -3.6400   22.0790  -26.9220 N.ar  236  TRP236     -0.2442
    165  CE2       -4.9750   22.3000  -26.7060 C.ar  236  TRP236      0.0810
    166  CE3       -6.5620   22.0640  -24.8980 C.ar  236  TRP236      0.0012
    167  CZ2       -5.9580   22.7850  -27.5680 C.ar  236  TRP236      0.0191
    168  CZ3       -7.5370   22.5470  -25.7550 C.ar  236  TRP236      0.0001
    169  CH2       -7.2290   22.9010  -27.0740 C.ar  236  TRP236      0.0015
    170  N         -5.0870   20.5950  -17.4620 N.3   238  ASP238     -0.1225
    171  CA        -4.8960   19.3020  -16.7920 C.3   238  ASP238      0.1805
    172  C         -4.3560   18.2240  -17.7370 C.2   238  ASP238      0.2597
    173  O         -3.5220   17.4040  -17.3440 O.2   238  ASP238     -0.2718
    174  CB        -6.1580   18.8380  -16.0430 C.3   238  ASP238      0.1424
    175  CG        -7.4400   19.1200  -16.8030 C.2   238  ASP238      0.3668
    176  OD1       -7.7770   20.3100  -17.0000 O.co2 238  ASP238     -0.2456
    177  OD2       -8.1320   18.1450  -17.1760 O.co2 238  ASP238     -0.2456
    178  N         -4.7980   18.2520  -18.9880 N.am  239  GLU239     -0.1979
    179  CA        -4.3090   17.3030  -19.9920 C.3   239  GLU239      0.1602
    180  C         -2.7910   17.3620  -20.1950 C.2   239  GLU239      0.2287
    181  O         -2.1330   16.3190  -20.3160 O.2   239  GLU239     -0.2864
    182  CB        -5.0200   17.5260  -21.3250 C.3   239  GLU239      0.0415
    183  CG        -4.6030   16.5730  -22.4400 C.3   239  GLU239      0.1163
    184  CD        -5.5220   16.7020  -23.6440 C.2   239  GLU239      0.3649
    185  OE1       -6.5850   16.0330  -23.6600 O.co2 239  GLU239     -0.2457
    186  OE2       -5.1990   17.4940  -24.5680 O.co2 239  GLU239     -0.2457
    187  N        -12.5790    7.0330  -26.6790 N.3   260  LEU260     -0.1231
    188  CA       -12.6420    8.4850  -26.5730 C.3   260  LEU260      0.1693
    189  C        -12.6870    9.0620  -27.9780 C.2   260  LEU260      0.2592
    190  O        -11.6530    9.1820  -28.6520 O.2   260  LEU260     -0.2718
    191  CB       -11.4360    9.0150  -25.7870 C.3   260  LEU260      0.0284
    192  CG       -11.3580   10.5170  -25.4820 C.3   260  LEU260      0.0019
    193  CD1      -12.5170   10.9590  -24.6080 C.3   260  LEU260      0.0001
    194  CD2      -10.0300   10.8550  -24.8020 C.3   260  LEU260      0.0001
    195  N        -13.8930    9.3870  -28.4360 N.am  261  TRP261     -0.1962
    196  CA       -14.0580    9.7220  -29.8490 C.3   261  TRP261      0.1771
    197  C        -15.0450   10.8610  -30.0640 C.2   261  TRP261      0.2619
    198  O        -15.8730   11.1470  -29.2030 O.2   261  TRP261     -0.2715
    199  CB       -14.5010    8.4740  -30.6150 C.3   261  TRP261      0.0590
    200  CG       -14.3480    8.6220  -32.0820 C.ar  261  TRP261      0.0006
    201  CD1      -15.3480    8.8450  -32.9910 C.ar  261  TRP261      0.0946
    202  CD2      -13.1280    8.5860  -32.8210 C.ar  261  TRP261      0.0152
    203  NE1      -14.8210    8.9400  -34.2570 N.ar  261  TRP261     -0.2442
    204  CE2      -13.4580    8.7870  -34.1800 C.ar  261  TRP261      0.0810
    205  CE3      -11.7840    8.3880  -32.4690 C.ar  261  TRP261      0.0012
    206  CZ2      -12.4920    8.8120  -35.1850 C.ar  261  TRP261      0.0191
    207  CZ3      -10.8280    8.4110  -33.4660 C.ar  261  TRP261      0.0001
    208  CH2      -11.1830    8.6140  -34.8130 C.ar  261  TRP261      0.0015
    209  N        -14.9650   11.5070  -31.2240 N.am  262  ASP262     -0.1971
    210  CA       -15.9160   12.5470  -31.5830 C.3   262  ASP262      0.1709
    211  C        -16.2130   12.3380  -33.0590 C.2   262  ASP262      0.2293
    212  O        -15.3960   12.6690  -33.9040 O.2   262  ASP262     -0.2864
    213  CB       -15.3030   13.9280  -31.3520 C.3   262  ASP262      0.1436
    214  CG       -16.2860   15.0700  -31.5860 C.2   262  ASP262      0.3671
    215  OD1      -17.2460   14.9180  -32.3680 O.co2 262  ASP262     -0.2456
    216  OD2      -16.0830   16.1450  -30.9850 O.co2 262  ASP262     -0.2456
    217  N        -16.2810   15.4190  -35.4760 N.3   265  LEU265     -0.1231
    218  CA       -14.9970   15.9750  -35.8900 C.3   265  LEU265      0.1693
    219  C        -14.1540   15.0040  -36.7220 C.2   265  LEU265      0.2591
    220  O        -13.3400   15.4360  -37.5340 O.2   265  LEU265     -0.2718
    221  CB       -14.1830   16.4320  -34.6710 C.3   265  LEU265      0.0284
    222  CG       -14.6180   17.6780  -33.8980 C.3   265  LEU265      0.0019
    223  CD1      -13.6340   17.9680  -32.7790 C.3   265  LEU265      0.0001
    224  CD2      -14.7550   18.8890  -34.8090 C.3   265  LEU265      0.0001
    225  N        -14.3410   13.7000  -36.5260 N.am  266  LEU266     -0.1980
    226  CA       -13.3910   12.7340  -37.0700 C.3   266  LEU266      0.1596
    227  C        -14.0230   11.6030  -37.8820 C.2   266  LEU266      0.2287
    228  O        -13.3060   10.7650  -38.4310 O.2   266  LEU266     -0.2864
    229  CB       -12.5410   12.1320  -35.9380 C.3   266  LEU266      0.0297
    230  CG       -11.6770   13.0950  -35.1190 C.3   266  LEU266      0.0022
    231  CD1      -11.2840   12.4530  -33.8000 C.3   266  LEU266      0.0001
    232  CD2      -10.4360   13.4790  -35.9030 C.3   266  LEU266      0.0001
    233  N        -18.1760   12.1670  -27.7990 N.3   279  ALA279     -0.1245
    234  CA       -18.5680   13.5410  -27.4840 C.3   279  ALA279      0.1562
    235  C        -20.0290   13.8270  -27.8280 C.2   279  ALA279      0.2260
    236  O        -20.5380   13.3470  -28.8390 O.2   279  ALA279     -0.2867
    237  CB       -17.6670   14.5210  -28.2210 C.3   279  ALA279      0.0290
@<TRIPOS>BOND
     1   228   227    2
     2   227   226    1
     3   220   219    2
     4   226   225    1
     5   226   229    1
     6   219   225   am
     7   219   218    1
     8   229   230    1
     9   232   230    1
    10   218   217    1
    11   218   221    1
    12   206   208   ar
    13   206   204   ar
    14   230   231    1
    15   208   207   ar
    16   224   222    1
    17   221   222    1
    18   203   204   ar
    19   203   201   ar
    20   204   202   ar
    21   131   130    2
    22   212   211    2
    23   222   223    1
    24   207   205   ar
    25   124   123    2
    26   211   210    1
    27   130   129    1
    28   130   132   am
    29   201   200   ar
    30   202   205   ar
    31   202   200   ar
    32   129   128    1
    33   135   134    2
    34   134   133    1
    35   133   132    1
    36   133   136    1
    37   215   214   ar
    38   200   199    1
    39   123   128   am
    40   123   122    1
    41   138   140   ar
    42   138   137   ar
    43   140   142   ar
    44   214   213    1
    45   214   216   ar
    46   210   213    1
    47   210   209    1
    48   136   137    1
    49   209   197   am
    50   137   139   ar
    51   142   141   ar
    52   122   125    1
    53   122   121    1
    54   125   126    1
    55   199   196    1
    56   139   141   ar
    57   197   196    1
    58   197   198    2
    59   114   113    2
    60   196   195    1
    61   126   127    1
    62   121   113   am
    63   121   127    1
    64   113   112    1
    65   117   119   ar
    66   117   116   ar
    67   119   120   ar
    68   236   235    2
    69   190   189    2
    70   195   189   am
    71   237   234    1
    72   189   188    1
    73   235   234    1
    74   233   234    1
    75   116   115    1
    76   116   118   ar
    77   112   115    1
    78   112   111    1
    79   120   118   ar
    80   167   169   ar
    81   167   165   ar
    82   169   168   ar
    83   164   165   ar
    84   164   162   ar
    85   165   163   ar
    86   187   188    1
    87   188   191    1
    88   191   192    1
    89   162   161   ar
    90   168   166   ar
    91   192   194    1
    92   192   193    1
    93   163   166   ar
    94   163   161   ar
    95   161   160    1
    96   186   184   ar
    97   106   105    2
    98   143   144    1
    99   185   184   ar
   100   184   183    1
   101   144   145    1
   102   160   157    1
   103   110   108   ar
   104   105   104    1
   105   108   107    1
   106   108   109   ar
   107   156   157    1
   108   183   182    1
   109   157   158    1
   110   107   104    1
   111    61    63   ar
   112    61    59   ar
   113   145   147   am
   114   145   146    2
   115    63    62   ar
   116   104   103    1
   117   155   152    1
   118   147   148    1
   119    59    58   ar
   120    59    57   ar
   121   182   179    1
   122    95    93   ar
   123    58    56   ar
   124    62    60   ar
   125    49    48    1
   126   158   159    2
   127   151   152    1
   128   151   149   am
   129   152   153    1
   130   103    98   am
   131   148   149    1
   132    57    60   ar
   133    57    55   ar
   134   181   180    2
   135    93    92    1
   136    93    94   ar
   137    92    89    1
   138    56    55   ar
   139   153   154    2
   140   180   179    1
   141    48    47   ar
   142    48    46   ar
   143   149   150    2
   144   179   178    1
   145    99    98    2
   146    47    45   ar
   147    98    97    1
   148    55    54    1
   149    46    44   ar
   150    37    36    1
   151    91    90    2
   152   178   172   am
   153    89    90    1
   154    89    88    1
   155    90    96   am
   156    45    43   ar
   157    54    51    1
   158    96    97    1
   159    97   100    1
   160    35    36    1
   161    35    34    1
   162    44    43   ar
   163    43    42    1
   164   101   100    1
   165   172   173    2
   166   172   171    1
   167    32    31    2
   168    33    34    1
   169    33    30    1
   170    76    75    1
   171   170   171    1
   172    87    85    1
   173   100   102    1
   174    51    52    1
   175    51    50    1
   176   177   175   ar
   177    52    53    2
   178    39    42    1
   179    39    38    1
   180    39    40    1
   181    31    38   am
   182    31    30    1
   183    75    72    1
   184   176   175   ar
   185   175   174    1
   186   171   174    1
   187    41    40    2
   188    86    85    1
   189    30    29    1
   190    85    84    2
   191    72    71    1
   192    72    73    1
   193    29    22   am
   194    84    83    1
   195    71    66   am
   196     4     3    2
   197    73    74    2
   198    15    14    2
   199    28    27    1
   200    22    23    2
   201    22    21    1
   202    83    82    1
   203    27    26    1
   204    68    69    1
   205    68    70    1
   206    68    65    1
   207    66    65    1
   208    66    67    2
   209    24    21    1
   210    24    25    1
   211    64    65    1
   212     3     2    1
   213     1     2    1
   214    21    20    1
   215    14    20   am
   216    14    13    1
   217    12    13    1
   218    82    81    1
   219    26    25    1
   220     2     5    1
   221     5     6    1
   222    81    78    1
   223    13    16    1
   224    16    18    1
   225    16    17    1
   226     7     6   ar
   227     7     9   ar
   228     6     8   ar
   229    17    19    1
   230    77    78    1
   231    78    79    1
   232     9    11   ar
   233     8    10   ar
   234    79    80    2
   235    11    10   ar
