@<TRIPOS>MOLECULE
tmp/3zgjB00.pdb
 149 140 0 0 0
SMALL
GASTEIGER

@<TRIPOS>ATOM
      1  N         10.8670  -35.0380  -47.4840 N.3   161  HIS161     -0.1241
      2  CA         9.6860  -34.2360  -47.7230 C.3   161  HIS161      0.1621
      3  C         10.0960  -32.7650  -47.5140 C.2   161  HIS161      0.2264
      4  O         11.2060  -32.4800  -47.0010 O.2   161  HIS161     -0.2867
      5  CB         8.5540  -34.6370  -46.7950 C.3   161  HIS161      0.0745
      6  CG         8.8530  -34.4610  -45.3390 C.ar  161  HIS161      0.0817
      7  ND1        9.4140  -35.4460  -44.5430 N.ar  161  HIS161     -0.2268
      8  CD2        8.6080  -33.4110  -44.5210 C.ar  161  HIS161      0.1154
      9  CE1        9.4840  -35.0120  -43.3000 C.ar  161  HIS161      0.1986
     10  NE2        9.0450  -33.7700  -43.2700 N.ar  161  HIS161     -0.2212
     11  N         -3.0290  -26.5250  -35.3400 N.3   199  MET199     -0.1245
     12  CA        -2.7370  -26.4230  -36.7760 C.3   199  MET199      0.1570
     13  C         -3.2800  -27.6140  -37.5100 C.2   199  MET199      0.2261
     14  O         -3.3900  -28.7270  -36.9860 O.2   199  MET199     -0.2867
     15  CB        -1.2160  -26.2900  -37.0270 C.3   199  MET199      0.0387
     16  CG        -0.4460  -27.5330  -36.6320 C.3   199  MET199      0.0595
     17  SD         1.3430  -27.3410  -36.3460 S.3   199  MET199     -0.1393
     18  CE         1.2780  -26.5590  -34.7100 C.3   199  MET199      0.0692
     19  N         -2.8040  -29.9510  -40.9070 N.3   201  MET201     -0.1245
     20  CA        -1.9340  -30.2630  -42.0250 C.3   201  MET201      0.1570
     21  C         -2.5110  -31.3020  -42.9800 C.2   201  MET201      0.2261
     22  O         -3.3140  -32.1440  -42.5510 O.2   201  MET201     -0.2867
     23  CB        -0.5770  -30.7250  -41.5200 C.3   201  MET201      0.0387
     24  CG        -0.5730  -31.6510  -40.3630 C.3   201  MET201      0.0595
     25  SD         1.1170  -31.7390  -39.7780 S.3   201  MET201     -0.1393
     26  CE         1.0560  -30.6360  -38.3780 C.3   201  MET201      0.0692
     27  N         -0.7060  -33.9580  -45.9530 N.3   203  PHE203     -0.1241
     28  CA         0.4760  -34.5350  -46.6130 C.3   203  PHE203      0.1605
     29  C         -0.0030  -34.9060  -47.9710 C.2   203  PHE203      0.2264
     30  O         -1.0350  -35.5650  -48.0940 O.2   203  PHE203     -0.2867
     31  CB         0.9920  -35.7650  -45.8590 C.3   203  PHE203      0.0534
     32  CG         1.5820  -35.4500  -44.4660 C.ar  203  PHE203     -0.0203
     33  CD1        0.7770  -35.4500  -43.3190 C.ar  203  PHE203     -0.0042
     34  CD2        2.9590  -35.1540  -44.3060 C.ar  203  PHE203     -0.0042
     35  CE1        1.2860  -35.1480  -42.0420 C.ar  203  PHE203     -0.0003
     36  CE2        3.4920  -34.8780  -43.0070 C.ar  203  PHE203     -0.0003
     37  CZ         2.6370  -34.8610  -41.8840 C.ar  203  PHE203     -0.0000
     38  N          4.3730  -31.5070  -46.8680 N.3   214  THR214     -0.1218
     39  CA         3.5410  -31.3320  -45.7100 C.3   214  THR214      0.1862
     40  C          3.0040  -29.9110  -45.7840 C.2   214  THR214      0.2287
     41  O          3.7860  -28.9540  -45.7750 O.2   214  THR214     -0.2866
     42  CB         4.3540  -31.4220  -44.4190 C.3   214  THR214      0.1770
     43  OG1        5.0160  -32.6620  -44.3890 O.3   214  THR214     -0.2211
     44  CG2        3.3590  -31.4660  -43.1870 C.3   214  THR214      0.0375
     45  N          0.7710  -26.9350  -44.0460 N.3   216  ILE216     -0.1245
     46  CA         0.4150  -26.6780  -42.5910 C.3   216  ILE216      0.1561
     47  C         -0.2450  -25.3290  -42.6070 C.2   216  ILE216      0.2260
     48  O          0.2510  -24.4190  -43.2580 O.2   216  ILE216     -0.2867
     49  CB         1.6970  -26.6270  -41.6810 C.3   216  ILE216      0.0252
     50  CG1        2.5630  -27.9130  -41.8540 C.3   216  ILE216      0.0019
     51  CG2        1.3810  -26.4880  -40.1960 C.3   216  ILE216      0.0019
     52  CD1        4.0520  -27.6700  -41.5450 C.3   216  ILE216      0.0001
     53  N          3.2430  -21.1590  -33.2490 N.3   226  GLN226     -0.1231
     54  CA         4.4670  -21.2710  -34.0400 C.3   226  GLN226      0.1698
     55  C          4.2180  -21.1030  -35.5170 C.2   226  GLN226      0.2592
     56  O          5.0470  -20.5380  -36.2130 O.2   226  GLN226     -0.2718
     57  CB         5.1580  -22.5780  -33.7390 C.3   226  GLN226      0.0381
     58  CG         4.3360  -23.7940  -34.1850 C.3   226  GLN226      0.0905
     59  CD         4.8810  -25.0930  -33.6760 C.2   226  GLN226      0.2608
     60  OE1        5.3160  -25.9400  -34.4670 O.2   226  GLN226     -0.2717
     61  NE2        4.9080  -25.2510  -32.3530 N.am  226  GLN226     -0.0878
     62  N          3.0930  -21.5590  -36.0600 N.am  227  ILE227     -0.1980
     63  CA         2.8580  -21.3330  -37.4740 C.3   227  ILE227      0.1595
     64  C          2.5610  -19.8490  -37.8500 C.2   227  ILE227      0.2287
     65  O          3.0230  -19.3550  -38.8860 O.2   227  ILE227     -0.2864
     66  CB         1.7660  -22.2860  -38.0580 C.3   227  ILE227      0.0276
     67  CG1        2.0240  -23.7560  -37.7590 C.3   227  ILE227      0.0022
     68  CG2        1.4960  -21.9950  -39.5480 C.3   227  ILE227      0.0022
     69  CD1        3.4130  -24.3180  -38.2000 C.3   227  ILE227      0.0001
     70  N          9.1060  -24.1330  -44.4610 N.3   240  GLN240     -0.1231
     71  CA         9.4880  -24.1380  -43.0250 C.3   240  GLN240      0.1698
     72  C         10.6580  -25.1220  -42.7930 C.2   240  GLN240      0.2592
     73  O         11.5970  -24.8240  -42.0200 O.2   240  GLN240     -0.2718
     74  CB         8.2580  -24.5100  -42.1830 C.3   240  GLN240      0.0381
     75  CG         8.4770  -24.4580  -40.6800 C.3   240  GLN240      0.0905
     76  CD         7.6790  -25.5060  -39.8890 C.2   240  GLN240      0.2608
     77  OE1        7.6640  -26.7030  -40.2070 O.2   240  GLN240     -0.2717
     78  NE2        7.1100  -25.0640  -38.7770 N.am  240  GLN240     -0.0878
     79  N         10.6420  -26.2870  -43.4880 N.am  241  HIS241     -0.1976
     80  CA        11.7800  -27.1880  -43.3280 C.3   241  HIS241      0.1656
     81  C         11.9690  -28.1420  -44.5060 C.2   241  HIS241      0.2291
     82  O         11.0190  -28.4390  -45.2540 O.2   241  HIS241     -0.2864
     83  CB        11.8210  -27.9750  -41.9520 C.3   241  HIS241      0.0771
     84  CG        10.6910  -28.9600  -41.7430 C.ar  241  HIS241      0.0820
     85  ND1        9.5540  -28.6440  -41.0360 N.ar  241  HIS241     -0.2267
     86  CD2       10.5920  -30.3010  -42.0390 C.ar  241  HIS241      0.1154
     87  CE1        8.7750  -29.7200  -40.9380 C.ar  241  HIS241      0.1986
     88  NE2        9.3900  -30.7390  -41.5310 N.ar  241  HIS241     -0.2212
     89  N         12.6150  -39.0150  -35.9190 N.3   301  GLN301     -0.1245
     90  CA        12.7450  -37.6450  -36.5000 C.3   301  GLN301      0.1566
     91  C         13.4720  -36.7310  -35.5080 C.2   301  GLN301      0.2260
     92  O         13.3960  -36.9530  -34.2810 O.2   301  GLN301     -0.2867
     93  CB        11.3350  -37.0780  -36.8290 C.3   301  GLN301      0.0367
     94  CG        10.7190  -37.7060  -38.1080 C.3   301  GLN301      0.0905
     95  CD         9.2440  -37.4160  -38.2370 C.2   301  GLN301      0.2608
     96  OE1        8.4220  -37.9790  -37.4710 O.2   301  GLN301     -0.2717
     97  NE2        8.8730  -36.4830  -39.1790 N.am  301  GLN301     -0.0878
     98  N         14.5080  -32.2210  -35.3500 N.3   303  PHE303     -0.1241
     99  CA        14.6740  -30.9170  -36.0060 C.3   303  PHE303      0.1605
    100  C         15.9650  -30.2320  -35.4720 C.2   303  PHE303      0.2264
    101  O         16.2710  -30.2450  -34.2690 O.2   303  PHE303     -0.2867
    102  CB        13.5190  -29.9910  -35.6110 C.3   303  PHE303      0.0534
    103  CG        12.2050  -30.2770  -36.2340 C.ar  303  PHE303     -0.0203
    104  CD1       12.0590  -31.1300  -37.3180 C.ar  303  PHE303     -0.0042
    105  CD2       11.0880  -29.6190  -35.7480 C.ar  303  PHE303     -0.0042
    106  CE1       10.7930  -31.2970  -37.9290 C.ar  303  PHE303     -0.0003
    107  CE2        9.8240  -29.7940  -36.3230 C.ar  303  PHE303     -0.0003
    108  CZ         9.6930  -30.6160  -37.4360 C.ar  303  PHE303     -0.0000
    109  N         15.3700  -31.0650  -41.0260 N.3   316  GLU316     -0.1245
    110  CA        14.9130  -32.2230  -40.2800 C.3   316  GLU316      0.1567
    111  C         15.7590  -33.3780  -40.7790 C.2   316  GLU316      0.2260
    112  O         16.0310  -33.4610  -42.0160 O.2   316  GLU316     -0.2867
    113  CB        13.4200  -32.4600  -40.6160 C.3   316  GLU316      0.0388
    114  CG        12.8860  -33.8230  -40.0020 C.3   316  GLU316      0.1160
    115  CD        11.4360  -34.1360  -40.4350 C.2   316  GLU316      0.3649
    116  OE1       10.5180  -33.2280  -40.6920 O.co2 316  GLU316     -0.2457
    117  OE2       11.1890  -35.3760  -40.5240 O.co2 316  GLU316     -0.2457
    118  N          3.7120  -40.7160  -41.6950 N.3   326  PHE326     -0.1241
    119  CA         4.1150  -39.8740  -40.5610 C.3   326  PHE326      0.1605
    120  C          3.4110  -40.3870  -39.3250 C.2   326  PHE326      0.2264
    121  O          2.4980  -41.1620  -39.4610 O.2   326  PHE326     -0.2867
    122  CB         3.7770  -38.4220  -40.9300 C.3   326  PHE326      0.0534
    123  CG         4.5780  -37.9790  -42.1540 C.ar  326  PHE326     -0.0203
    124  CD1        5.9190  -37.5380  -42.0030 C.ar  326  PHE326     -0.0042
    125  CD2        4.0790  -38.1960  -43.4440 C.ar  326  PHE326     -0.0042
    126  CE1        6.7060  -37.2240  -43.1220 C.ar  326  PHE326     -0.0003
    127  CE2        4.8790  -37.8910  -44.5760 C.ar  326  PHE326     -0.0003
    128  CZ         6.1910  -37.4010  -44.3950 C.ar  326  PHE326     -0.0000
    129  N          4.6000  -35.9320  -34.6820 N.3   331  ILE331     -0.1245
    130  CA         4.2370  -34.6320  -35.1810 C.3   331  ILE331      0.1561
    131  C          3.9900  -33.6980  -33.9920 C.2   331  ILE331      0.2260
    132  O          4.5280  -32.5870  -33.8990 O.2   331  ILE331     -0.2867
    133  CB         3.0150  -34.6750  -36.0890 C.3   331  ILE331      0.0252
    134  CG1        3.4390  -35.3420  -37.4170 C.3   331  ILE331      0.0019
    135  CG2        2.5860  -33.2420  -36.4030 C.3   331  ILE331      0.0019
    136  CD1        2.3200  -35.5380  -38.4360 C.3   331  ILE331      0.0001
    137  N          7.3650  -32.9450  -32.1310 N.3   334  LEU334     -0.1231
    138  CA         8.1470  -32.0150  -32.9630 C.3   334  LEU334      0.1693
    139  C          7.5680  -30.5810  -32.7950 C.2   334  LEU334      0.2591
    140  O          8.3140  -29.6570  -32.5450 O.2   334  LEU334     -0.2718
    141  CB         8.0930  -32.4570  -34.4350 C.3   334  LEU334      0.0284
    142  CG         8.9470  -33.6550  -34.7650 C.3   334  LEU334      0.0019
    143  CD1        8.5640  -34.1980  -36.1460 C.3   334  LEU334      0.0001
    144  CD2       10.4590  -33.2730  -34.6800 C.3   334  LEU334      0.0001
    145  N          6.2400  -30.4270  -32.8190 N.am  335  ALA335     -0.1980
    146  CA         5.6420  -29.1340  -32.5510 C.3   335  ALA335      0.1597
    147  C          5.9350  -28.6270  -31.1250 C.2   335  ALA335      0.2287
    148  O          6.0970  -27.4480  -30.9380 O.2   335  ALA335     -0.2864
    149  CB         4.1610  -29.1180  -32.8600 C.3   335  ALA335      0.0319
@<TRIPOS>BOND
     1    30    29    2
     2    29    28    1
     3     2     3    1
     4     2     1    1
     5     2     5    1
     6     3     4    2
     7    38    39    1
     8     5     6    1
     9    28    27    1
    10    28    31    1
    11    31    32    1
    12    40    41    2
    13    40    39    1
    14    39    42    1
    15     6     7   ar
    16     6     8   ar
    17    82    81    2
    18   127   128   ar
    19   127   125   ar
    20     7     9   ar
    21     8    10   ar
    22    81    80    1
    23    32    34   ar
    24    32    33   ar
    25    70    71    1
    26    42    43    1
    27    42    44    1
    28   128   126   ar
    29    34    36   ar
    30    45    46    1
    31    79    80    1
    32    79    72   am
    33   125   123   ar
    34    80    83    1
    35    33    35   ar
    36     9    10   ar
    37    48    47    2
    38   126   124   ar
    39    71    72    1
    40    71    74    1
    41    36    37   ar
    42    21    22    2
    43    21    20    1
    44    72    73    2
    45    47    46    1
    46    46    49    1
    47    74    75    1
    48   123   124   ar
    49   123   122    1
    50    35    37   ar
    51    86    84   ar
    52    86    88   ar
    53    20    23    1
    54    20    19    1
    55   112   111    2
    56    83    84    1
    57    50    49    1
    58    50    52    1
    59    84    85   ar
    60   118   119    1
    61    49    51    1
    62    88    87   ar
    63    23    24    1
    64    85    87   ar
    65   109   110    1
    66   122   119    1
    67   111   110    1
    68   116   115   ar
    69    75    76    1
    70   113   110    1
    71   113   114    1
    72   119   120    1
    73   117   115   ar
    74   115   114    1
    75    24    25    1
    76    77    76    2
    77    76    78   am
    78    25    26    1
    79    68    66    1
    80   121   120    2
    81    97    95   am
    82    65    64    2
    83   136   134    1
    84    95    94    1
    85    95    96    2
    86    69    67    1
    87    94    93    1
    88    66    67    1
    89    66    63    1
    90   106   108   ar
    91   106   104   ar
    92    64    63    1
    93    13    14    2
    94    13    12    1
    95    63    62    1
    96   108   107   ar
    97   134   133    1
    98   104   103   ar
    99    15    12    1
   100    15    16    1
   101    93    90    1
   102    12    11    1
   103    16    17    1
   104    90    89    1
   105    90    91    1
   106   135   133    1
   107    17    18    1
   108   107   105   ar
   109   103   105   ar
   110   103   102    1
   111    56    55    2
   112   143   142    1
   113   133   130    1
   114    62    55   am
   115    99   102    1
   116    99   100    1
   117    99    98    1
   118    55    54    1
   119    91    92    2
   120   100   101    2
   121   130   129    1
   122   130   131    1
   123   142   144    1
   124   142   141    1
   125    60    59    2
   126   141   138    1
   127    58    57    1
   128    58    59    1
   129    54    57    1
   130    54    53    1
   131   131   132    2
   132    59    61   am
   133   138   139    1
   134   138   137    1
   135   149   146    1
   136   145   139   am
   137   145   146    1
   138   139   140    2
   139   146   147    1
   140   147   148    2
