@<TRIPOS>MOLECULE
tmp/3zglA00.pdb
 134 126 0 0 0
SMALL
GASTEIGER

@<TRIPOS>ATOM
      1  N         45.1130   -5.5040   26.9850 N.3    12  CYS12      -0.1235
      2  CA        46.0570   -4.7530   27.7880 C.3    12  CYS12       0.1677
      3  C         46.0870   -5.3570   29.1800 C.2    12  CYS12       0.2270
      4  O         45.3240   -6.2600   29.5180 O.2    12  CYS12      -0.2867
      5  CB        45.5680   -3.3120   27.9100 C.3    12  CYS12       0.0956
      6  SG        43.9280   -3.2020   28.6440 S.3    12  CYS12      -0.0801
      7  N         45.2370   -4.1030   32.0970 N.3    14  GLY14      -0.1210
      8  CA        44.0850   -3.8280   32.9520 C.3    14  GLY14       0.1956
      9  C         42.9260   -4.7330   32.6220 C.2    14  GLY14       0.2611
     10  O         42.2310   -5.2130   33.5180 O.2    14  GLY14      -0.2717
     11  N         42.7480   -5.0010   31.3350 N.am   15  VAL15      -0.1979
     12  CA        41.6420   -5.8490   30.8450 C.3    15  VAL15       0.1595
     13  C         41.8860   -7.2990   31.2550 C.2    15  VAL15       0.2287
     14  O         41.0330   -7.9800   31.8370 O.2    15  VAL15      -0.2864
     15  CB        41.4610   -5.7240   29.3060 C.3    15  VAL15       0.0276
     16  CG1       40.7690   -6.9420   28.6990 C.3    15  VAL15       0.0022
     17  CG2       40.7160   -4.4330   28.9390 C.3    15  VAL15       0.0022
     18  N         34.6190   -5.3980   30.9550 N.3    40  VAL40      -0.1231
     19  CA        35.3090   -4.6850   29.8730 C.3    40  VAL40       0.1692
     20  C         34.2570   -4.5520   28.7940 C.2    40  VAL40       0.2592
     21  O         33.2830   -5.3250   28.7880 O.2    40  VAL40      -0.2718
     22  CB        36.5340   -5.4660   29.3520 C.3    40  VAL40       0.0266
     23  CG1       37.5500   -5.6730   30.4650 C.3    40  VAL40       0.0020
     24  CG2       36.1890   -6.8050   28.7390 C.3    40  VAL40       0.0020
     25  N         34.4210   -3.5950   27.8820 N.am   41  HIS41      -0.1976
     26  CA        33.4140   -3.3870   26.8180 C.3    41  HIS41       0.1656
     27  C         33.6920   -4.3400   25.6710 C.2    41  HIS41       0.2291
     28  O         34.0950   -3.9400   24.5870 O.2    41  HIS41      -0.2864
     29  CB        33.4430   -1.9250   26.3370 C.3    41  HIS41       0.0771
     30  CG        32.9140   -0.9450   27.3360 C.ar   41  HIS41       0.0820
     31  ND1       33.4440    0.3270   27.4870 N.ar   41  HIS41      -0.2267
     32  CD2       31.9570   -1.0660   28.2930 C.ar   41  HIS41       0.1154
     33  CE1       32.7840    0.9690   28.4280 C.ar   41  HIS41       0.1986
     34  NE2       31.8660    0.1520   28.9230 N.ar   41  HIS41      -0.2212
     35  N         36.4590   -2.6360   35.1220 N.3    73  ALA73      -0.1231
     36  CA        37.7500   -2.0690   34.8700 C.3    73  ALA73       0.1694
     37  C         37.8050   -0.5590   34.6520 C.2    73  ALA73       0.2592
     38  O         38.8970    0.0600   34.7560 O.2    73  ALA73      -0.2718
     39  CB        38.4260   -2.7960   33.7210 C.3    73  ALA73       0.0304
     40  N         36.6790    0.0390   34.3160 N.am   74  HIS74      -0.1976
     41  CA        36.5830    1.4540   34.0020 C.3    74  HIS74       0.1656
     42  C         36.5520    2.3080   35.2400 C.2    74  HIS74       0.2291
     43  O         36.7230    3.5160   35.1150 O.2    74  HIS74      -0.2864
     44  CB        35.2590    1.7160   33.2130 C.3    74  HIS74       0.0771
     45  CG        35.0600    0.7160   32.1190 C.ar   74  HIS74       0.0820
     46  ND1       34.3890   -0.4720   32.3000 N.ar   74  HIS74      -0.2267
     47  CD2       35.5120    0.7010   30.8500 C.ar   74  HIS74       0.1154
     48  CE1       34.4970   -1.1970   31.2060 C.ar   74  HIS74       0.1986
     49  NE2       35.1370   -0.4890   30.2970 N.ar   74  HIS74      -0.2212
     50  N         41.2050   -0.6700   36.7010 N.3    96  CYS96      -0.1235
     51  CA        42.5970   -0.7300   36.2540 C.3    96  CYS96       0.1677
     52  C         43.4350    0.2100   37.1230 C.2    96  CYS96       0.2270
     53  O         43.0050    1.3060   37.4160 O.2    96  CYS96      -0.2867
     54  CB        42.7380   -0.3300   34.7780 C.3    96  CYS96       0.0956
     55  SG        44.4770   -0.3300   34.2800 S.3    96  CYS96      -0.0801
     56  N         43.7040    3.7710   35.8120 N.3    99  VAL99      -0.1245
     57  CA        42.5290    4.5970   36.0850 C.3    99  VAL99       0.1561
     58  C         42.6040    5.1240   37.5070 C.2    99  VAL99       0.2260
     59  O         42.3470    6.3320   37.7690 O.2    99  VAL99      -0.2867
     60  CB        41.2300    3.8170   35.8800 C.3    99  VAL99       0.0252
     61  CG1       40.0330    4.6110   36.3820 C.3    99  VAL99       0.0019
     62  CG2       41.0350    3.4640   34.4170 C.3    99  VAL99       0.0019
     63  N         30.5080    8.2870   29.3540 N.3   124  HIS124     -0.1241
     64  CA        31.3100    7.0790   29.4450 C.3   124  HIS124      0.1621
     65  C         31.5530    6.7130   30.9210 C.2   124  HIS124      0.2264
     66  O         31.8190    7.5870   31.7610 O.2   124  HIS124     -0.2867
     67  CB        32.6170    7.2740   28.7140 C.3   124  HIS124      0.0745
     68  CG        33.4210    6.0240   28.5910 C.ar  124  HIS124      0.0817
     69  ND1       34.1870    5.5150   29.6260 N.ar  124  HIS124     -0.2268
     70  CD2       33.5830    5.1760   27.5590 C.ar  124  HIS124      0.1154
     71  CE1       34.7530    4.3940   29.2410 C.ar  124  HIS124      0.1986
     72  NE2       34.4320    4.1800   27.9780 N.ar  124  HIS124     -0.2212
     73  N         34.0780    5.5470   32.5270 N.3   126  GLU126     -0.1245
     74  CA        35.3290    6.0140   33.1500 C.3   126  GLU126      0.1567
     75  C         35.1970    7.4840   33.5330 C.2   126  GLU126      0.2260
     76  O         35.6450    7.8910   34.5880 O.2   126  GLU126     -0.2867
     77  CB        36.5560    5.7640   32.2640 C.3   126  GLU126      0.0388
     78  CG        37.8360    6.2530   32.9050 C.3   126  GLU126      0.1160
     79  CD        39.0530    6.1730   31.9940 C.2   126  GLU126      0.3649
     80  OE1       39.1450    5.2500   31.1520 O.co2 126  GLU126     -0.2457
     81  OE2       39.8910    7.0720   32.0880 O.co2 126  GLU126     -0.2457
     82  N         41.6130    7.6880   29.8570 N.3   167  THR167     -0.1203
     83  CA        42.8200    6.8710   29.5780 C.3   167  THR167      0.1994
     84  C         42.8730    6.4050   28.1290 C.2   167  THR167      0.2618
     85  O         43.9030    5.9220   27.6810 O.2   167  THR167     -0.2717
     86  CB        42.8770    5.6270   30.4970 C.3   167  THR167      0.1784
     87  OG1       41.6660    4.8730   30.3810 O.3   167  THR167     -0.2211
     88  CG2       43.1020    5.9970   31.9230 C.3   167  THR167      0.0376
     89  N         41.7360    6.4900   27.4190 N.am  168  THR168     -0.1952
     90  CA        41.5110    5.8440   26.1350 C.3   168  THR168      0.1897
     91  C         41.2800    6.8100   24.9760 C.2   168  THR168      0.2313
     92  O         40.8030    6.4220   23.9010 O.2   168  THR168     -0.2863
     93  CB        40.3140    4.8890   26.1950 C.3   168  THR168      0.1794
     94  OG1       39.1630    5.6100   26.6130 O.3   168  THR168     -0.2208
     95  CG2       40.5490    3.7290   27.1360 C.3   168  THR168      0.0378
     96  N         30.6530   -0.1260   22.0350 N.3   224  ASN224     -0.1225
     97  CA        30.7310    0.7140   23.1990 C.3   224  ASN224      0.1785
     98  C         32.1840    0.7900   23.7760 C.2   224  ASN224      0.2598
     99  O         32.4100    1.3450   24.8290 O.2   224  ASN224     -0.2718
    100  CB        29.7380    0.2440   24.2380 C.3   224  ASN224      0.1169
    101  CG        30.0600   -1.1420   24.7730 C.2   224  ASN224      0.2627
    102  OD1       30.7630   -1.9150   24.1310 O.2   224  ASN224     -0.2716
    103  ND2       29.5330   -1.4610   25.9370 N.am  224  ASN224     -0.0877
    104  N         33.1350    0.2180   23.0710 N.am  225  SER225     -0.1938
    105  CA        34.5650    0.3260   23.4510 C.3   225  SER225      0.2055
    106  C         35.1420    1.6150   22.9050 C.2   225  SER225      0.2644
    107  O         35.3600    1.7380   21.6710 O.2   225  SER225     -0.2714
    108  CB        35.3550   -0.8460   22.9320 C.3   225  SER225      0.2130
    109  OG        36.7550   -0.6690   23.1620 O.3   225  SER225     -0.2179
    110  N         35.4000    2.5610   23.8020 N.am  226  SER226     -0.1935
    111  CA        35.9440    3.8500   23.3900 C.3   226  SER226      0.2055
    112  C         37.3180    3.7140   22.7460 C.2   226  SER226      0.2643
    113  O         37.5820    4.3060   21.6930 O.2   226  SER226     -0.2714
    114  CB        35.9370    4.8350   24.5520 C.3   226  SER226      0.2130
    115  OG        36.0090    6.1640   24.0600 O.3   226  SER226     -0.2179
    116  N         38.2040    2.9480   23.3600 N.am  227  ASN227     -0.1971
    117  CA        39.5390    2.7950   22.7610 C.3   227  ASN227      0.1688
    118  C         39.4580    2.1460   21.3880 C.2   227  ASN227      0.2292
    119  O         40.2290    2.5340   20.4930 O.2   227  ASN227     -0.2864
    120  CB        40.4940    2.0670   23.6840 C.3   227  ASN227      0.1181
    121  CG        40.3150    0.5630   23.6820 C.2   227  ASN227      0.2629
    122  OD1       40.9780   -0.1640   22.9160 O.2   227  ASN227     -0.2716
    123  ND2       39.5570    0.0770   24.6040 N.am  227  ASN227     -0.0877
    124  N         41.5600   -2.8710   23.1780 N.3   268  ALA268     -0.1231
    125  CA        42.1990   -3.3700   24.3780 C.3   268  ALA268      0.1694
    126  C         41.3950   -4.4540   25.1110 C.2   268  ALA268      0.2592
    127  O         41.9220   -5.1460   25.9730 O.2   268  ALA268     -0.2718
    128  CB        42.4940   -2.2070   25.2990 C.3   268  ALA268      0.0304
    129  N         40.1140   -4.5520   24.7750 N.am  269  SER269     -0.1952
    130  CA        39.1700   -5.4730   25.4310 C.3   269  SER269      0.1924
    131  C         38.7540   -6.6970   24.5760 C.2   269  SER269      0.2314
    132  O         37.9340   -7.5260   25.0300 O.2   269  SER269     -0.2863
    133  CB        37.9070   -4.6870   25.8280 C.3   269  SER269      0.2116
    134  OG        37.3730   -3.9610   24.7020 O.3   269  SER269     -0.2180
@<TRIPOS>BOND
     1   119   118    2
     2   118   117    1
     3   107   106    2
     4   113   112    2
     5    96    97    1
     6   112   116   am
     7   112   111    1
     8   117   116    1
     9   117   120    1
    10   106   105    1
    11   106   110   am
    12   122   121    2
    13   108   109    1
    14   108   105    1
    15   104   105    1
    16   104    98   am
    17   124   125    1
    18    97    98    1
    19    97   100    1
    20   111   110    1
    21   111   114    1
    22   121   120    1
    23   121   123   am
    24    98    99    2
    25    92    91    2
    26   115   114    1
    27   102   101    2
    28   100   101    1
    29   125   126    1
    30   125   128    1
    31   131   132    2
    32   131   130    1
    33    28    27    2
    34   134   133    1
    35   101   103   am
    36   129   126   am
    37   129   130    1
    38    91    90    1
    39   126   127    2
    40   130   133    1
    41    27    26    1
    42    90    93    1
    43    90    89    1
    44    93    94    1
    45    93    95    1
    46    29    26    1
    47    29    30    1
    48    26    25    1
    49     1     2    1
    50    30    31   ar
    51    30    32   ar
    52    89    84   am
    53    31    33   ar
    54    70    72   ar
    55    70    68   ar
    56    85    84    2
    57     2     5    1
    58     2     3    1
    59    25    20   am
    60     5     6    1
    61    72    71   ar
    62    84    83    1
    63    32    34   ar
    64    33    34   ar
    65    68    67    1
    66    68    69   ar
    67    16    15    1
    68    67    64    1
    69    24    22    1
    70    21    20    2
    71    20    19    1
    72    17    15    1
    73     3     4    2
    74    71    69   ar
    75    15    12    1
    76    22    19    1
    77    22    23    1
    78    63    64    1
    79    64    65    1
    80    83    82    1
    81    83    86    1
    82    19    18    1
    83    49    47   ar
    84    49    48   ar
    85    87    86    1
    86    86    88    1
    87    12    13    1
    88    12    11    1
    89    47    45   ar
    90    65    66    2
    91    80    79   ar
    92    48    46   ar
    93    13    14    2
    94    11     9   am
    95    79    81   ar
    96    79    78    1
    97     7     8    1
    98    45    46   ar
    99    45    44    1
   100    77    78    1
   101    77    74    1
   102    73    74    1
   103     9     8    1
   104     9    10    2
   105    74    75    1
   106    44    41    1
   107    75    76    2
   108    39    36    1
   109    41    40    1
   110    41    42    1
   111    55    54    1
   112    40    37   am
   113    62    60    1
   114    37    38    2
   115    37    36    1
   116    54    51    1
   117    36    35    1
   118    43    42    2
   119    56    57    1
   120    60    57    1
   121    60    61    1
   122    57    58    1
   123    51    50    1
   124    51    52    1
   125    52    53    2
   126    58    59    2
