@<TRIPOS>MOLECULE
tmp/3zgoA00.pdb
 85 81 0 0 0
SMALL
GASTEIGER

@<TRIPOS>ATOM
      1  N         34.4900   28.3010   42.9320 N.3   115  ARG115     -0.1245
      2  CA        34.0630   28.2830   44.3340 C.3   115  ARG115      0.1563
      3  C         34.9690   29.1460   45.2270 C.2   115  ARG115      0.2260
      4  O         34.4660   29.8780   46.0530 O.2   115  ARG115     -0.2867
      5  CB        34.0200   26.8310   44.8240 C.3   115  ARG115      0.0307
      6  CG        33.8940   26.6330   46.2940 C.3   115  ARG115      0.0489
      7  CD        32.6520   27.2320   46.8630 C.3   115  ARG115      0.2205
      8  NE        32.5670   26.9570   48.2840 N.pl3 115  ARG115     -0.0865
      9  CZ        32.3240   25.7550   48.8240 C.cat 115  ARG115      0.5346
     10  NH1       31.8480   24.7700   48.1130 N.pl3 115  ARG115      0.1354
     11  NH2       32.3700   25.6000   50.1690 N.pl3 115  ARG115      0.1354
     12  N         33.9370   32.7200   44.7630 N.3   118  LYS118     -0.1245
     13  CA        32.7590   32.9860   45.5540 C.3   118  LYS118      0.1561
     14  C         33.1360   33.1780   47.0440 C.2   118  LYS118      0.2260
     15  O         32.7500   34.1990   47.6310 O.2   118  LYS118     -0.2867
     16  CB        31.7730   31.8710   45.4020 C.3   118  LYS118      0.0271
     17  CG        30.6030   31.8910   46.3980 C.3   118  LYS118      0.0035
     18  CD        29.7190   30.6530   46.2170 C.3   118  LYS118      0.0206
     19  CE        28.5110   30.5880   47.1370 C.3   118  LYS118      0.1093
     20  NZ        27.6890   31.8160   47.0600 N.3   118  LYS118     -0.1314
     21  N         26.8540   23.9930   40.6360 N.3   136  ARG136     -0.1231
     22  CA        26.0570   23.9040   41.8440 C.3   136  ARG136      0.1694
     23  C         26.6820   22.8740   42.7980 C.2   136  ARG136      0.2592
     24  O         26.7680   23.0880   44.0170 O.2   136  ARG136     -0.2718
     25  CB        24.6480   23.4920   41.5430 C.3   136  ARG136      0.0321
     26  CG        23.8590   24.6450   40.9420 C.3   136  ARG136      0.0489
     27  CD        22.6020   24.1570   40.3270 C.3   136  ARG136      0.2205
     28  NE        21.8340   25.2400   39.7490 N.pl3 136  ARG136     -0.0865
     29  CZ        20.8840   25.9500   40.3730 C.cat 136  ARG136      0.5346
     30  NH1       20.4870   25.6470   41.5870 N.pl3 136  ARG136      0.1354
     31  NH2       20.1890   26.8510   39.6450 N.pl3 136  ARG136      0.1354
     32  N         27.1630   21.7760   42.2370 N.am  137  ILE137     -0.1966
     33  CA        27.7200   20.7340   43.0900 C.3   137  ILE137      0.1727
     34  C         28.9840   21.2290   43.7800 C.2   137  ILE137      0.2616
     35  O         29.2720   20.8860   44.9610 O.2   137  ILE137     -0.2715
     36  CB        27.9850   19.4220   42.3100 C.3   137  ILE137      0.0290
     37  CG1       26.6390   18.7830   41.8900 C.3   137  ILE137      0.0022
     38  CG2       28.8270   18.4550   43.1600 C.3   137  ILE137      0.0023
     39  CD1       26.7040   17.7620   40.7790 C.3   137  ILE137      0.0001
     40  N         29.7220   22.1210   43.1170 N.am  138  ALA138     -0.1963
     41  CA        30.9090   22.7390   43.6510 C.3   138  ALA138      0.1728
     42  C         30.6310   23.8320   44.7120 C.2   138  ALA138      0.2617
     43  O         31.5580   24.3000   45.3580 O.2   138  ALA138     -0.2715
     44  CB        31.7420   23.3690   42.5300 C.3   138  ALA138      0.0334
     45  N         29.3700   24.2350   44.8050 N.am  139  GLY139     -0.1940
     46  CA        28.9000   25.1370   45.7990 C.3   139  GLY139      0.2014
     47  C         28.5310   26.4950   45.3200 C.2   139  GLY139      0.2639
     48  O         28.2300   27.3690   46.1580 O.2   139  GLY139     -0.2714
     49  N         28.5200   26.7430   44.0030 N.am  140  LEU140     -0.1963
     50  CA        27.9550   28.0320   43.5680 C.3   140  LEU140      0.1728
     51  C         26.4470   27.9230   43.7190 C.2   140  LEU140      0.2616
     52  O         25.8380   26.9130   43.4080 O.2   140  LEU140     -0.2715
     53  CB        28.2700   28.3280   42.0880 C.3   140  LEU140      0.0311
     54  CG        29.7140   28.5320   41.7180 C.3   140  LEU140      0.0022
     55  CD1       29.9060   29.1030   40.3220 C.3   140  LEU140      0.0001
     56  CD2       30.5470   29.2080   42.7400 C.3   140  LEU140      0.0001
     57  N         25.8360   28.9830   44.2120 N.am  141  GLU141     -0.1977
     58  CA        24.4150   29.0650   44.4510 C.3   141  GLU141      0.1602
     59  C         23.6830   29.7050   43.3110 C.2   141  GLU141      0.2287
     60  O         24.2960   30.2910   42.3920 O.2   141  GLU141     -0.2864
     61  CB        24.1850   29.9270   45.6960 C.3   141  GLU141      0.0415
     62  CG        24.8380   29.3620   46.9090 C.3   141  GLU141      0.1163
     63  CD        24.6520   30.2040   48.1640 C.2   141  GLU141      0.3649
     64  OE1       23.6680   30.0090   48.8870 O.co2 141  GLU141     -0.2457
     65  OE2       25.5360   31.0180   48.5070 O.co2 141  GLU141     -0.2457
     66  N         38.7770   17.6970   49.7040 N.3   309  ARG309     -0.1231
     67  CA        37.7410   17.6510   50.7190 C.3   309  ARG309      0.1694
     68  C         36.3940   17.3900   50.0950 C.2   309  ARG309      0.2591
     69  O         35.6370   16.5400   50.5400 O.2   309  ARG309     -0.2718
     70  CB        37.6430   18.9480   51.5000 C.3   309  ARG309      0.0321
     71  CG        36.4840   18.9600   52.5090 C.3   309  ARG309      0.0489
     72  CD        36.4430   20.2770   53.3050 C.3   309  ARG309      0.2205
     73  NE        35.5960   21.2290   52.6240 N.pl3 309  ARG309     -0.0865
     74  CZ        35.9690   22.4160   52.1570 C.cat 309  ARG309      0.5346
     75  NH1       37.1650   22.9150   52.4290 N.pl3 309  ARG309      0.1354
     76  NH2       35.0930   23.1440   51.4690 N.pl3 309  ARG309      0.1354
     77  N         36.1110   18.1400   49.0240 N.am  310  GLU310     -0.1979
     78  CA        34.8350   18.0330   48.3850 C.3   310  GLU310      0.1602
     79  C         34.6860   16.7310   47.6130 C.2   310  GLU310      0.2287
     80  O         33.6700   16.1110   47.7060 O.2   310  GLU310     -0.2864
     81  CB        34.6000   19.2000   47.4240 C.3   310  GLU310      0.0415
     82  CG        34.3670   20.5250   48.1390 C.3   310  GLU310      0.1163
     83  CD        33.1720   20.4700   49.0780 C.2   310  GLU310      0.3649
     84  OE1       32.0420   20.0550   48.6720 O.co2 310  GLU310     -0.2457
     85  OE2       33.3560   20.8890   50.2300 O.co2 310  GLU310     -0.2457
@<TRIPOS>BOND
     1    31    29    1
     2    28    27    1
     3    28    29    2
     4    55    54    1
     5    27    26    1
     6    29    30    1
     7    21    22    1
     8    39    37    1
     9    26    25    1
    10    25    22    1
    11    54    53    1
    12    54    56    1
    13    22    23    1
    14    37    36    1
    15    53    50    1
    16    32    23   am
    17    32    33    1
    18    36    33    1
    19    36    38    1
    20    60    59    2
    21    44    41    1
    22    23    24    2
    23     1     2    1
    24    33    34    1
    25    40    41    1
    26    40    34   am
    27    59    58    1
    28    52    51    2
    29    50    51    1
    30    50    49    1
    31    41    42    1
    32    51    57   am
    33    34    35    2
    34    49    47   am
    35    57    58    1
    36     2     5    1
    37     2     3    1
    38    58    61    1
    39    42    45   am
    40    42    43    2
    41    12    13    1
    42    45    46    1
    43     5     6    1
    44     3     4    2
    45    47    46    1
    46    47    48    2
    47    16    13    1
    48    16    17    1
    49    13    14    1
    50    61    62    1
    51    18    17    1
    52    18    19    1
    53     6     7    1
    54     7     8    1
    55    62    63    1
    56    14    15    2
    57    20    19    1
    58    81    82    1
    59    81    78    1
    60    79    80    2
    61    79    78    1
    62    10     9    1
    63    82    83    1
    64    63    65   ar
    65    63    64   ar
    66     8     9    2
    67    78    77    1
    68    84    83   ar
    69     9    11    1
    70    77    68   am
    71    83    85   ar
    72    66    67    1
    73    68    69    2
    74    68    67    1
    75    67    70    1
    76    76    74    1
    77    70    71    1
    78    74    75    1
    79    74    73    2
    80    71    72    1
    81    73    72    1
