@<TRIPOS>MOLECULE
tmp/3zgoC00.pdb
 98 94 0 0 0
SMALL
GASTEIGER

@<TRIPOS>ATOM
      1  N         79.0320   32.0550    7.1380 N.3    97  TYR97      -0.1241
      2  CA        79.2630   32.7150    8.4270 C.3    97  TYR97       0.1605
      3  C         79.1500   34.2540    8.3680 C.2    97  TYR97       0.2264
      4  O         78.7590   34.9070    9.3390 O.2    97  TYR97      -0.2867
      5  CB        80.5680   32.2470    9.0490 C.3    97  TYR97       0.0534
      6  CG        80.5070   30.8010    9.4610 C.ar   97  TYR97      -0.0201
      7  CD1       79.7090   30.4280   10.5040 C.ar   97  TYR97      -0.0009
      8  CD2       81.2160   29.8260    8.7540 C.ar   97  TYR97      -0.0009
      9  CE1       79.5550   29.0670   10.8070 C.ar   97  TYR97       0.0417
     10  CE2       81.1590   28.4850    9.1070 C.ar   97  TYR97       0.0417
     11  CZ        80.3010   28.1440   10.1650 C.ar   97  TYR97       0.1957
     12  OH        80.2180   26.7790   10.4070 O.3    97  TYR97      -0.2866
     13  N         75.6190   34.6340    8.9360 N.3   100  ARG100     -0.1245
     14  CA        75.4410   34.4460   10.3910 C.3   100  ARG100      0.1563
     15  C         75.7170   35.7620   11.1400 C.2   100  ARG100      0.2260
     16  O         75.0220   36.1070   12.0950 O.2   100  ARG100     -0.2867
     17  CB        76.3210   33.2840   10.9060 C.3   100  ARG100      0.0307
     18  CG        76.4520   33.2480   12.4160 C.3   100  ARG100      0.0489
     19  CD        75.1820   32.8420   13.0740 C.3   100  ARG100      0.2205
     20  NE        75.3640   32.6590   14.5200 N.pl3 100  ARG100     -0.0865
     21  CZ        75.8040   31.5440   15.1080 C.cat 100  ARG100      0.5346
     22  NH1       76.1170   30.4410   14.4340 N.pl3 100  ARG100      0.1354
     23  NH2       75.9350   31.5160   16.4650 N.pl3 100  ARG100      0.1354
     24  N         72.8980   38.1160   10.6690 N.3   103  LYS103     -0.1245
     25  CA        71.8040   37.7170   11.5620 C.3   103  LYS103      0.1561
     26  C         72.0790   38.2360   12.9640 C.2   103  LYS103      0.2260
     27  O         71.2000   38.8530   13.5950 O.2   103  LYS103     -0.2867
     28  CB        71.7040   36.2180   11.5420 C.3   103  LYS103      0.0271
     29  CG        70.6980   35.6220   12.5300 C.3   103  LYS103      0.0035
     30  CD        70.7390   34.1460   12.5670 C.3   103  LYS103      0.0206
     31  CE        69.9430   33.5340   13.7100 C.3   103  LYS103      0.1093
     32  NZ        68.4720   33.8790   13.6490 N.3   103  LYS103     -0.1314
     33  N         71.7610   26.6430    7.3630 N.3   121  ARG121     -0.1231
     34  CA        71.2710   26.1950    8.6250 C.3   121  ARG121      0.1694
     35  C         72.4210   25.7240    9.5050 C.2   121  ARG121      0.2592
     36  O         72.4490   26.0210   10.7180 O.2   121  ARG121     -0.2718
     37  CB        70.2540   25.0900    8.4160 C.3   121  ARG121      0.0321
     38  CG        68.9470   25.6680    7.9230 C.3   121  ARG121      0.0489
     39  CD        68.0150   24.5710    7.7210 C.3   121  ARG121      0.2205
     40  NE        66.7810   24.9900    7.0800 N.pl3 121  ARG121     -0.0865
     41  CZ        65.5880   24.8920    7.6380 C.cat 121  ARG121      0.5346
     42  NH1       65.4920   24.4890    8.9030 N.pl3 121  ARG121      0.1354
     43  NH2       64.5180   25.2160    6.8960 N.pl3 121  ARG121      0.1354
     44  N         73.3870   25.0150    8.9130 N.am  122  ILE122     -0.1966
     45  CA        74.4610   24.5040    9.6660 C.3   122  ILE122      0.1727
     46  C         75.2830   25.6770   10.2560 C.2   122  ILE122      0.2616
     47  O         75.8040   25.5930   11.3890 O.2   122  ILE122     -0.2715
     48  CB        75.2930   23.5220    8.8660 C.3   122  ILE122      0.0290
     49  CG1       74.4780   22.2480    8.6010 C.3   122  ILE122      0.0022
     50  CG2       76.6220   23.2190    9.5580 C.3   122  ILE122      0.0023
     51  CD1       75.0760   21.3650    7.5830 C.3   122  ILE122      0.0001
     52  N         75.3450   26.7990    9.5450 N.am  123  ALA123     -0.1963
     53  CA        76.0460   28.0070   10.0040 C.3   123  ALA123      0.1728
     54  C         75.2870   28.8170   11.0600 C.2   123  ALA123      0.2617
     55  O         75.8280   29.7450   11.6330 O.2   123  ALA123     -0.2715
     56  CB        76.3830   28.9500    8.8530 C.3   123  ALA123      0.0334
     57  N         74.0380   28.4730   11.2520 N.am  124  GLY124     -0.1940
     58  CA        73.2180   29.0000   12.3040 C.3   124  GLY124      0.2014
     59  C         72.0620   29.8790   11.8950 C.2   124  GLY124      0.2639
     60  O         71.4370   30.4890   12.7820 O.2   124  GLY124     -0.2714
     61  N         71.7690   29.9950   10.6080 N.am  125  LEU125     -0.1963
     62  CA        70.5470   30.6430   10.2170 C.3   125  LEU125      0.1728
     63  C         69.4480   29.6670   10.6050 C.2   125  LEU125      0.2616
     64  O         69.5980   28.4350   10.5280 O.2   125  LEU125     -0.2715
     65  CB        70.5130   30.9360    8.7360 C.3   125  LEU125      0.0311
     66  CG        71.0400   32.2930    8.3040 C.3   125  LEU125      0.0022
     67  CD1       72.2250   32.7820    9.0210 C.3   125  LEU125      0.0001
     68  CD2       71.0780   32.5210    6.8050 C.3   125  LEU125      0.0001
     69  N         68.3710   30.2390   11.0610 N.am  126  GLU126     -0.1977
     70  CA        67.1920   29.5040   11.4680 C.3   126  GLU126      0.1602
     71  C         66.1950   29.3670   10.3330 C.2   126  GLU126      0.2287
     72  O         66.2750   30.0340    9.3170 O.2   126  GLU126     -0.2864
     73  CB        66.5870   30.1940   12.6550 C.3   126  GLU126      0.0415
     74  CG        67.5360   30.2480   13.7970 C.3   126  GLU126      0.1163
     75  CD        66.9730   30.8270   15.0490 C.2   126  GLU126      0.3649
     76  OE1       66.4690   30.0260   15.8590 O.co2 126  GLU126     -0.2457
     77  OE2       67.1990   32.0220   15.3410 O.co2 126  GLU126     -0.2457
     78  N         67.1380   19.5680    5.9340 N.3   138  TYR138     -0.1241
     79  CA        67.2200   19.6580    7.4030 C.3   138  TYR138      0.1605
     80  C         66.0360   18.9950    8.0370 C.2   138  TYR138      0.2264
     81  O         66.1400   18.3970    9.1230 O.2   138  TYR138     -0.2867
     82  CB        67.3310   21.1460    7.7930 C.3   138  TYR138      0.0534
     83  CG        67.8370   21.3120    9.1760 C.ar  138  TYR138     -0.0201
     84  CD1       66.9680   21.1810   10.2300 C.ar  138  TYR138     -0.0009
     85  CD2       69.1740   21.3750    9.4140 C.ar  138  TYR138     -0.0009
     86  CE1       67.4250   21.3280   11.5520 C.ar  138  TYR138      0.0417
     87  CE2       69.6560   21.5050   10.7390 C.ar  138  TYR138      0.0417
     88  CZ        68.7530   21.4850   11.7650 C.ar  138  TYR138      0.1957
     89  OH        69.1510   21.5360   13.0780 O.3   138  TYR138     -0.2866
     90  N         83.3190   27.6750   14.8520 N.3   295  GLU295     -0.1245
     91  CA        82.1790   26.8130   14.4280 C.3   295  GLU295      0.1567
     92  C         82.6450   25.5880   13.6720 C.2   295  GLU295      0.2260
     93  O         82.0410   24.5360   13.8240 O.2   295  GLU295     -0.2867
     94  CB        81.1920   27.6000   13.5930 C.3   295  GLU295      0.0388
     95  CG        80.5550   28.7180   14.4330 C.3   295  GLU295      0.1160
     96  CD        79.7410   28.2090   15.6220 C.2   295  GLU295      0.3649
     97  OE1       79.5000   26.9830   15.8000 O.co2 295  GLU295     -0.2457
     98  OE2       79.3920   29.0370   16.4830 O.co2 295  GLU295     -0.2457
@<TRIPOS>BOND
     1    78    79    1
     2    68    66    1
     3    43    41    1
     4    40    41    2
     5    40    39    1
     6     1     2    1
     7    33    34    1
     8    79    82    1
     9    79    80    1
    10    51    49    1
    11    41    42    1
    12    39    38    1
    13    82    83    1
    14    38    37    1
    15    80    81    2
    16    66    65    1
    17    66    67    1
    18     3     2    1
    19     3     4    2
    20    37    34    1
    21     2     5    1
    22    49    48    1
    23    34    35    1
    24    65    62    1
    25     8    10   ar
    26     8     6   ar
    27    56    53    1
    28    48    50    1
    29    48    45    1
    30    44    35   am
    31    44    45    1
    32    13    14    1
    33     5     6    1
    34    10    11   ar
    35    83    85   ar
    36    83    84   ar
    37    72    71    2
    38    85    87   ar
    39     6     7   ar
    40    35    36    2
    41    52    53    1
    42    52    46   am
    43    45    46    1
    44    53    54    1
    45    11    12    1
    46    11     9   ar
    47    62    63    1
    48    62    61    1
    49    84    86   ar
    50    46    47    2
    51    71    70    1
    52    14    17    1
    53    14    15    1
    54     7     9   ar
    55    64    63    2
    56    63    69   am
    57    61    59   am
    58    24    25    1
    59    87    88   ar
    60    17    18    1
    61    54    57   am
    62    54    55    2
    63    69    70    1
    64    15    16    2
    65    57    58    1
    66    70    73    1
    67    28    25    1
    68    28    29    1
    69    86    88   ar
    70    25    26    1
    71    88    89    1
    72    59    58    1
    73    59    60    2
    74    18    19    1
    75    29    30    1
    76    30    31    1
    77    73    74    1
    78    26    27    2
    79    19    20    1
    80    94    91    1
    81    94    95    1
    82    32    31    1
    83    92    93    2
    84    92    91    1
    85    74    75    1
    86    91    90    1
    87    95    96    1
    88    22    21    1
    89    20    21    2
    90    75    77   ar
    91    75    76   ar
    92    21    23    1
    93    96    97   ar
    94    96    98   ar
