@<TRIPOS>MOLECULE
tmp/3zgpA00.pdb
 150 147 0 0 0
SMALL
GASTEIGER

@<TRIPOS>ATOM
      1  N         -6.5700   -9.1840   -3.0190 N.3    56  LEU56      -0.1231
      2  CA        -6.9230   -8.4200   -1.8340 C.3    56  LEU56       0.1693
      3  C         -8.3160   -8.7150   -1.3650 C.2    56  LEU56       0.2592
      4  O         -9.2860   -8.0720   -1.7570 O.2    56  LEU56      -0.2718
      5  CB        -6.7970   -6.9610   -2.1630 C.3    56  LEU56       0.0284
      6  CG        -5.4120   -6.3550   -2.0640 C.3    56  LEU56       0.0019
      7  CD1       -4.3850   -7.3130   -2.5940 C.3    56  LEU56       0.0001
      8  CD2       -5.3770   -5.0950   -2.8780 C.3    56  LEU56       0.0001
      9  N         -8.3850   -9.6970   -0.5410 N.am   57  LYS57      -0.1966
     10  CA        -9.6150  -10.1120    0.0700 C.3    57  LYS57       0.1728
     11  C         -9.7680   -9.6420    1.4830 C.2    57  LYS57       0.2617
     12  O         -8.9230   -8.9230    2.0230 O.2    57  LYS57      -0.2715
     13  CB        -9.6020  -11.5780    0.0250 C.3    57  LYS57       0.0311
     14  CG        -9.5920  -12.0250   -1.3600 C.3    57  LYS57       0.0038
     15  CD       -10.0820  -13.3760   -1.4190 C.3    57  LYS57       0.0206
     16  CE        -9.4580  -13.9710   -2.6020 C.3    57  LYS57       0.1093
     17  NZ        -9.7820  -15.4100   -2.7860 N.3    57  LYS57      -0.1314
     18  N        -10.8870  -10.0160    2.0570 N.am   58  GLY58      -0.1940
     19  CA       -11.1700   -9.6110    3.3980 C.3    58  GLY58       0.2014
     20  C        -12.6010   -9.2060    3.5610 C.2    58  GLY58       0.2640
     21  O        -13.4410   -9.5280    2.7170 O.2    58  GLY58      -0.2714
     22  N        -12.8890   -8.4750    4.6180 N.am   59  THR59      -0.1936
     23  CA       -14.1970   -7.9100    4.7700 C.3    59  THR59       0.2028
     24  C        -14.1420   -6.4010    4.8650 C.2    59  THR59       0.2642
     25  O        -13.2680   -5.8370    5.5200 O.2    59  THR59      -0.2714
     26  CB       -14.9370   -8.4440    6.0010 C.3    59  THR59       0.1808
     27  OG1      -14.6320   -9.8290    6.2050 O.3    59  THR59      -0.2208
     28  CG2      -16.4200   -8.2690    5.8030 C.3    59  THR59       0.0379
     29  N        -15.0740   -5.7680    4.1690 N.am   60  ASN60      -0.1957
     30  CA       -15.3320   -4.3530    4.3090 C.3    60  ASN60       0.1819
     31  C        -15.6210   -4.0210    5.7500 C.2    60  ASN60       0.2621
     32  O        -16.0900   -4.8640    6.5140 O.2    60  ASN60      -0.2715
     33  CB       -16.5470   -4.0060    3.4660 C.3    60  ASN60       0.1195
     34  CG       -16.1480   -3.4720    2.1120 C.2    60  ASN60       0.2630
     35  OD1      -16.0350   -2.2630    1.9110 O.2    60  ASN60      -0.2716
     36  ND2      -15.9160   -4.3730    1.1750 N.am   60  ASN60      -0.0877
     37  N        -15.3540   -2.7660    6.0860 N.am   61  ASP61      -0.1957
     38  CA       -15.6270   -2.1990    7.4030 C.3    61  ASP61       0.1840
     39  C        -17.0820   -2.3540    7.7970 C.2    61  ASP61       0.2622
     40  O        -17.4700   -2.0370    8.9210 O.2    61  ASP61      -0.2715
     41  CB       -15.2880   -0.7270    7.3850 C.3    61  ASP61       0.1450
     42  CG       -13.8530   -0.4420    7.7780 C.2    61  ASP61       0.3671
     43  OD1      -12.9520   -0.6110    6.9290 O.co2  61  ASP61      -0.2456
     44  OD2      -13.6140   -0.0330    8.9330 O.co2  61  ASP61      -0.2456
     45  N        -17.8770   -2.8190    6.8450 N.am   62  ASP62      -0.1957
     46  CA       -19.3060   -2.9450    7.0170 C.3    62  ASP62       0.1840
     47  C        -19.6590   -4.3750    7.2790 C.2    62  ASP62       0.2622
     48  O        -20.7620   -4.6720    7.7270 O.2    62  ASP62      -0.2715
     49  CB       -20.0390   -2.5010    5.7640 C.3    62  ASP62       0.1450
     50  CG       -19.8710   -1.0370    5.4370 C.2    62  ASP62       0.3671
     51  OD1      -20.5590   -0.2010    6.0610 O.co2  62  ASP62      -0.2456
     52  OD2      -19.0760   -0.7190    4.5300 O.co2  62  ASP62      -0.2456
     53  N        -18.7550   -5.2650    6.9670 N.am   63  GLY63      -0.1954
     54  CA       -19.0780   -6.6450    7.0750 C.3    63  GLY63       0.1869
     55  C        -19.5070   -7.2130    5.7550 C.2    63  GLY63       0.2309
     56  O        -20.3680   -8.0920    5.6790 O.2    63  GLY63      -0.2863
     57  N        -14.9660   -9.0490    0.3530 N.3    66  TYR66      -0.1241
     58  CA       -14.5690   -8.5410   -0.9400 C.3    66  TYR66       0.1605
     59  C        -13.3220   -9.2080   -1.4500 C.2    66  TYR66       0.2264
     60  O        -12.6450   -9.9410   -0.7280 O.2    66  TYR66      -0.2867
     61  CB       -14.3070   -7.0410   -0.8740 C.3    66  TYR66       0.0534
     62  CG       -13.1400   -6.6870    0.0230 C.ar   66  TYR66      -0.0201
     63  CD1      -13.2660   -6.6940    1.4080 C.ar   66  TYR66      -0.0009
     64  CD2      -11.9000   -6.3580   -0.5220 C.ar   66  TYR66      -0.0009
     65  CE1      -12.1880   -6.3780    2.2160 C.ar   66  TYR66       0.0417
     66  CE2      -10.8240   -6.0490    0.2830 C.ar   66  TYR66       0.0417
     67  CZ       -10.9730   -6.0560    1.6490 C.ar   66  TYR66       0.1957
     68  OH        -9.9000   -5.7630    2.4540 O.3    66  TYR66      -0.2866
     69  N         -9.9780   -8.1310   -4.3480 N.3    68  SER68      -0.1217
     70  CA        -9.3790   -7.2760   -5.3310 C.3    68  SER68       0.1889
     71  C         -8.1260   -7.9310   -5.8200 C.2    68  SER68       0.2288
     72  O         -7.0750   -7.8360   -5.1910 O.2    68  SER68      -0.2866
     73  CB        -9.0120   -5.9280   -4.7370 C.3    68  SER68       0.2089
     74  OG        -9.7900   -5.6340   -3.5860 O.3    68  SER68      -0.2183
     75  N          1.2330   -7.1750   -4.0800 N.3    73  TRP73      -0.1241
     76  CA         0.5790   -7.0350   -2.7920 C.3    73  TRP73       0.1605
     77  C          1.5550   -7.2110   -1.6580 C.2    73  TRP73       0.2264
     78  O          2.4160   -8.0770   -1.6810 O.2    73  TRP73      -0.2867
     79  CB        -0.5120   -8.0860   -2.7280 C.3    73  TRP73       0.0550
     80  CG        -1.1610   -8.2810   -1.4140 C.ar   73  TRP73       0.0003
     81  CD1       -1.3260   -9.4580   -0.8080 C.ar   73  TRP73       0.0946
     82  CD2       -1.7440   -7.2960   -0.5810 C.ar   73  TRP73       0.0152
     83  NE1       -2.0160   -9.2870    0.3710 N.ar   73  TRP73      -0.2442
     84  CE2       -2.2810   -7.9430    0.5350 C.ar   73  TRP73       0.0810
     85  CE3       -1.8580   -5.9340   -0.6890 C.ar   73  TRP73       0.0012
     86  CZ2       -2.9420   -7.2360    1.5540 C.ar   73  TRP73       0.0191
     87  CZ3       -2.4960   -5.2270    0.2910 C.ar   73  TRP73       0.0001
     88  CH2       -3.0390   -5.8720    1.4090 C.ar   73  TRP73       0.0015
     89  N         -2.3220   -3.4890   11.5910 N.3    79  THR79      -0.1203
     90  CA        -3.0170   -2.2480   11.2900 C.3    79  THR79       0.1994
     91  C         -4.1850   -2.4600   10.3340 C.2    79  THR79       0.2618
     92  O         -5.0470   -1.5950   10.1950 O.2    79  THR79      -0.2717
     93  CB        -2.0410   -1.2380   10.6770 C.3    79  THR79       0.1784
     94  OG1       -1.3580   -1.8340    9.5630 O.3    79  THR79      -0.2211
     95  CG2       -1.0290   -0.7910   11.7110 C.3    79  THR79       0.0376
     96  N         -4.1840   -3.5910    9.6440 N.am   80  GLY80      -0.1942
     97  CA        -5.2390   -3.8870    8.6940 C.3    80  GLY80       0.2014
     98  C         -4.8550   -3.4580    7.3030 C.2    80  GLY80       0.2638
     99  O         -5.2810   -4.0610    6.3200 O.2    80  GLY80      -0.2714
    100  N         -4.0210   -2.4270    7.2480 N.am   81  VAL81      -0.1977
    101  CA        -3.5530   -1.8230    6.0050 C.3    81  VAL81       0.1596
    102  C         -2.8670   -2.8500    5.1000 C.2    81  VAL81       0.2287
    103  O         -2.6490   -3.9970    5.4830 O.2    81  VAL81      -0.2864
    104  CB        -2.5590   -0.6780    6.3290 C.3    81  VAL81       0.0276
    105  CG1       -2.1070    0.0880    5.0790 C.3    81  VAL81       0.0022
    106  CG2       -3.1790    0.2730    7.3280 C.3    81  VAL81       0.0022
    107  N         -0.3400   -1.9680   -2.0470 N.3    84  HIS84      -0.1241
    108  CA        -0.5540   -2.8050   -3.2130 C.3    84  HIS84       0.1621
    109  C         -0.5900   -1.9870   -4.4840 C.2    84  HIS84       0.2264
    110  O         -0.8430   -0.7880   -4.4510 O.2    84  HIS84      -0.2867
    111  CB        -1.8780   -3.5250   -3.0620 C.3    84  HIS84       0.0745
    112  CG        -3.0680   -2.6350   -3.0150 C.ar   84  HIS84       0.0817
    113  ND1       -3.6370   -2.0270   -4.1080 N.ar   84  HIS84      -0.2268
    114  CD2       -3.7940   -2.2650   -1.9480 C.ar   84  HIS84       0.1154
    115  CE1       -4.6750   -1.3100   -3.6740 C.ar   84  HIS84       0.1986
    116  NE2       -4.8190   -1.4210   -2.3640 N.ar   84  HIS84      -0.2212
    117  N        -11.2450    4.4810   -0.9990 N.3   102  SER102     -0.1202
    118  CA       -10.9460    3.0810   -1.2180 C.3   102  SER102      0.2020
    119  C        -10.5130    2.3890    0.0740 C.2   102  SER102      0.2619
    120  O         -9.4210    2.6300    0.5880 O.2   102  SER102     -0.2717
    121  CB        -9.8600    2.9490   -2.2820 C.3   102  SER102      0.2103
    122  OG        -8.8160    3.8790   -2.0480 O.3   102  SER102     -0.2182
    123  N        -11.3940    1.5030    0.5490 N.am  103  HIS103     -0.1961
    124  CA       -11.1830    0.6820    1.7480 C.3   103  HIS103      0.1787
    125  C        -10.4000    1.4020    2.8480 C.2   103  HIS103      0.2621
    126  O        -10.8110    2.4630    3.3260 O.2   103  HIS103     -0.2715
    127  CB       -10.4880   -0.6330    1.3940 C.3   103  HIS103      0.0785
    128  CG       -11.3260   -1.6020    0.6250 C.ar  103  HIS103      0.0821
    129  ND1      -12.5810   -1.9890    1.0280 N.ar  103  HIS103     -0.2267
    130  CD2      -11.0720   -2.2800   -0.5220 C.ar  103  HIS103      0.1154
    131  CE1      -13.0670   -2.8590    0.1670 C.ar  103  HIS103      0.1986
    132  NE2      -12.1750   -3.0520   -0.7880 N.ar  103  HIS103     -0.2212
    133  N         -9.2670    0.8160    3.2330 N.am  104  GLY104     -0.1940
    134  CA        -8.4890    1.3390    4.3350 C.3   104  GLY104      0.2014
    135  C         -7.0060    1.4780    4.0250 C.2   104  GLY104      0.2639
    136  O         -6.3030    2.2180    4.7140 O.2   104  GLY104     -0.2714
    137  N         -6.5130    0.7770    3.0020 N.am  105  CYS105     -0.1967
    138  CA        -5.0860    0.7770    2.7180 C.3   105  CYS105      0.1712
    139  C         -4.7150    1.7230    1.5860 C.2   105  CYS105      0.2296
    140  O         -5.4730    2.6100    1.2180 O.2   105  CYS105     -0.2864
    141  CB        -4.6000   -0.6260    2.3700 C.3   105  CYS105      0.0983
    142  SG        -5.3550   -1.3230    0.8880 S.3   105  CYS105     -0.0798
    143  N         -3.5510    2.6410   -2.1710 N.3   107  ASN107     -0.1240
    144  CA        -3.7220    2.1930   -3.5430 C.3   107  ASN107      0.1653
    145  C         -2.6030    2.7430   -4.4150 C.2   107  ASN107      0.2266
    146  O         -2.6160    3.9050   -4.8110 O.2   107  ASN107     -0.2867
    147  CB        -5.0820    2.6160   -4.0860 C.3   107  ASN107      0.1155
    148  CG        -6.2370    1.7430   -3.6110 C.2   107  ASN107      0.2627
    149  OD1       -7.2220    1.5590   -4.3290 O.2   107  ASN107     -0.2716
    150  ND2       -6.1250    1.1860   -2.4130 N.am  107  ASN107     -0.0877
@<TRIPOS>BOND
     1    71    70    1
     2    71    72    2
     3    70    73    1
     4    70    69    1
     5   146   145    2
     6    73    74    1
     7   109   110    2
     8   109   108    1
     9   145   144    1
    10   149   148    2
    11   113   115   ar
    12   113   112   ar
    13   147   148    1
    14   147   144    1
    15    75    76    1
    16   115   116   ar
    17   148   150   am
    18   144   143    1
    19   108   111    1
    20   108   107    1
    21   111   112    1
    22     1     2    1
    23   112   114   ar
    24     8     6    1
    25    76    79    1
    26    76    77    1
    27    17    16    1
    28    79    80    1
    29    16    15    1
    30     7     6    1
    31   116   114   ar
    32   121   122    1
    33   121   118    1
    34     5     6    1
    35     5     2    1
    36     2     3    1
    37     4     3    2
    38    78    77    2
    39    59    58    1
    40    59    60    2
    41    15    14    1
    42    80    81   ar
    43    80    82   ar
    44     3     9   am
    45    14    13    1
    46   118   117    1
    47   118   119    1
    48    58    61    1
    49    58    57    1
    50    61    62    1
    51    81    83   ar
    52   132   130   ar
    53   132   131   ar
    54    85    82   ar
    55    85    87   ar
    56    82    84   ar
    57     9    10    1
    58    64    62   ar
    59    64    66   ar
    60   130   128   ar
    61    62    63   ar
    62    13    10    1
    63    10    11    1
    64   119   123   am
    65   119   120    2
    66   131   129   ar
    67    66    67   ar
    68    87    88   ar
    69    83    84   ar
    70    84    86   ar
    71   123   124    1
    72   128   129   ar
    73   128   127    1
    74   142   141    1
    75    36    34   am
    76   140   139    2
    77   127   124    1
    78    63    65   ar
    79    88    86   ar
    80    11    12    2
    81    11    18   am
    82   139   138    1
    83    67    65   ar
    84    67    68    1
    85   124   125    1
    86    35    34    2
    87    18    19    1
    88    34    33    1
    89   141   138    1
    90    21    20    2
    91   138   137    1
    92   125   133   am
    93   125   126    2
    94   137   135   am
    95   133   134    1
    96    19    20    1
    97    33    30    1
    98    20    22   am
    99   135   134    1
   100   135   136    2
   101    29    30    1
   102    29    24   am
   103    30    31    1
   104    52    50   ar
   105    22    23    1
   106    23    24    1
   107    23    26    1
   108    24    25    2
   109   105   104    1
   110   102   103    2
   111   102   101    1
   112    50    49    1
   113    50    51   ar
   114    56    55    2
   115    31    37   am
   116    31    32    2
   117    55    54    1
   118    49    46    1
   119    28    26    1
   120    26    27    1
   121   101   104    1
   122   101   100    1
   123    37    38    1
   124    99    98    2
   125   104   106    1
   126    45    46    1
   127    45    39   am
   128    43    42   ar
   129    53    54    1
   130    53    47   am
   131    46    47    1
   132   100    98   am
   133    47    48    2
   134    98    97    1
   135    41    38    1
   136    41    42    1
   137    38    39    1
   138    42    44   ar
   139    39    40    2
   140    97    96    1
   141    94    93    1
   142    96    91   am
   143    92    91    2
   144    91    90    1
   145    93    90    1
   146    93    95    1
   147    90    89    1
