@<TRIPOS>MOLECULE
tmp/3zgqA00.pdb
 98 98 0 0 0
SMALL
GASTEIGER

@<TRIPOS>ATOM
      1  N          2.1960   95.8550  132.4890 N.3    19  PHE19      -0.1241
      2  CA         1.0690   94.9460  132.6100 C.3    19  PHE19       0.1605
      3  C          0.3850   94.6850  131.2790 C.2    19  PHE19       0.2264
      4  O         -0.3690   93.7380  131.1460 O.2    19  PHE19      -0.2867
      5  CB         0.0500   95.4840  133.6100 C.3    19  PHE19       0.0534
      6  CG         0.5480   95.5060  135.0310 C.ar   19  PHE19      -0.0203
      7  CD1        1.3440   96.5510  135.4890 C.ar   19  PHE19      -0.0042
      8  CD2        0.2310   94.4780  135.9060 C.ar   19  PHE19      -0.0042
      9  CE1        1.7910   96.5830  136.7940 C.ar   19  PHE19      -0.0003
     10  CE2        0.6790   94.4970  137.2150 C.ar   19  PHE19      -0.0003
     11  CZ         1.4610   95.5450  137.6620 C.ar   19  PHE19      -0.0000
     12  N          2.7300   91.9170  127.6560 N.3    22  ASN22      -0.1225
     13  CA         2.8460   90.4610  127.4990 C.3    22  ASN22       0.1785
     14  C          4.1710   89.9050  128.0100 C.2    22  ASN22       0.2597
     15  O          4.8540   89.1640  127.3100 O.2    22  ASN22      -0.2718
     16  CB         2.6330   90.0510  126.0420 C.3    22  ASN22       0.1169
     17  CG         1.2440   90.3770  125.5450 C.2    22  ASN22       0.2627
     18  OD1        1.0730   91.2030  124.6490 O.2    22  ASN22      -0.2716
     19  ND2        0.2440   89.7280  126.1200 N.am   22  ASN22      -0.0877
     20  N          4.5270   90.2910  129.2320 N.am   23  LEU23      -0.1966
     21  CA         5.7740   89.8630  129.8450 C.3    23  LEU23       0.1728
     22  C          5.4630   88.7050  130.7930 C.2    23  LEU23       0.2616
     23  O          5.0780   88.9150  131.9420 O.2    23  LEU23      -0.2715
     24  CB         6.4330   91.0370  130.5790 C.3    23  LEU23       0.0311
     25  CG         6.6260   92.3250  129.7540 C.3    23  LEU23       0.0022
     26  CD1        6.9680   93.4840  130.6480 C.3    23  LEU23       0.0001
     27  CD2        7.7120   92.1590  128.6860 C.3    23  LEU23       0.0001
     28  N          5.6170   87.4840  130.2970 N.am   24  LEU24      -0.1963
     29  CA         5.1380   86.3030  131.0140 C.3    24  LEU24       0.1728
     30  C          6.1310   85.8720  132.0760 C.2    24  LEU24       0.2616
     31  O          7.3100   85.6680  131.7850 O.2    24  LEU24      -0.2715
     32  CB         4.8590   85.1460  130.0320 C.3    24  LEU24       0.0311
     33  CG         4.0830   85.5660  128.7760 C.3    24  LEU24       0.0022
     34  CD1        3.7400   84.3750  127.8750 C.3    24  LEU24       0.0001
     35  CD2        2.8110   86.3560  129.1520 C.3    24  LEU24       0.0001
     36  N          5.6570   85.7420  133.3100 N.am   25  LYS25      -0.1977
     37  CA         6.4710   85.2280  134.4130 C.3    25  LYS25       0.1596
     38  C          7.0630   83.8470  134.1310 C.2    25  LYS25       0.2287
     39  O          8.1400   83.5230  134.6230 O.2    25  LYS25      -0.2864
     40  CB         5.6460   85.1720  135.7020 C.3    25  LYS25       0.0298
     41  CG         4.5580   84.1570  135.6730 C.3    25  LYS25       0.0038
     42  CD         3.6480   84.2310  136.8890 C.3    25  LYS25       0.0206
     43  CE         4.3850   84.0110  138.1860 C.3    25  LYS25       0.1093
     44  NZ         3.4390   83.5950  139.2610 N.3    25  LYS25      -0.1314
     45  N          6.7270   95.9280  138.5310 N.3    58  TYR58      -0.1241
     46  CA         6.0350   94.8400  137.8740 C.3    58  TYR58       0.1605
     47  C          6.5870   93.5210  138.4200 C.2    58  TYR58       0.2264
     48  O          5.8200   92.6120  138.7640 O.2    58  TYR58      -0.2867
     49  CB         6.2200   94.9550  136.3530 C.3    58  TYR58       0.0534
     50  CG         5.5410   93.8710  135.5390 C.ar   58  TYR58      -0.0201
     51  CD1        4.1560   93.8140  135.4340 C.ar   58  TYR58      -0.0009
     52  CD2        6.2940   92.9210  134.8530 C.ar   58  TYR58      -0.0009
     53  CE1        3.5380   92.8160  134.6780 C.ar   58  TYR58       0.0417
     54  CE2        5.6970   91.9310  134.0970 C.ar   58  TYR58       0.0417
     55  CZ         4.3210   91.8720  134.0110 C.ar   58  TYR58       0.1957
     56  OH         3.7310   90.8680  133.2570 O.3    58  TYR58      -0.2866
     57  N          5.3370   92.6260  141.7010 N.3    61  HIS61      -0.1226
     58  CA         3.9520   92.1920  141.6520 C.3    61  HIS61       0.1752
     59  C          3.9470   90.7370  141.2420 C.2    61  HIS61       0.2595
     60  O          3.1830   89.9380  141.7650 O.2    61  HIS61      -0.2718
     61  CB         3.1440   93.0050  140.6470 C.3    61  HIS61       0.0759
     62  CG         1.9590   92.2680  140.1130 C.ar   61  HIS61       0.0818
     63  ND1        0.8060   92.0880  140.8450 N.ar   61  HIS61      -0.2268
     64  CD2        1.7640   91.6290  138.9360 C.ar   61  HIS61       0.1154
     65  CE1       -0.0570   91.3840  140.1360 C.ar   61  HIS61       0.1986
     66  NE2        0.5010   91.0910  138.9760 N.ar   61  HIS61      -0.2212
     67  N          4.8390   90.3900  140.3250 N.am   62  LEU62      -0.1980
     68  CA         4.8550   89.0310  139.8200 C.3    62  LEU62       0.1596
     69  C          5.2580   88.1060  140.9520 C.2    62  LEU62       0.2287
     70  O          4.8810   86.9450  140.9730 O.2    62  LEU62      -0.2864
     71  CB         5.7970   88.9110  138.6220 C.3    62  LEU62       0.0297
     72  CG         5.1930   88.7190  137.2200 C.3    62  LEU62       0.0022
     73  CD1        3.7750   89.2890  137.0300 C.3    62  LEU62       0.0001
     74  CD2        6.1310   89.2740  136.1780 C.3    62  LEU62       0.0001
     75  N         -2.7590   99.3960  137.6200 N.3   101  TRP101     -0.1241
     76  CA        -2.7710   97.9390  137.6820 C.3   101  TRP101      0.1605
     77  C         -2.4940   97.3470  139.0750 C.2   101  TRP101      0.2264
     78  O         -3.1440   96.3660  139.4960 O.2   101  TRP101     -0.2867
     79  CB        -1.7720   97.3810  136.6800 C.3   101  TRP101      0.0550
     80  CG        -2.3360   97.1970  135.3230 C.ar  101  TRP101      0.0003
     81  CD1       -2.2560   98.0630  134.2720 C.ar  101  TRP101      0.0946
     82  CD2       -3.0870   96.0720  134.8610 C.ar  101  TRP101      0.0152
     83  NE1       -2.9130   97.5480  133.1840 N.ar  101  TRP101     -0.2442
     84  CE2       -3.4190   96.3180  133.5130 C.ar  101  TRP101      0.0810
     85  CE3       -3.5170   94.8800  135.4580 C.ar  101  TRP101      0.0012
     86  CZ2       -4.1580   95.4180  132.7510 C.ar  101  TRP101      0.0191
     87  CZ3       -4.2500   93.9830  134.6960 C.ar  101  TRP101      0.0001
     88  CH2       -4.5600   94.2560  133.3600 C.ar  101  TRP101      0.0015
     89  N         -4.9880   95.0040  141.3130 N.3   105  HIS105     -0.1241
     90  CA        -4.6450   93.7050  141.8990 C.3   105  HIS105      0.1621
     91  C         -4.7210   93.6870  143.4350 C.2   105  HIS105      0.2264
     92  O         -4.8080   92.6260  144.0320 O.2   105  HIS105     -0.2867
     93  CB        -3.2450   93.2360  141.4450 C.3   105  HIS105      0.0745
     94  CG        -3.1890   92.7530  140.0290 C.ar  105  HIS105      0.0817
     95  ND1       -3.9190   91.6750  139.5800 N.ar  105  HIS105     -0.2268
     96  CD2       -2.4710   93.1900  138.9640 C.ar  105  HIS105      0.1154
     97  CE1       -3.6580   91.4710  138.2990 C.ar  105  HIS105      0.1986
     98  NE2       -2.7800   92.3760  137.9030 N.ar  105  HIS105     -0.2212
@<TRIPOS>BOND
     1    18    17    2
     2    17    16    1
     3    17    19   am
     4    16    13    1
     5    15    14    2
     6    13    12    1
     7    13    14    1
     8    34    33    1
     9    14    20   am
    10    27    25    1
    11    33    35    1
    12    33    32    1
    13    20    21    1
    14    25    24    1
    15    25    26    1
    16    21    24    1
    17    21    22    1
    18    32    29    1
    19    28    22   am
    20    28    29    1
    21    22    23    2
    22    29    30    1
    23     4     3    2
    24     3     2    1
    25    31    30    2
    26    30    36   am
    27     1     2    1
    28     2     5    1
    29    86    88   ar
    30    86    84   ar
    31    83    84   ar
    32    83    81   ar
    33    56    55    1
    34    36    37    1
    35    88    87   ar
    36    84    82   ar
    37     5     6    1
    38    55    54   ar
    39    55    53   ar
    40    54    52   ar
    41    38    37    1
    42    38    39    2
    43    81    80   ar
    44    37    40    1
    45    53    51   ar
    46    87    85   ar
    47    52    50   ar
    48    82    80   ar
    49    82    85   ar
    50     6     7   ar
    51     6     8   ar
    52    80    79    1
    53    51    50   ar
    54     7     9   ar
    55    50    49    1
    56    41    40    1
    57    41    42    1
    58     8    10   ar
    59    74    72    1
    60    49    46    1
    61    79    76    1
    62     9    11   ar
    63    42    43    1
    64    73    72    1
    65    10    11   ar
    66    72    71    1
    67    75    76    1
    68    76    77    1
    69    46    47    1
    70    46    45    1
    71    98    97   ar
    72    98    96   ar
    73    43    44    1
    74    97    95   ar
    75    47    48    2
    76    71    68    1
    77    64    66   ar
    78    64    62   ar
    79    96    94   ar
    80    66    65   ar
    81    77    78    2
    82    95    94   ar
    83    68    67    1
    84    68    69    1
    85    94    93    1
    86    62    61    1
    87    62    63   ar
    88    65    63   ar
    89    67    59   am
    90    61    58    1
    91    69    70    2
    92    59    58    1
    93    59    60    2
    94    89    90    1
    95    93    90    1
    96    58    57    1
    97    90    91    1
    98    91    92    2
