@<TRIPOS>MOLECULE
tmp/3zgvB00.pdb
 216 209 0 0 0
SMALL
GASTEIGER

@<TRIPOS>ATOM
      1  N          0.7980   28.5870   31.1200 N.3    30  GLY30      -0.1210
      2  CA         2.0630   29.1310   30.6840 C.3    30  GLY30       0.1956
      3  C          2.6590   30.0680   31.7190 C.2    30  GLY30       0.2612
      4  O          2.3410   29.9910   32.9050 O.2    30  GLY30      -0.2717
      5  N          3.5150   30.9680   31.2600 N.am   31  ALA31      -0.1965
      6  CA         4.3350   31.7670   32.1500 C.3    31  ALA31       0.1728
      7  C          3.5530   32.8750   32.8350 C.2    31  ALA31       0.2616
      8  O          4.0350   33.4610   33.8000 O.2    31  ALA31      -0.2715
      9  CB         5.5090   32.3420   31.3850 C.3    31  ALA31       0.0334
     10  N          2.3500   33.1560   32.3410 N.am   32  GLY32      -0.1955
     11  CA         1.5110   34.1970   32.9100 C.3    32  GLY32       0.1869
     12  C          1.0310   33.8980   34.3160 C.2    32  GLY32       0.2309
     13  O          0.7940   34.8190   35.0990 O.2    32  GLY32      -0.2863
     14  N          3.8330   35.1890   36.8600 N.3    35  THR35      -0.1203
     15  CA         4.3060   36.5710   36.8930 C.3    35  THR35       0.1994
     16  C          3.9510   37.2410   38.2120 C.2    35  THR35       0.2618
     17  O          4.7500   37.9940   38.7570 O.2    35  THR35      -0.2717
     18  CB         3.7710   37.3990   35.7100 C.3    35  THR35       0.1784
     19  OG1        2.3470   37.2470   35.6050 O.3    35  THR35      -0.2211
     20  CG2        4.4370   36.9560   34.4090 C.3    35  THR35       0.0376
     21  N          2.7680   36.9450   38.7350 N.am   36  SER36      -0.1951
     22  CA         2.3430   37.4960   40.0120 C.3    36  SER36       0.1924
     23  C          3.2760   37.0460   41.1220 C.2    36  SER36       0.2314
     24  O          3.2560   37.6090   42.2130 O.2    36  SER36      -0.2863
     25  CB         0.9340   37.0270   40.3460 C.3    36  SER36       0.2116
     26  OG         0.9630   35.6700   40.7450 O.3    36  SER36      -0.2180
     27  N          7.3440   36.5170   32.3060 N.3    41  ASP41      -0.1225
     28  CA         6.9180   35.6820   31.1970 C.3    41  ASP41       0.1805
     29  C          7.8910   35.9220   30.0440 C.2    41  ASP41       0.2598
     30  O          8.9000   36.6030   30.2190 O.2    41  ASP41      -0.2718
     31  CB         5.4740   36.0060   30.8020 C.3    41  ASP41       0.1424
     32  CG         5.3380   37.3400   30.1160 C.2    41  ASP41       0.3668
     33  OD1        6.3690   37.9650   29.7930 O.co2  41  ASP41      -0.2456
     34  OD2        4.1870   37.7610   29.8830 O.co2  41  ASP41      -0.2456
     35  N          7.6010   35.3770   28.8710 N.am   42  PHE42      -0.1962
     36  CA         8.5310   35.4500   27.7460 C.3    42  PHE42       0.1771
     37  C          8.2680   36.6320   26.8190 C.2    42  PHE42       0.2619
     38  O          9.1840   37.3770   26.4840 O.2    42  PHE42      -0.2715
     39  CB         8.4640   34.1450   26.9500 C.3    42  PHE42       0.0574
     40  CG         9.0080   32.9620   27.6960 C.ar   42  PHE42      -0.0200
     41  CD1        8.1930   32.2040   28.5150 C.ar   42  PHE42      -0.0042
     42  CD2       10.3420   32.6250   27.5990 C.ar   42  PHE42      -0.0042
     43  CE1        8.6910   31.1350   29.2080 C.ar   42  PHE42      -0.0003
     44  CE2       10.8450   31.5500   28.2910 C.ar   42  PHE42      -0.0003
     45  CZ        10.0170   30.8050   29.0960 C.ar   42  PHE42      -0.0000
     46  N          7.0120   36.8070   26.4240 N.am   43  ARG43      -0.1963
     47  CA         6.6710   37.7220   25.3380 C.3    43  ARG43       0.1729
     48  C          5.9170   38.9840   25.7560 C.2    43  ARG43       0.2616
     49  O          5.4410   39.7240   24.8990 O.2    43  ARG43      -0.2715
     50  CB         5.8720   36.9680   24.2790 C.3    43  ARG43       0.0348
     51  CG         6.6510   35.8060   23.6920 C.3    43  ARG43       0.0492
     52  CD         5.8260   34.9610   22.7470 C.3    43  ARG43       0.2205
     53  NE         6.6320   33.8790   22.1860 N.pl3  43  ARG43      -0.0865
     54  CZ         6.9460   32.7660   22.8390 C.cat  43  ARG43       0.5346
     55  NH1        6.5170   32.5710   24.0800 N.pl3  43  ARG43       0.1354
     56  NH2        7.6900   31.8430   22.2530 N.pl3  43  ARG43       0.1354
     57  N          5.8200   39.2700   27.0270 N.am   44  SER44      -0.1950
     58  CA         5.2830   40.5460   27.4260 C.3    44  SER44       0.1924
     59  C          6.2450   41.6430   27.1180 C.2    44  SER44       0.2314
     60  O          7.4110   41.5490   27.3440 O.2    44  SER44      -0.2863
     61  CB         4.8720   40.6140   28.8740 C.3    44  SER44       0.2116
     62  OG         3.7540   39.8350   29.1530 O.3    44  SER44      -0.2180
     63  N         12.3360   37.8690   26.4560 N.3    50  TYR50      -0.1241
     64  CA        12.8410   37.9980   25.0980 C.3    50  TYR50       0.1605
     65  C         13.1410   39.4420   24.7230 C.2    50  TYR50       0.2264
     66  O         13.8130   39.6900   23.7250 O.2    50  TYR50      -0.2867
     67  CB        11.8560   37.3850   24.1040 C.3    50  TYR50       0.0534
     68  CG        11.8580   35.8690   24.0900 C.ar   50  TYR50      -0.0201
     69  CD1       12.9830   35.1500   24.4570 C.ar   50  TYR50      -0.0009
     70  CD2       10.7350   35.1600   23.7070 C.ar   50  TYR50      -0.0009
     71  CE1       12.9890   33.7750   24.4390 C.ar   50  TYR50       0.0417
     72  CE2       10.7340   33.7790   23.6860 C.ar   50  TYR50       0.0417
     73  CZ        11.8620   33.0950   24.0520 C.ar   50  TYR50       0.1957
     74  OH        11.8500   31.7210   24.0330 O.3    50  TYR50      -0.2866
     75  N         17.3720   29.5860   23.4900 N.3    65  PHE65      -0.1241
     76  CA        16.7680   28.2980   23.8020 C.3    65  PHE65       0.1605
     77  C         16.6630   27.4480   22.5530 C.2    65  PHE65       0.2264
     78  O         15.7870   26.6000   22.4500 O.2    65  PHE65      -0.2867
     79  CB        15.3690   28.5020   24.3790 C.3    65  PHE65       0.0534
     80  CG        15.3460   29.3440   25.6200 C.ar   65  PHE65      -0.0203
     81  CD1       16.2540   29.1180   26.6380 C.ar   65  PHE65      -0.0042
     82  CD2       14.4340   30.3710   25.7660 C.ar   65  PHE65      -0.0042
     83  CE1       16.2450   29.8900   27.7790 C.ar   65  PHE65      -0.0003
     84  CE2       14.4230   31.1490   26.9100 C.ar   65  PHE65      -0.0003
     85  CZ        15.3290   30.9050   27.9160 C.ar   65  PHE65      -0.0000
     86  N          3.6920   24.5440   30.4160 N.3   111  GLN111     -0.1231
     87  CA         4.8370   24.8920   29.6020 C.3   111  GLN111      0.1698
     88  C          5.9770   25.4000   30.4820 C.2   111  GLN111      0.2592
     89  O          7.1010   25.5640   30.0170 O.2   111  GLN111     -0.2718
     90  CB         4.4260   25.9650   28.5940 C.3   111  GLN111      0.0381
     91  CG         3.3770   25.4750   27.6090 C.3   111  GLN111      0.0905
     92  CD         2.7850   26.5810   26.7590 C.2   111  GLN111      0.2608
     93  OE1        3.1740   26.7640   25.6090 O.2   111  GLN111     -0.2717
     94  NE2        1.8170   27.3020   27.3090 N.am  111  GLN111     -0.0878
     95  N          5.6880   25.6280   31.7600 N.am  112  ASN112     -0.1974
     96  CA         6.6520   26.2470   32.6660 C.3   112  ASN112      0.1688
     97  C          7.6270   25.2540   33.2670 C.2   112  ASN112      0.2292
     98  O          7.3700   24.0530   33.3130 O.2   112  ASN112     -0.2864
     99  CB         5.9380   26.9770   33.8070 C.3   112  ASN112      0.1181
    100  CG         4.9850   28.0340   33.3180 C.2   112  ASN112      0.2629
    101  OD1        5.0970   28.5140   32.1960 O.2   112  ASN112     -0.2716
    102  ND2        4.0390   28.4060   34.1570 N.am  112  ASN112     -0.0877
    103  N          7.3210   21.1900   28.6370 N.3   131  HIS131     -0.1241
    104  CA         8.5820   21.7540   28.1780 C.3   131  HIS131      0.1621
    105  C          9.7490   21.3850   29.0930 C.2   131  HIS131      0.2264
    106  O         10.7430   22.0990   29.1560 O.2   131  HIS131     -0.2867
    107  CB         8.4670   23.2730   28.0420 C.3   131  HIS131      0.0745
    108  CG         7.5520   23.7130   26.9400 C.ar  131  HIS131      0.0817
    109  ND1        7.2230   25.0350   26.7280 N.ar  131  HIS131     -0.2268
    110  CD2        6.9080   23.0100   25.9790 C.ar  131  HIS131      0.1154
    111  CE1        6.4130   25.1260   25.6910 C.ar  131  HIS131      0.1986
    112  NE2        6.2050   23.9100   25.2200 N.ar  131  HIS131     -0.2212
    113  N         13.0190   21.7300   27.3700 N.3   177  VAL177     -0.1245
    114  CA        12.8960   21.5520   25.9350 C.3   177  VAL177      0.1561
    115  C         13.2930   22.8220   25.1910 C.2   177  VAL177      0.2260
    116  O         12.7070   23.8880   25.3950 O.2   177  VAL177     -0.2867
    117  CB        11.4740   21.1300   25.5570 C.3   177  VAL177      0.0252
    118  CG1       11.3430   20.9840   24.0450 C.3   177  VAL177      0.0019
    119  CG2       11.1260   19.8330   26.2520 C.3   177  VAL177      0.0019
    120  N         14.0500   24.8020   21.4000 N.3   179  PHE179     -0.1241
    121  CA        13.4740   24.8120   20.0720 C.3   179  PHE179      0.1605
    122  C         14.2150   23.8130   19.2100 C.2   179  PHE179      0.2264
    123  O         15.4410   23.7700   19.2130 O.2   179  PHE179     -0.2867
    124  CB        13.5580   26.2110   19.4780 C.3   179  PHE179      0.0534
    125  CG        12.5020   27.1410   19.9980 C.ar  179  PHE179     -0.0203
    126  CD1       11.2040   27.0360   19.5550 C.ar  179  PHE179     -0.0042
    127  CD2       12.7980   28.1000   20.9400 C.ar  179  PHE179     -0.0042
    128  CE1       10.2240   27.8730   20.0330 C.ar  179  PHE179     -0.0003
    129  CE2       11.8170   28.9440   21.4160 C.ar  179  PHE179     -0.0003
    130  CZ        10.5290   28.8260   20.9620 C.ar  179  PHE179     -0.0000
    131  N         -2.5620   32.0310   31.3170 N.3   205  GLY205     -0.1210
    132  CA        -1.2140   32.5640   31.3700 C.3   205  GLY205      0.1956
    133  C         -0.3300   32.1700   30.2080 C.2   205  GLY205      0.2613
    134  O          0.8810   32.0460   30.3670 O.2   205  GLY205     -0.2717
    135  N         -0.9260   31.9760   29.0370 N.am  206  THR206     -0.1938
    136  CA        -0.1570   31.6130   27.8540 C.3   206  THR206      0.2028
    137  C         -0.6300   32.3700   26.6170 C.2   206  THR206      0.2643
    138  O         -1.8140   32.6710   26.4690 O.2   206  THR206     -0.2714
    139  CB        -0.2020   30.0920   27.5910 C.3   206  THR206      0.1808
    140  OG1        0.4420   29.8050   26.3460 O.3   206  THR206     -0.2208
    141  CG2       -1.6440   29.5780   27.5580 C.3   206  THR206      0.0379
    142  N          0.3140   32.6810   25.7370 N.am  207  SER207     -0.1935
    143  CA         0.0330   33.4120   24.5080 C.3   207  SER207      0.2055
    144  C         -0.2890   32.4420   23.3730 C.2   207  SER207      0.2643
    145  O         -0.7380   32.8550   22.3000 O.2   207  SER207     -0.2714
    146  CB         1.2440   34.2730   24.1430 C.3   207  SER207      0.2130
    147  OG         2.3940   33.4650   23.9980 O.3   207  SER207     -0.2179
    148  N         -0.0510   31.1520   23.6190 N.am  208  LEU208     -0.1963
    149  CA        -0.2960   30.0980   22.6340 C.3   208  LEU208      0.1728
    150  C          0.4980   30.3260   21.3550 C.2   208  LEU208      0.2616
    151  O         -0.0410   30.2230   20.2530 O.2   208  LEU208     -0.2715
    152  CB        -1.7870   29.9990   22.3230 C.3   208  LEU208      0.0311
    153  CG        -2.6440   29.5900   23.5210 C.3   208  LEU208      0.0022
    154  CD1       -4.1140   29.6200   23.1580 C.3   208  LEU208      0.0001
    155  CD2       -2.2380   28.2070   24.0170 C.3   208  LEU208      0.0001
    156  N          1.7890   30.6090   21.5250 N.am  209  GLN209     -0.1963
    157  CA         2.6650   30.9990   20.4280 C.3   209  GLN209      0.1733
    158  C          3.6530   29.9050   20.0570 C.2   209  GLN209      0.2616
    159  O          4.4940   30.1180   19.1970 O.2   209  GLN209     -0.2715
    160  CB         3.4400   32.2780   20.7850 C.3   209  GLN209      0.0408
    161  CG         2.6060   33.5440   20.7720 C.3   209  GLN209      0.0908
    162  CD         2.0860   33.8630   19.3920 C.2   209  GLN209      0.2608
    163  OE1        0.9260   33.6060   19.0880 O.2   209  GLN209     -0.2717
    164  NE2        2.9420   34.4110   18.5400 N.am  209  GLN209     -0.0878
    165  N          3.5630   28.7410   20.6940 N.am  210  VAL210     -0.1977
    166  CA         4.4580   27.6380   20.3550 C.3   210  VAL210      0.1596
    167  C          3.7380   26.2970   20.1490 C.2   210  VAL210      0.2287
    168  O          2.7930   25.9580   20.8600 O.2   210  VAL210     -0.2864
    169  CB         5.5600   27.4380   21.4270 C.3   210  VAL210      0.0276
    170  CG1        6.3180   28.7460   21.6870 C.3   210  VAL210      0.0022
    171  CG2        4.9630   26.8970   22.7140 C.3   210  VAL210      0.0022
    172  N         -6.7270   35.1890   31.0240 N.3   230  ASN230     -0.1225
    173  CA        -5.4740   35.7570   30.5580 C.3   230  ASN230      0.1785
    174  C         -5.6030   37.2550   30.3800 C.2   230  ASN230      0.2597
    175  O         -6.6760   37.7440   30.0680 O.2   230  ASN230     -0.2718
    176  CB        -5.1020   35.1150   29.2270 C.3   230  ASN230      0.1169
    177  CG        -3.6110   35.1400   28.9530 C.2   230  ASN230      0.2627
    178  OD1       -2.8230   34.5820   29.7120 O.2   230  ASN230     -0.2716
    179  ND2       -3.2210   35.7480   27.8410 N.am  230  ASN230     -0.0877
    180  N         -4.5040   37.9740   30.5770 N.am  231  LYS231     -0.1966
    181  CA        -4.4990   39.4250   30.4530 C.3   231  LYS231      0.1728
    182  C         -4.9600   39.8690   29.0740 C.2   231  LYS231      0.2616
    183  O         -5.6240   40.8890   28.9320 O.2   231  LYS231     -0.2715
    184  CB        -3.0980   39.9610   30.7140 C.3   231  LYS231      0.0311
    185  CG        -2.8490   40.3480   32.1580 C.3   231  LYS231      0.0038
    186  CD        -1.4620   40.9270   32.3120 C.3   231  LYS231      0.0206
    187  CE        -1.1990   41.3810   33.7300 C.3   231  LYS231      0.1093
    188  NZ         0.1980   41.8780   33.8780 N.3   231  LYS231     -0.1314
    189  N         -4.5970   39.0970   28.0590 N.am  232  GLU232     -0.1977
    190  CA        -4.9830   39.3920   26.6920 C.3   232  GLU232      0.1602
    191  C         -5.5910   38.1560   26.0690 C.2   232  GLU232      0.2287
    192  O         -5.3900   37.0500   26.5580 O.2   232  GLU232     -0.2864
    193  CB        -3.7600   39.7970   25.8870 C.3   232  GLU232      0.0415
    194  CG        -2.7620   38.6750   25.7010 C.3   232  GLU232      0.1163
    195  CD        -1.4860   39.1550   25.0540 C.2   232  GLU232      0.3649
    196  OE1       -1.4050   40.3670   24.7440 O.co2 232  GLU232     -0.2457
    197  OE2       -0.5690   38.3260   24.8600 O.co2 232  GLU232     -0.2457
    198  N         -7.7660   39.6110   32.4050 N.3   266  GLY266     -0.1210
    199  CA        -7.3110   40.1870   33.6450 C.3   266  GLY266      0.1956
    200  C         -6.2340   39.2880   34.1960 C.2   266  GLY266      0.2612
    201  O         -5.7510   38.3950   33.4980 O.2   266  GLY266     -0.2717
    202  N         -5.8490   39.5160   35.4430 N.am  267  GLU267     -0.1965
    203  CA        -4.8410   38.6850   36.0830 C.3   267  GLU267      0.1733
    204  C         -5.3850   37.2880   36.3450 C.2   267  GLU267      0.2616
    205  O         -6.5560   37.1250   36.6820 O.2   267  GLU267     -0.2715
    206  CB        -4.3980   39.3190   37.3960 C.3   267  GLU267      0.0429
    207  CG        -3.8270   40.7080   37.2300 C.3   267  GLU267      0.1163
    208  CD        -2.3550   40.7750   37.5650 C.2   267  GLU267      0.3649
    209  OE1       -1.9000   39.9740   38.4080 O.co2 267  GLU267     -0.2457
    210  OE2       -1.6530   41.6290   36.9820 O.co2 267  GLU267     -0.2457
    211  N         -4.5270   36.2850   36.1990 N.am  268  CYS268     -0.1968
    212  CA        -4.9300   34.9090   36.4210 C.3   268  CYS268      0.1712
    213  C         -5.4840   34.7480   37.8290 C.2   268  CYS268      0.2296
    214  O         -6.5050   34.1080   38.0320 O.2   268  CYS268     -0.2864
    215  CB        -3.7420   33.9710   36.2260 C.3   268  CYS268      0.0983
    216  SG        -3.1740   33.8290   34.5070 S.3   268  CYS268     -0.0798
@<TRIPOS>BOND
     1   164   162   am
     2   163   162    2
     3   159   158    2
     4   122   123    2
     5   122   121    1
     6   162   161    1
     7   124   125    1
     8   124   121    1
     9   126   125   ar
    10   126   128   ar
    11   125   127   ar
    12   128   130   ar
    13   158   157    1
    14   158   165   am
    15   121   120    1
    16   167   166    1
    17   167   168    2
    18   151   150    2
    19   166   165    1
    20   166   169    1
    21   157   160    1
    22   157   156    1
    23   161   160    1
    24   127   129   ar
    25   130   129   ar
    26   150   156   am
    27   150   149    1
    28   169   170    1
    29   169   171    1
    30    53    52    1
    31    53    54    2
    32    56    54    1
    33   145   144    2
    34   152   149    1
    35   152   153    1
    36    78    77    2
    37    77    76    1
    38   149   148    1
    39    52    51    1
    40    54    55    1
    41   154   153    1
    42   144   148   am
    43   144   143    1
    44    75    76    1
    45   153   155    1
    46    72    70   ar
    47    72    73   ar
    48    51    50    1
    49    70    68   ar
    50    66    65    2
    51    76    79    1
    52   147   146    1
    53    74    73    1
    54   118   117    1
    55    73    71   ar
    56    68    67    1
    57    68    69   ar
    58    67    64    1
    59   146   143    1
    60    50    47    1
    61    79    80    1
    62    71    69   ar
    63   143   142    1
    64    65    64    1
    65   196   195   ar
    66   197   195   ar
    67    49    48    2
    68   195   194    1
    69    64    63    1
    70   115   116    2
    71   115   114    1
    72   112   111   ar
    73   112   110   ar
    74    47    48    1
    75    47    46    1
    76   117   114    1
    77   117   119    1
    78    93    92    2
    79    80    82   ar
    80    80    81   ar
    81   111   109   ar
    82   194   193    1
    83   142   137   am
    84    48    57   am
    85    82    84   ar
    86   193   190    1
    87   114   113    1
    88   110   108   ar
    89   191   192    2
    90   191   190    1
    91   140   139    1
    92    46    37   am
    93   138   137    2
    94    38    37    2
    95   137   136    1
    96    81    83   ar
    97   190   189    1
    98   109   108   ar
    99    92    94   am
   100    92    91    1
   101    37    36    1
   102    84    85   ar
   103   108   107    1
   104    39    40    1
   105    39    36    1
   106    57    58    1
   107    59    60    2
   108    59    58    1
   109    58    61    1
   110   141   139    1
   111   139   136    1
   112    42    40   ar
   113    42    44   ar
   114    91    90    1
   115    40    41   ar
   116    36    35    1
   117    83    85   ar
   118   179   177   am
   119   136   135    1
   120   107   104    1
   121   189   182   am
   122   104   103    1
   123   104   105    1
   124    44    45   ar
   125    41    43   ar
   126    90    87    1
   127    35    29   am
   128    61    62    1
   129   183   182    2
   130   177   176    1
   131   177   178    2
   132   135   133   am
   133   182   181    1
   134   105   106    2
   135    45    43   ar
   136   176   173    1
   137    87    86    1
   138    87    88    1
   139    33    32   ar
   140    34    32   ar
   141    89    88    2
   142    29    30    2
   143    29    28    1
   144   175   174    2
   145    32    31    1
   146   133   134    2
   147   133   132    1
   148   174   173    1
   149   174   180   am
   150   181   180    1
   151   181   184    1
   152    88    95   am
   153   173   172    1
   154     2     1    1
   155     2     3    1
   156   184   185    1
   157    31    28    1
   158    28    27    1
   159     5     3   am
   160     5     6    1
   161   131   132    1
   162     9     6    1
   163     3     4    2
   164    95    96    1
   165     6     7    1
   166   185   186    1
   167   101   100    2
   168   186   187    1
   169    10     7   am
   170    10    11    1
   171   198   199    1
   172    96    97    1
   173    96    99    1
   174     7     8    2
   175    11    12    1
   176    97    98    2
   177   100    99    1
   178   100   102   am
   179   201   200    2
   180   199   200    1
   181   187   188    1
   182   200   202   am
   183    12    13    2
   184    20    18    1
   185   216   215    1
   186   202   203    1
   187    19    18    1
   188    18    15    1
   189   203   204    1
   190   203   206    1
   191   211   204   am
   192   211   212    1
   193   215   212    1
   194   204   205    2
   195   212   213    1
   196    14    15    1
   197    15    16    1
   198   210   208   ar
   199   207   206    1
   200   207   208    1
   201   208   209   ar
   202   213   214    2
   203    16    21   am
   204    16    17    2
   205    21    22    1
   206    22    25    1
   207    22    23    1
   208    25    26    1
   209    23    24    2
