@<TRIPOS>MOLECULE
tmp/3zgvB01.pdb
 89 87 0 0 0
SMALL
GASTEIGER

@<TRIPOS>ATOM
      1  N         -5.1100   32.7910   20.9160 N.3   235  GLY235     -0.1210
      2  CA        -5.7200   31.7310   20.1390 C.3   235  GLY235      0.1956
      3  C         -6.7730   32.2390   19.1800 C.2   235  GLY235      0.2612
      4  O         -7.1650   31.5190   18.2650 O.2   235  GLY235     -0.2717
      5  N         -7.2410   33.4680   19.3800 N.am  236  GLN236     -0.1965
      6  CA        -8.2010   34.0530   18.4490 C.3   236  GLN236      0.1733
      7  C         -7.5220   35.0660   17.5420 C.2   236  GLN236      0.2617
      8  O         -6.9930   36.0770   18.0020 O.2   236  GLN236     -0.2715
      9  CB        -9.3800   34.7200   19.1670 C.3   236  GLN236      0.0408
     10  CG       -10.4950   35.1260   18.1930 C.3   236  GLN236      0.0908
     11  CD       -11.7890   35.5350   18.8780 C.2   236  GLN236      0.2608
     12  OE1      -12.8430   34.9430   18.6420 O.2   236  GLN236     -0.2717
     13  NE2      -11.7190   36.5660   19.7070 N.am  236  GLN236     -0.0878
     14  N         -7.5330   34.7750   16.2490 N.am  237  SER237     -0.1936
     15  CA        -6.9850   35.6770   15.2560 C.3   237  SER237      0.2055
     16  C         -7.5160   35.2880   13.8970 C.2   237  SER237      0.2643
     17  O         -7.8680   34.1340   13.6640 O.2   237  SER237     -0.2714
     18  CB        -5.4580   35.6030   15.2370 C.3   237  SER237      0.2130
     19  OG        -4.8960   36.2960   16.3350 O.3   237  SER237     -0.2179
     20  N         -7.5850   36.2560   12.9990 N.am  238  ASP238     -0.1957
     21  CA        -7.8460   35.9390   11.6180 C.3   238  ASP238      0.1825
     22  C         -6.5890   35.2770   11.0860 C.2   238  ASP238      0.2464
     23  O         -5.5050   35.4700   11.6340 O.2   238  ASP238     -0.2730
     24  CB        -8.2040   37.1990   10.8420 C.3   238  ASP238      0.1450
     25  CG        -9.4950   37.8220   11.3310 C.2   238  ASP238      0.3671
     26  OD1      -10.5740   37.3750   10.8830 O.co2 238  ASP238     -0.2456
     27  OD2       -9.4290   38.7400   12.1770 O.co2 238  ASP238     -0.2456
     28  N         -6.7330   34.4610   10.0390 N.am  239  PRO239     -0.2715
     29  CA        -5.6070   33.7230    9.4550 C.3   239  PRO239      0.1536
     30  C         -4.6180   34.6300    8.7420 C.2   239  PRO239      0.2598
     31  O         -4.9960   35.3550    7.8240 O.2   239  PRO239     -0.2715
     32  CB        -6.2780   32.8080    8.4340 C.3   239  PRO239      0.0310
     33  CG        -7.7250   32.7590    8.8490 C.3   239  PRO239      0.0237
     34  CD        -8.0110   34.0970    9.4130 C.3   239  PRO239      0.0939
     35  N         -3.3580   34.5650    9.1520 N.am  240  PHE240     -0.1974
     36  CA        -2.3250   35.3950    8.5740 C.3   240  PHE240      0.1639
     37  C         -1.0690   34.5600    8.3970 C.2   240  PHE240      0.2290
     38  O         -0.9080   33.5240    9.0430 O.2   240  PHE240     -0.2864
     39  CB        -2.0550   36.6100    9.4670 C.3   240  PHE240      0.0560
     40  CG        -1.4570   36.2650   10.8140 C.ar  240  PHE240     -0.0200
     41  CD1       -0.0830   36.1940   10.9790 C.ar  240  PHE240     -0.0042
     42  CD2       -2.2670   36.0210   11.9150 C.ar  240  PHE240     -0.0042
     43  CE1        0.4730   35.8810   12.2140 C.ar  240  PHE240     -0.0003
     44  CE2       -1.7150   35.7060   13.1470 C.ar  240  PHE240     -0.0003
     45  CZ        -0.3460   35.6380   13.2940 C.ar  240  PHE240     -0.0000
     46  N          1.1830   32.5070   11.1490 N.3   243  MET243     -0.1245
     47  CA         0.4130   32.1880   12.3450 C.3   243  MET243      0.1570
     48  C          0.9260   30.8840   12.9390 C.2   243  MET243      0.2261
     49  O          1.4150   30.0160   12.2200 O.2   243  MET243     -0.2867
     50  CB        -1.0820   32.0870   12.0320 C.3   243  MET243      0.0387
     51  CG        -1.4420   31.0290   11.0110 C.3   243  MET243      0.0595
     52  SD        -3.1020   31.2540   10.3530 S.3   243  MET243     -0.1393
     53  CE        -4.1480   31.0860   11.7820 C.3   243  MET243      0.0692
     54  N         -1.0440   28.9070   15.2390 N.3   245  MET245     -0.1230
     55  CA        -2.1960   28.0130   15.2310 C.3   245  MET245      0.1702
     56  C         -2.4560   27.4180   13.8550 C.2   245  MET245      0.2593
     57  O         -2.2460   28.0730   12.8410 O.2   245  MET245     -0.2718
     58  CB        -3.4470   28.7870   15.6410 C.3   245  MET245      0.0401
     59  CG        -3.5830   29.0590   17.1160 C.3   245  MET245      0.0596
     60  SD        -3.9090   27.5540   18.0170 S.3   245  MET245     -0.1393
     61  CE        -3.9530   28.1720   19.6890 C.3   245  MET245      0.0692
     62  N         -2.9450   26.1850   13.8220 N.am  246  GLY246     -0.1942
     63  CA        -3.4500   25.6170   12.5900 C.3   246  GLY246      0.2014
     64  C         -4.7760   26.2530   12.2160 C.2   246  GLY246      0.2639
     65  O         -5.5080   26.7510   13.0720 O.2   246  GLY246     -0.2714
     66  N         -5.0840   26.2410   10.9280 N.am  247  LEU247     -0.1963
     67  CA        -6.3190   26.8110   10.4270 C.3   247  LEU247      0.1728
     68  C         -7.5130   26.1530   11.1180 C.2   247  LEU247      0.2616
     69  O         -7.7000   24.9400   11.0210 O.2   247  LEU247     -0.2715
     70  CB        -6.3880   26.6070    8.9100 C.3   247  LEU247      0.0311
     71  CG        -7.3380   27.4770    8.0870 C.3   247  LEU247      0.0022
     72  CD1       -7.2090   28.9460    8.4420 C.3   247  LEU247      0.0001
     73  CD2       -7.0150   27.2630    6.6240 C.3   247  LEU247      0.0001
     74  N         -8.3090   26.9530   11.8280 N.am  248  GLY248     -0.1955
     75  CA        -9.5020   26.4650   12.5010 C.3   248  GLY248      0.1869
     76  C         -9.1970   25.7510   13.7960 C.2   248  GLY248      0.2309
     77  O        -10.0930   25.2090   14.4410 O.2   248  GLY248     -0.2863
     78  N         -7.9100   27.2160   16.4160 N.3   250  GLY250     -0.1210
     79  CA        -7.8270   28.1970   17.4800 C.3   250  GLY250      0.1956
     80  C         -9.1090   28.3640   18.2700 C.2   250  GLY250      0.2611
     81  O         -9.9910   27.5040   18.2570 O.2   250  GLY250     -0.2717
     82  N         -9.2050   29.4900   18.9660 N.am  251  MET251     -0.1979
     83  CA       -10.3750   29.8070   19.7660 C.3   251  MET251      0.1605
     84  C        -11.3150   30.7400   19.0130 C.2   251  MET251      0.2287
     85  O        -10.8760   31.5500   18.1990 O.2   251  MET251     -0.2864
     86  CB        -9.9310   30.4760   21.0590 C.3   251  MET251      0.0413
     87  CG        -8.8940   29.6760   21.8120 C.3   251  MET251      0.0598
     88  SD        -9.6240   28.4750   22.9360 S.3   251  MET251     -0.1393
     89  CE        -9.3400   29.2720   24.4930 C.3   251  MET251      0.0692
@<TRIPOS>BOND
     1    73    71    1
     2    31    30    2
     3    71    72    1
     4    71    70    1
     5    37    36    1
     6    37    38    2
     7    32    33    1
     8    32    29    1
     9    36    35    1
    10    36    39    1
    11    30    35   am
    12    30    29    1
    13    33    34    1
    14    70    67    1
    15    34    28    1
    16    29    28    1
    17    39    40    1
    18    28    22   am
    19    52    51    1
    20    52    53    1
    21    67    66    1
    22    67    68    1
    23    40    41   ar
    24    40    42   ar
    25    24    25    1
    26    24    21    1
    27    26    25   ar
    28    66    64   am
    29    41    43   ar
    30    51    50    1
    31    69    68    2
    32    22    21    1
    33    22    23    2
    34    68    74   am
    35    46    47    1
    36    25    27   ar
    37    21    20    1
    38    74    75    1
    39    42    44   ar
    40    50    47    1
    41    43    45   ar
    42    64    63    1
    43    64    65    2
    44    49    48    2
    45    47    48    1
    46    75    76    1
    47    63    62    1
    48    57    56    2
    49    20    16   am
    50    44    45   ar
    51    17    16    2
    52    76    77    2
    53    62    56   am
    54    56    55    1
    55    16    15    1
    56    55    54    1
    57    55    58    1
    58    18    15    1
    59    18    19    1
    60    15    14    1
    61    58    59    1
    62    14     7   am
    63    78    79    1
    64    59    60    1
    65    79    80    1
    66     7     8    2
    67     7     6    1
    68    60    61    1
    69    10    11    1
    70    10     9    1
    71    85    84    2
    72    81    80    2
    73     4     3    2
    74    80    82   am
    75     6     9    1
    76     6     5    1
    77    12    11    2
    78    11    13   am
    79    82    83    1
    80    84    83    1
    81     3     5   am
    82     3     2    1
    83    83    86    1
    84     2     1    1
    85    86    87    1
    86    87    88    1
    87    88    89    1
