@<TRIPOS>MOLECULE
tmp/3zgzC00.pdb
 215 210 0 0 0
SMALL
GASTEIGER

@<TRIPOS>ATOM
      1  N        -54.8440   37.6170  -35.2180 N.3    47  MET47      -0.1230
      2  CA       -53.3990   37.4580  -35.2850 C.3    47  MET47       0.1702
      3  C        -52.9120   37.4690  -36.7280 C.2    47  MET47       0.2592
      4  O        -53.3750   36.6740  -37.5470 O.2    47  MET47      -0.2718
      5  CB       -53.0250   36.1520  -34.6290 C.3    47  MET47       0.0401
      6  CG       -53.2070   36.1440  -33.1340 C.3    47  MET47       0.0596
      7  SD       -52.5110   34.6210  -32.4910 S.3    47  MET47      -0.1393
      8  CE       -52.7000   34.8870  -30.7190 C.3    47  MET47       0.0692
      9  N        -51.9810   38.3740  -37.0400 N.am   48  LEU48      -0.1966
     10  CA       -51.5880   38.6070  -38.4220 C.3    48  LEU48       0.1713
     11  C        -50.7830   37.4470  -39.0190 C.2    48  LEU48       0.2458
     12  O        -50.0100   36.7860  -38.3380 O.2    48  LEU48      -0.2730
     13  CB       -50.8430   39.9370  -38.5810 C.3    48  LEU48       0.0310
     14  CG       -49.3430   40.0510  -38.3300 C.3    48  LEU48       0.0022
     15  CD1      -48.8860   41.4930  -38.5330 C.3    48  LEU48       0.0001
     16  CD2      -49.0580   39.5920  -36.9230 C.3    48  LEU48       0.0001
     17  N        -50.9730   37.2000  -40.3210 N.am   49  PRO49      -0.2716
     18  CA       -50.3900   36.0390  -40.9910 C.3    49  PRO49       0.1536
     19  C        -48.9250   36.1890  -41.2900 C.2    49  PRO49       0.2598
     20  O        -48.4840   37.3030  -41.5400 O.2    49  PRO49      -0.2715
     21  CB       -51.1340   36.0090  -42.3220 C.3    49  PRO49       0.0310
     22  CG       -51.5310   37.4140  -42.5500 C.3    49  PRO49       0.0237
     23  CD       -51.9030   37.9250  -41.2020 C.3    49  PRO49       0.0939
     24  N        -48.1930   35.0720  -41.2570 N.am   50  TYR50      -0.1974
     25  CA       -46.8760   34.9910  -41.8640 C.3    50  TYR50       0.1639
     26  C        -47.1230   34.7260  -43.3510 C.2    50  TYR50       0.2290
     27  O        -47.9310   33.8750  -43.6940 O.2    50  TYR50      -0.2864
     28  CB       -46.0100   33.8520  -41.2780 C.3    50  TYR50       0.0560
     29  CG       -44.6300   33.8320  -41.8970 C.ar   50  TYR50      -0.0198
     30  CD1      -44.3840   33.1270  -43.0740 C.ar   50  TYR50      -0.0009
     31  CD2      -43.6040   34.5860  -41.3650 C.ar   50  TYR50      -0.0009
     32  CE1      -43.1410   33.1520  -43.6820 C.ar   50  TYR50       0.0417
     33  CE2      -42.3660   34.6240  -41.9650 C.ar   50  TYR50       0.0417
     34  CZ       -42.1350   33.9060  -43.1220 C.ar   50  TYR50       0.1957
     35  OH       -40.8910   33.9440  -43.7050 O.3    50  TYR50      -0.2866
     36  N        -53.9950   28.6650  -45.3920 N.3    56  HIS56      -0.1241
     37  CA       -54.5290   27.3560  -45.0520 C.3    56  HIS56       0.1621
     38  C        -55.8120   27.4850  -44.2330 C.2    56  HIS56       0.2264
     39  O        -56.2530   28.6080  -43.9030 O.2    56  HIS56      -0.2867
     40  CB       -53.4660   26.4940  -44.3510 C.3    56  HIS56       0.0745
     41  CG       -52.8480   27.1240  -43.1090 C.ar   56  HIS56       0.0817
     42  ND1      -53.5710   27.5100  -42.0580 N.ar   56  HIS56      -0.2268
     43  CD2      -51.5200   27.3650  -42.7740 C.ar   56  HIS56       0.1154
     44  CE1      -52.7590   27.9930  -41.1110 C.ar   56  HIS56       0.1986
     45  NE2      -51.5080   27.9030  -41.5470 N.ar   56  HIS56      -0.2212
     46  N        -56.4990   26.9400  -41.2720 N.3    58  GLY58      -0.1210
     47  CA       -56.2720   27.6160  -39.9960 C.3    58  GLY58       0.1956
     48  C        -56.4760   29.1080  -40.1260 C.2    58  GLY58       0.2611
     49  O        -57.1870   29.7130  -39.3160 O.2    58  GLY58      -0.2717
     50  N        -55.8850   29.7030  -41.1630 N.am   59  HIS59      -0.1975
     51  CA       -56.0910   31.1310  -41.4220 C.3    59  HIS59       0.1656
     52  C        -57.5470   31.3990  -41.6230 C.2    59  HIS59       0.2291
     53  O        -58.1370   32.2920  -40.9860 O.2    59  HIS59      -0.2864
     54  CB       -55.3640   31.5620  -42.6650 C.3    59  HIS59       0.0771
     55  CG       -53.8740   31.5260  -42.5460 C.ar   59  HIS59       0.0820
     56  ND1      -53.1020   30.7750  -43.3570 N.ar   59  HIS59      -0.2267
     57  CD2      -53.0180   32.2140  -41.7100 C.ar   59  HIS59       0.1154
     58  CE1      -51.8110   30.9670  -43.0430 C.ar   59  HIS59       0.1986
     59  NE2      -51.7650   31.8520  -42.0260 N.ar   59  HIS59      -0.2212
     60  N        -59.4310   31.3070  -38.3860 N.3    62  ASN62      -0.1225
     61  CA       -59.0740   32.5010  -37.6100 C.3    62  ASN62       0.1785
     62  C        -59.7520   33.7790  -38.1270 C.2    62  ASN62       0.2597
     63  O        -60.4150   34.5090  -37.3820 O.2    62  ASN62      -0.2718
     64  CB       -57.5540   32.7060  -37.6090 C.3    62  ASN62       0.1169
     65  CG       -57.0590   33.3620  -36.3400 C.2    62  ASN62       0.2627
     66  OD1      -57.0320   32.7400  -35.2840 O.2    62  ASN62      -0.2716
     67  ND2      -56.6770   34.6110  -36.4280 N.am   62  ASN62      -0.0877
     68  N        -59.5740   34.0490  -39.4050 N.am   63  TYR63      -0.1976
     69  CA       -59.9910   35.2980  -39.9590 C.3    63  TYR63       0.1639
     70  C        -61.4860   35.3140  -40.2330 C.2    63  TYR63       0.2290
     71  O        -62.0950   36.3890  -40.2190 O.2    63  TYR63      -0.2864
     72  CB       -59.1830   35.6150  -41.2160 C.3    63  TYR63       0.0560
     73  CG       -57.6930   35.5950  -40.9530 C.ar   63  TYR63      -0.0198
     74  CD1      -57.1490   36.3360  -39.9240 C.ar   63  TYR63      -0.0009
     75  CD2      -56.8400   34.8140  -41.7050 C.ar   63  TYR63      -0.0009
     76  CE1      -55.7890   36.3120  -39.6640 C.ar   63  TYR63       0.0417
     77  CE2      -55.4820   34.7780  -41.4470 C.ar   63  TYR63       0.0417
     78  CZ       -54.9530   35.5370  -40.4330 C.ar   63  TYR63       0.1957
     79  OH       -53.5970   35.4990  -40.1660 O.3    63  TYR63      -0.2866
     80  N        -46.5400   39.5740  -40.9530 N.3    87  ASP87      -0.1239
     81  CA       -45.4350   39.3100  -40.0370 C.3    87  ASP87       0.1674
     82  C        -44.3750   38.6780  -40.9400 C.2    87  ASP87       0.2266
     83  O        -44.3400   37.4650  -41.1160 O.2    87  ASP87      -0.2867
     84  CB       -45.9350   38.3620  -38.9390 C.3    87  ASP87       0.1410
     85  CG       -44.9020   38.0680  -37.8810 C.2    87  ASP87       0.3668
     86  OD1      -43.8290   38.7350  -37.8570 O.co2  87  ASP87      -0.2456
     87  OD2      -45.1810   37.1520  -37.0590 O.co2  87  ASP87      -0.2456
     88  N        -40.6460   37.8250  -33.0520 N.3   500  PHE500     -0.1241
     89  CA       -41.5890   38.2010  -32.0080 C.3   500  PHE500      0.1605
     90  C        -41.5650   39.6900  -31.6280 C.2   500  PHE500      0.2264
     91  O        -42.5960   40.2490  -31.2670 O.2   500  PHE500     -0.2867
     92  CB       -41.3890   37.3200  -30.7680 C.3   500  PHE500      0.0534
     93  CG       -41.9590   35.9340  -30.9120 C.ar  500  PHE500     -0.0203
     94  CD1      -43.2860   35.7470  -31.3020 C.ar  500  PHE500     -0.0042
     95  CD2      -41.1800   34.8150  -30.6660 C.ar  500  PHE500     -0.0042
     96  CE1      -43.8190   34.4750  -31.4380 C.ar  500  PHE500     -0.0003
     97  CE2      -41.7150   33.5390  -30.8000 C.ar  500  PHE500     -0.0003
     98  CZ       -43.0330   33.3700  -31.1860 C.ar  500  PHE500     -0.0000
     99  N        -44.1450   41.3710  -33.8150 N.3   503  SER503     -0.1217
    100  CA       -45.5210   40.9640  -33.5770 C.3   503  SER503      0.1889
    101  C        -46.0130   41.3480  -32.2040 C.2   503  SER503      0.2288
    102  O        -47.1690   41.1080  -31.8810 O.2   503  SER503     -0.2866
    103  CB       -45.7090   39.4650  -33.8060 C.3   503  SER503      0.2089
    104  OG       -44.9310   38.6940  -32.9220 O.3   503  SER503     -0.2183
    105  N        -47.5410   45.3080  -33.2720 N.3   506  TYR506     -0.1241
    106  CA       -48.2710   45.6160  -34.5010 C.3   506  TYR506      0.1605
    107  C        -49.7060   46.0900  -34.2120 C.2   506  TYR506      0.2264
    108  O        -50.2680   46.8770  -34.9870 O.2   506  TYR506     -0.2867
    109  CB       -48.2800   44.4240  -35.4680 C.3   506  TYR506      0.0534
    110  CG       -49.2490   43.3340  -35.0660 C.ar  506  TYR506     -0.0201
    111  CD1      -49.0100   42.5220  -33.9710 C.ar  506  TYR506     -0.0009
    112  CD2      -50.4090   43.1240  -35.7800 C.ar  506  TYR506     -0.0009
    113  CE1      -49.8990   41.5270  -33.6160 C.ar  506  TYR506      0.0417
    114  CE2      -51.3050   42.1350  -35.4260 C.ar  506  TYR506      0.0417
    115  CZ       -51.0470   41.3460  -34.3480 C.ar  506  TYR506      0.1957
    116  OH       -51.9460   40.3700  -34.0250 O.3   506  TYR506     -0.2866
    117  N        -59.2390   39.8330  -29.2330 N.3   534  TYR534     -0.1241
    118  CA       -58.0780   39.3330  -29.9640 C.3   534  TYR534      0.1605
    119  C        -58.3240   37.8750  -30.2880 C.2   534  TYR534      0.2264
    120  O        -58.5320   37.0560  -29.3760 O.2   534  TYR534     -0.2867
    121  CB       -56.8290   39.4760  -29.1170 C.3   534  TYR534      0.0534
    122  CG       -55.5120   39.3420  -29.8350 C.ar  534  TYR534     -0.0201
    123  CD1      -55.3990   39.5360  -31.2010 C.ar  534  TYR534     -0.0009
    124  CD2      -54.3540   39.0770  -29.1240 C.ar  534  TYR534     -0.0009
    125  CE1      -54.1720   39.4250  -31.8390 C.ar  534  TYR534      0.0417
    126  CE2      -53.1360   38.9750  -29.7530 C.ar  534  TYR534      0.0417
    127  CZ       -53.0490   39.1560  -31.1130 C.ar  534  TYR534      0.1957
    128  OH       -51.8370   39.0630  -31.7490 O.3   534  TYR534     -0.2866
    129  N        -54.8300   31.6320  -32.1960 N.3   537  GLY537     -0.1225
    130  CA       -54.7990   30.2010  -31.9340 C.3   537  GLY537      0.1811
    131  C        -54.1000   29.8900  -30.6370 C.2   537  GLY537      0.2280
    132  O        -53.1410   30.5480  -30.2660 O.2   537  GLY537     -0.2866
    133  N        -51.9540   27.8450  -29.8710 N.3   539  GLU539     -0.1231
    134  CA       -50.4940   27.7280  -30.0440 C.3   539  GLU539      0.1699
    135  C        -49.7190   28.9430  -29.5600 C.2   539  GLU539      0.2592
    136  O        -48.5580   28.8400  -29.1910 O.2   539  GLU539     -0.2718
    137  CB       -50.1470   27.5160  -31.5240 C.3   539  GLU539      0.0402
    138  CG       -50.6860   28.5990  -32.4660 C.3   539  GLU539      0.1161
    139  CD       -50.0980   28.5700  -33.8710 C.2   539  GLU539      0.3649
    140  OE1      -49.0960   27.8450  -34.0940 O.co2 539  GLU539     -0.2457
    141  OE2      -50.6340   29.2760  -34.7560 O.co2 539  GLU539     -0.2457
    142  N        -50.3540   30.1030  -29.5960 N.am  540  HIS540     -0.1976
    143  CA       -49.7160   31.3520  -29.1930 C.3   540  HIS540      0.1656
    144  C        -50.1060   31.7900  -27.8000 C.2   540  HIS540      0.2291
    145  O        -49.9720   32.9770  -27.4680 O.2   540  HIS540     -0.2864
    146  CB       -50.0940   32.4490  -30.1870 C.3   540  HIS540      0.0771
    147  CG       -49.3860   32.3310  -31.5080 C.ar  540  HIS540      0.0820
    148  ND1      -48.0530   32.3740  -31.6100 N.ar  540  HIS540     -0.2267
    149  CD2      -49.8770   32.1510  -32.7980 C.ar  540  HIS540      0.1154
    150  CE1      -47.7070   32.2530  -32.8930 C.ar  540  HIS540      0.1986
    151  NE2      -48.8270   32.1060  -33.6180 N.ar  540  HIS540     -0.2212
    152  N        -46.1220   34.3530  -27.4940 N.3   544  HIS544     -0.1241
    153  CA       -46.5080   35.6060  -28.1680 C.3   544  HIS544      0.1621
    154  C        -47.3340   36.4710  -27.2520 C.2   544  HIS544      0.2264
    155  O        -47.1030   37.6770  -27.1550 O.2   544  HIS544     -0.2867
    156  CB       -47.2680   35.3590  -29.4660 C.3   544  HIS544      0.0745
    157  CG       -48.0900   36.5510  -29.9220 C.ar  544  HIS544      0.0817
    158  ND1      -47.5350   37.7210  -30.2660 N.ar  544  HIS544     -0.2268
    159  CD2      -49.4740   36.7110  -30.0790 C.ar  544  HIS544      0.1154
    160  CE1      -48.5120   38.5890  -30.6120 C.ar  544  HIS544      0.1986
    161  NE2      -49.6900   37.9710  -30.4900 N.ar  544  HIS544     -0.2212
    162  N        -58.8380   30.1480  -30.6340 N.3   573  GLN573     -0.1231
    163  CA       -59.4310   29.0420  -31.3450 C.3   573  GLN573      0.1698
    164  C        -58.5170   27.8110  -31.2870 C.2   573  GLN573      0.2593
    165  O        -57.2980   27.9100  -31.0930 O.2   573  GLN573     -0.2718
    166  CB       -59.7510   29.4150  -32.7980 C.3   573  GLN573      0.0381
    167  CG       -58.5570   29.8140  -33.6580 C.3   573  GLN573      0.0905
    168  CD       -58.6890   29.3510  -35.0940 C.2   573  GLN573      0.2608
    169  OE1      -59.5330   28.5140  -35.4010 O.2   573  GLN573     -0.2717
    170  NE2      -57.8440   29.8750  -35.9800 N.am  573  GLN573     -0.0878
    171  N        -59.1330   26.6450  -31.4250 N.am  574  GLY574     -0.1942
    172  CA       -58.3980   25.4110  -31.5210 C.3   574  GLY574      0.2014
    173  C        -57.6080   25.3620  -32.8170 C.2   574  GLY574      0.2639
    174  O        -57.9100   26.0490  -33.7770 O.2   574  GLY574     -0.2714
    175  N        -56.5830   24.5430  -32.8380 N.am  575  MET575     -0.1963
    176  CA       -55.8170   24.3780  -34.0310 C.3   575  MET575      0.1736
    177  C        -56.6280   23.5710  -35.0570 C.2   575  MET575      0.2616
    178  O        -57.3410   22.6190  -34.7150 O.2   575  MET575     -0.2715
    179  CB       -54.4800   23.7050  -33.6850 C.3   575  MET575      0.0427
    180  CG       -53.6490   24.4700  -32.6530 C.3   575  MET575      0.0599
    181  SD       -53.5390   26.2590  -32.9610 S.3   575  MET575     -0.1393
    182  CE       -52.5390   26.2290  -34.4550 C.3   575  MET575      0.0692
    183  N        -56.5410   23.9910  -36.3110 N.am  576  VAL576     -0.1977
    184  CA       -56.9640   23.1620  -37.4280 C.3   576  VAL576      0.1596
    185  C        -55.8120   22.2020  -37.7710 C.2   576  VAL576      0.2287
    186  O        -54.7040   22.6290  -38.0560 O.2   576  VAL576     -0.2864
    187  CB       -57.3680   24.0260  -38.6190 C.3   576  VAL576      0.0276
    188  CG1      -57.8080   23.1520  -39.7740 C.3   576  VAL576      0.0022
    189  CG2      -58.4820   24.9760  -38.1890 C.3   576  VAL576      0.0022
    190  N        -50.8800   20.4230  -36.3640 N.3   626  LYS626     -0.1231
    191  CA       -51.3110   21.7380  -36.7930 C.3   626  LYS626      0.1693
    192  C        -50.9640   21.9280  -38.2650 C.2   626  LYS626      0.2591
    193  O        -49.8980   21.4770  -38.7290 O.2   626  LYS626     -0.2718
    194  CB       -50.7180   22.8500  -35.9180 C.3   626  LYS626      0.0285
    195  CG       -49.2440   23.1830  -36.0990 C.3   626  LYS626      0.0035
    196  CD       -48.9060   24.4340  -35.2900 C.3   626  LYS626      0.0206
    197  CE       -47.4130   24.7430  -35.2120 C.3   626  LYS626      0.1093
    198  NZ       -47.1630   26.0920  -34.6160 N.3   626  LYS626     -0.1314
    199  N        -51.8980   22.5100  -39.0120 N.am  627  MET627     -0.1979
    200  CA       -51.6260   22.9240  -40.3760 C.3   627  MET627      0.1605
    201  C        -50.5420   23.9710  -40.3230 C.2   627  MET627      0.2287
    202  O        -50.7220   24.9960  -39.6760 O.2   627  MET627     -0.2864
    203  CB       -52.8380   23.5890  -40.9920 C.3   627  MET627      0.0413
    204  CG       -54.0270   22.6860  -41.1950 C.3   627  MET627      0.0598
    205  SD       -55.0120   23.2960  -42.5710 S.3   627  MET627     -0.1393
    206  CE       -56.1780   21.9400  -42.7240 C.3   627  MET627      0.0692
    207  N        -46.9920   25.9630  -42.3640 N.3   629  LYS629     -0.1245
    208  CA       -45.9570   26.2670  -43.3430 C.3   629  LYS629      0.1561
    209  C        -44.8840   25.1860  -43.4360 C.2   629  LYS629      0.2260
    210  O        -44.6010   24.6920  -44.5230 O.2   629  LYS629     -0.2867
    211  CB       -45.3090   27.6170  -42.9790 C.3   629  LYS629      0.0271
    212  CG       -44.8670   27.7620  -41.5160 C.3   629  LYS629      0.0035
    213  CD       -44.9310   29.2120  -41.0190 C.3   629  LYS629      0.0206
    214  CE       -45.1310   29.3140  -39.5040 C.3   629  LYS629      0.1093
    215  NZ       -45.7880   30.6060  -39.0810 N.3   629  LYS629     -0.1314
@<TRIPOS>BOND
     1    36    37    1
     2    37    40    1
     3    37    38    1
     4   210   209    2
     5    40    41    1
     6    38    39    2
     7    35    34    1
     8    27    26    2
     9    32    34   ar
    10    32    30   ar
    11   209   208    1
    12    56    58   ar
    13    56    55   ar
    14    26    25    1
    15   208   211    1
    16   208   207    1
    17    34    33   ar
    18    41    43   ar
    19    41    42   ar
    20    30    29   ar
    21    58    59   ar
    22   211   212    1
    23    43    45   ar
    24   206   205    1
    25    54    55    1
    26    54    51    1
    27   205   204    1
    28    22    21    1
    29    22    23    1
    30    55    57   ar
    31    21    18    1
    32    42    44   ar
    33    59    57   ar
    34    33    31   ar
    35    29    31   ar
    36    29    28    1
    37    25    28    1
    38    25    24    1
    39    75    77   ar
    40    75    73   ar
    41    52    51    1
    42    52    53    2
    43    45    44   ar
    44    20    19    2
    45   212   213    1
    46    77    78   ar
    47    51    50    1
    48    19    24   am
    49    19    18    1
    50    46    47    1
    51    72    73    1
    52    72    69    1
    53    23    17    1
    54   204   203    1
    55    50    48   am
    56    83    82    2
    57   213   214    1
    58   203   200    1
    59    18    17    1
    60    73    74   ar
    61    80    81    1
    62    82    81    1
    63    78    79    1
    64    78    76   ar
    65   200   201    1
    66   200   199    1
    67   201   202    2
    68    17    11   am
    69    70    71    2
    70    70    69    1
    71    48    47    1
    72    48    49    2
    73    81    84    1
    74    69    68    1
    75    74    76   ar
    76   188   187    1
    77   214   215    1
    78    68    62   am
    79    11    10    1
    80    11    12    2
    81   199   192   am
    82    84    85    1
    83   193   192    2
    84   187   189    1
    85   187   184    1
    86    13    10    1
    87    13    14    1
    88    15    14    1
    89    10     9    1
    90    60    61    1
    91    14    16    1
    92   192   191    1
    93    62    61    1
    94    62    63    2
    95   186   185    2
    96    85    86   ar
    97    85    87   ar
    98   185   184    1
    99    61    64    1
   100    64    65    1
   101     4     3    2
   102   184   183    1
   103     9     3   am
   104   191   190    1
   105   191   194    1
   106     3     2    1
   107    67    65   am
   108    65    66    2
   109   183   177   am
   110   195   194    1
   111   195   196    1
   112   170   168   am
   113   112   114   ar
   114   112   110   ar
   115   109   110    1
   116   109   106    1
   117   114   115   ar
   118   169   168    2
   119   196   197    1
   120     2     1    1
   121     2     5    1
   122   197   198    1
   123   168   167    1
   124   110   111   ar
   125   177   178    2
   126   177   176    1
   127   108   107    2
   128   141   139   ar
   129     5     6    1
   130   106   107    1
   131   106   105    1
   132   182   181    1
   133   115   116    1
   134   115   113   ar
   135   140   139   ar
   136   176   179    1
   137   176   175    1
   138   111   113   ar
   139   139   138    1
   140    99   100    1
   141   103   100    1
   142   103   104    1
   143   174   173    2
   144   179   180    1
   145   167   166    1
   146   151   150   ar
   147   151   149   ar
   148   100   101    1
   149     6     7    1
   150    88    89    1
   151   181   180    1
   152   150   148   ar
   153   175   173   am
   154   173   172    1
   155   166   163    1
   156   149   147   ar
   157     7     8    1
   158   138   137    1
   159   101   102    2
   160   129   130    1
   161    89    90    1
   162    89    92    1
   163   130   131    1
   164   125   123   ar
   165   125   127   ar
   166   128   127    1
   167    90    91    2
   168   148   147   ar
   169   137   134    1
   170   172   171    1
   171   147   146    1
   172    96    94   ar
   173    96    98   ar
   174   171   164   am
   175   163   164    1
   176   163   162    1
   177    94    93   ar
   178   164   165    2
   179   123   122   ar
   180    98    97   ar
   181   127   126   ar
   182    93    92    1
   183    93    95   ar
   184    97    95   ar
   185   131   132    2
   186   160   161   ar
   187   160   158   ar
   188   161   159   ar
   189   119   118    1
   190   119   120    2
   191   158   157   ar
   192   146   143    1
   193   159   157   ar
   194   134   133    1
   195   134   135    1
   196   118   117    1
   197   118   121    1
   198   157   156    1
   199   122   124   ar
   200   122   121    1
   201   126   124   ar
   202   142   135   am
   203   142   143    1
   204   135   136    2
   205   156   153    1
   206   143   144    1
   207   153   152    1
   208   153   154    1
   209   144   145    2
   210   154   155    2
