@<TRIPOS>MOLECULE
tmp/3zh4A00.pdb
 97 91 0 0 0
SMALL
GASTEIGER

@<TRIPOS>ATOM
      1  N         -8.8390   20.5910   -8.3960 N.3    22  LYS22      -0.1231
      2  CA        -8.3500   19.3910   -7.7280 C.3    22  LYS22       0.1693
      3  C         -6.8650   19.2420   -7.9940 C.2    22  LYS22       0.2592
      4  O         -6.0780   18.9560   -7.0870 O.2    22  LYS22      -0.2718
      5  CB        -9.0840   18.1510   -8.2390 C.3    22  LYS22       0.0285
      6  CG        -8.3080   16.8470   -8.0300 C.3    22  LYS22       0.0035
      7  CD        -9.0930   15.6380   -8.5690 C.3    22  LYS22       0.0206
      8  CE        -8.2430   14.3740   -8.5540 C.3    22  LYS22       0.1093
      9  NZ        -7.0450   14.4920   -9.4310 N.3    22  LYS22      -0.1314
     10  N         -6.4630   19.4590   -9.2420 N.am   23  ASN23      -0.1974
     11  CA        -5.1060   19.0940   -9.6270 C.3    23  ASN23       0.1688
     12  C         -4.0320   20.1180   -9.2820 C.2    23  ASN23       0.2292
     13  O         -2.8310   19.8570   -9.4350 O.2    23  ASN23      -0.2864
     14  CB        -5.0550   18.6130  -11.0740 C.3    23  ASN23       0.1181
     15  CG        -5.7040   17.2570  -11.2300 C.2    23  ASN23       0.2629
     16  OD1       -5.5300   16.3780  -10.3700 O.2    23  ASN23      -0.2716
     17  ND2       -6.4860   17.0810  -12.2950 N.am   23  ASN23      -0.0877
     18  N         -2.5970    9.2930   -6.7660 N.3    89  ARG89      -0.1245
     19  CA        -1.4630    9.7600   -7.5610 C.3    89  ARG89       0.1563
     20  C         -0.7330   10.9000   -6.8500 C.2    89  ARG89       0.2260
     21  O          0.4890   11.0400   -6.9510 O.2    89  ARG89      -0.2867
     22  CB        -1.9610   10.2160   -8.9440 C.3    89  ARG89       0.0307
     23  CG        -0.9510   10.0890  -10.0860 C.3    89  ARG89       0.0489
     24  CD        -1.6170   10.3070  -11.4500 C.3    89  ARG89       0.2205
     25  NE        -2.5580    9.2380  -11.7800 N.pl3  89  ARG89      -0.0865
     26  CZ        -2.2470    8.1410  -12.4680 C.cat  89  ARG89       0.5346
     27  NH1       -1.0110    7.9520  -12.9180 N.pl3  89  ARG89       0.1354
     28  NH2       -3.1770    7.2270  -12.7080 N.pl3  89  ARG89       0.1354
     29  N         -7.9990   14.5140  -19.0530 N.3   299  ASP299     -0.1239
     30  CA        -9.0190   14.5420  -17.9960 C.3   299  ASP299      0.1674
     31  C        -10.3960   15.0350  -18.4840 C.2   299  ASP299      0.2266
     32  O        -11.3860   14.9560  -17.7480 O.2   299  ASP299     -0.2867
     33  CB        -8.5520   15.3990  -16.7960 C.3   299  ASP299      0.1410
     34  CG        -7.3170   14.8370  -16.0960 C.2   299  ASP299      0.3668
     35  OD1       -6.9020   13.6890  -16.3830 O.co2 299  ASP299     -0.2456
     36  OD2       -6.7520   15.5590  -15.2400 O.co2 299  ASP299     -0.2456
     37  N         -3.2590    8.5710  -21.8330 N.3   322  TYR322     -0.1241
     38  CA        -3.6750    7.3420  -21.1760 C.3   322  TYR322      0.1605
     39  C         -4.4400    6.4850  -22.1780 C.2   322  TYR322      0.2264
     40  O         -5.6650    6.5920  -22.3050 O.2   322  TYR322     -0.2867
     41  CB        -4.5320    7.6660  -19.9470 C.3   322  TYR322      0.0534
     42  CG        -3.7360    8.3080  -18.8360 C.ar  322  TYR322     -0.0201
     43  CD1       -2.7280    7.6010  -18.1940 C.ar  322  TYR322     -0.0009
     44  CD2       -3.9890    9.6190  -18.4290 C.ar  322  TYR322     -0.0009
     45  CE1       -1.9950    8.1740  -17.1820 C.ar  322  TYR322      0.0417
     46  CE2       -3.2550   10.2020  -17.4100 C.ar  322  TYR322      0.0417
     47  CZ        -2.2600    9.4700  -16.7920 C.ar  322  TYR322      0.1957
     48  OH        -1.5130   10.0240  -15.7730 O.3   322  TYR322     -0.2866
     49  N         -7.6330    4.5610  -21.2480 N.3   325  ARG325     -0.1245
     50  CA        -8.6330    5.2810  -20.4600 C.3   325  ARG325      0.1563
     51  C         -9.9990    5.1440  -21.1330 C.2   325  ARG325      0.2260
     52  O        -10.4890    6.0790  -21.7690 O.2   325  ARG325     -0.2867
     53  CB        -8.2290    6.7540  -20.2980 C.3   325  ARG325      0.0307
     54  CG        -9.0080    7.5120  -19.2340 C.3   325  ARG325      0.0489
     55  CD        -8.4900    8.9420  -19.0680 C.3   325  ARG325      0.2205
     56  NE        -9.0300    9.5520  -17.8590 N.pl3 325  ARG325     -0.0865
     57  CZ        -8.5330   10.6280  -17.2600 C.cat 325  ARG325      0.5346
     58  NH1       -7.4680   11.2450  -17.7560 N.pl3 325  ARG325      0.1354
     59  NH2       -9.1080   11.0820  -16.1600 N.pl3 325  ARG325      0.1354
     60  N        -13.8410    5.2100  -12.4220 N.3   363  ASP363     -0.1225
     61  CA       -12.8230    6.1840  -12.0840 C.3   363  ASP363      0.1805
     62  C        -13.4690    7.5630  -12.0520 C.2   363  ASP363      0.2598
     63  O        -14.6520    7.7100  -12.3670 O.2   363  ASP363     -0.2718
     64  CB       -11.6540    6.1350  -13.0830 C.3   363  ASP363      0.1424
     65  CG       -12.1150    6.1310  -14.5330 C.2   363  ASP363      0.3668
     66  OD1      -12.3640    5.0270  -15.0820 O.co2 363  ASP363     -0.2456
     67  OD2      -12.2170    7.2300  -15.1270 O.co2 363  ASP363     -0.2456
     68  N        -12.6890    8.5670  -11.6650 N.am  364  LEU364     -0.1966
     69  CA       -13.1990    9.9290  -11.4770 C.3   364  LEU364      0.1728
     70  C        -13.9280   10.5150  -12.6790 C.2   364  LEU364      0.2616
     71  O        -15.0960   10.9230  -12.5770 O.2   364  LEU364     -0.2715
     72  CB       -12.0450   10.8610  -11.0670 C.3   364  LEU364      0.0311
     73  CG       -12.3600   12.3600  -10.9610 C.3   364  LEU364      0.0022
     74  CD1      -13.5610   12.6100  -10.0820 C.3   364  LEU364      0.0001
     75  CD2      -11.1400   13.1100  -10.4170 C.3   364  LEU364      0.0001
     76  N        -13.2480   10.5810  -13.8200 N.am  365  ARG365     -0.1977
     77  CA       -13.8280   11.2660  -14.9730 C.3   365  ARG365      0.1597
     78  C        -14.8380   10.3780  -15.7000 C.2   365  ARG365      0.2287
     79  O        -15.7770   10.8820  -16.3020 O.2   365  ARG365     -0.2864
     80  CB       -12.7420   11.7920  -15.9250 C.3   365  ARG365      0.0334
     81  CG       -11.6710   12.6680  -15.2540 C.3   365  ARG365      0.0492
     82  CD       -12.2270   13.9070  -14.5500 C.3   365  ARG365      0.2205
     83  NE       -11.1710   14.5790  -13.7900 N.pl3 365  ARG365     -0.0865
     84  CZ       -11.3640   15.5980  -12.9530 C.cat 365  ARG365      0.5346
     85  NH1      -12.5820   16.0970  -12.7600 N.pl3 365  ARG365      0.1354
     86  NH2      -10.3300   16.1250  -12.3090 N.pl3 365  ARG365      0.1354
     87  N        -14.2140   12.0910   -5.3750 N.3   391  ARG391     -0.1245
     88  CA       -12.7830   12.4100   -5.3190 C.3   391  ARG391      0.1563
     89  C        -12.4870   13.7750   -5.8990 C.2   391  ARG391      0.2260
     90  O        -11.5270   14.4370   -5.4960 O.2   391  ARG391     -0.2867
     91  CB       -11.9570   11.3830   -6.1060 C.3   391  ARG391      0.0307
     92  CG       -11.7070   10.0610   -5.4000 C.3   391  ARG391      0.0489
     93  CD       -10.6670    9.2540   -6.1710 C.3   391  ARG391      0.2205
     94  NE        -9.4180   10.0070   -6.2920 N.pl3 391  ARG391     -0.0865
     95  CZ        -8.5490    9.8860   -7.2940 C.cat 391  ARG391      0.5346
     96  NH1       -8.7780    9.0290   -8.2800 N.pl3 391  ARG391      0.1354
     97  NH2       -7.4430   10.6260   -7.3100 N.pl3 391  ARG391      0.1354
@<TRIPOS>BOND
     1    40    39    2
     2    39    38    1
     3    37    38    1
     4    52    51    2
     5    49    50    1
     6    38    41    1
     7    51    50    1
     8    50    53    1
     9    53    54    1
    10    41    42    1
    11    54    55    1
    12    55    56    1
    13    29    30    1
    14    42    44   ar
    15    42    43   ar
    16    31    30    1
    17    31    32    2
    18    44    46   ar
    19    43    45   ar
    20    30    33    1
    21    56    57    2
    22    58    57    1
    23    46    47   ar
    24    57    59    1
    25    45    47   ar
    26    33    34    1
    27    47    48    1
    28    35    34   ar
    29    79    78    2
    30    34    36   ar
    31    80    81    1
    32    80    77    1
    33    78    77    1
    34    81    82    1
    35    67    65   ar
    36    66    65   ar
    37    77    76    1
    38    82    83    1
    39    65    64    1
    40    76    70   am
    41    83    84    2
    42    64    61    1
    43    84    85    1
    44    84    86    1
    45    27    26    1
    46    28    26    1
    47    70    71    2
    48    70    69    1
    49    26    25    2
    50    60    61    1
    51    63    62    2
    52    17    15   am
    53    61    62    1
    54    62    68   am
    55    25    24    1
    56    68    69    1
    57    69    72    1
    58    24    23    1
    59    15    14    1
    60    15    16    2
    61    14    11    1
    62    72    73    1
    63    73    75    1
    64    73    74    1
    65    23    22    1
    66    11    12    1
    67    11    10    1
    68    13    12    2
    69     9     8    1
    70    10     3   am
    71    22    19    1
    72     7     8    1
    73     7     6    1
    74     1     2    1
    75    96    95    1
    76     5     6    1
    77     5     2    1
    78     3     2    1
    79     3     4    2
    80    19    20    1
    81    19    18    1
    82    97    95    1
    83    95    94    2
    84    21    20    2
    85    94    93    1
    86    93    92    1
    87    91    92    1
    88    91    88    1
    89    89    90    2
    90    89    88    1
    91    87    88    1
