@<TRIPOS>MOLECULE
tmp/3zh4A01.pdb
 104 102 0 0 0
SMALL
GASTEIGER

@<TRIPOS>ATOM
      1  N         -6.4630   19.4590   -9.2420 N.3    23  ASN23      -0.1240
      2  CA        -5.1060   19.0940   -9.6270 C.3    23  ASN23       0.1653
      3  C         -4.0320   20.1180   -9.2820 C.2    23  ASN23       0.2266
      4  O         -2.8310   19.8570   -9.4350 O.2    23  ASN23      -0.2867
      5  CB        -5.0550   18.6130  -11.0740 C.3    23  ASN23       0.1155
      6  CG        -5.7040   17.2570  -11.2300 C.2    23  ASN23       0.2627
      7  OD1       -5.5300   16.3780  -10.3700 O.2    23  ASN23      -0.2716
      8  ND2       -6.4860   17.0810  -12.2950 N.am   23  ASN23      -0.0877
      9  N         -2.5970    9.2930   -6.7660 N.3    89  ARG89      -0.1245
     10  CA        -1.4630    9.7600   -7.5610 C.3    89  ARG89       0.1563
     11  C         -0.7330   10.9000   -6.8500 C.2    89  ARG89       0.2260
     12  O          0.4890   11.0400   -6.9510 O.2    89  ARG89      -0.2867
     13  CB        -1.9610   10.2160   -8.9440 C.3    89  ARG89       0.0307
     14  CG        -0.9510   10.0890  -10.0860 C.3    89  ARG89       0.0489
     15  CD        -1.6170   10.3070  -11.4500 C.3    89  ARG89       0.2205
     16  NE        -2.5580    9.2380  -11.7800 N.pl3  89  ARG89      -0.0865
     17  CZ        -2.2470    8.1410  -12.4680 C.cat  89  ARG89       0.5346
     18  NH1       -1.0110    7.9520  -12.9180 N.pl3  89  ARG89       0.1354
     19  NH2       -3.1770    7.2270  -12.7080 N.pl3  89  ARG89       0.1354
     20  N          2.6080   11.0120   -4.4240 N.3    92  TYR92      -0.1227
     21  CA         3.9820   11.1940   -4.9030 C.3    92  TYR92       0.1736
     22  C          4.5910   12.5200   -4.4860 C.2    92  TYR92       0.2595
     23  O          5.8070   12.6170   -4.3240 O.2    92  TYR92      -0.2718
     24  CB         4.0210   11.1460   -6.4290 C.3    92  TYR92       0.0548
     25  CG         3.6290    9.8300   -7.0140 C.ar   92  TYR92      -0.0200
     26  CD1        3.6470    8.6730   -6.2430 C.ar   92  TYR92      -0.0009
     27  CD2        3.2390    9.7350   -8.3430 C.ar   92  TYR92      -0.0009
     28  CE1        3.2890    7.4550   -6.7810 C.ar   92  TYR92       0.0417
     29  CE2        2.8780    8.5210   -8.8910 C.ar   92  TYR92       0.0417
     30  CZ         2.9050    7.3830   -8.1020 C.ar   92  TYR92       0.1957
     31  OH         2.5460    6.1680   -8.6370 O.3    92  TYR92      -0.2866
     32  N          3.7590   13.5520   -4.3750 N.am   93  TYR93      -0.1976
     33  CA         4.2680   14.9040   -4.1410 C.3    93  TYR93       0.1639
     34  C          4.9070   15.0440   -2.7640 C.2    93  TYR93       0.2290
     35  O          5.6890   15.9600   -2.5300 O.2    93  TYR93      -0.2864
     36  CB         3.1660   15.9530   -4.3520 C.3    93  TYR93       0.0560
     37  CG         2.6820   16.0200   -5.7840 C.ar   93  TYR93      -0.0198
     38  CD1        3.5810   15.9480   -6.8420 C.ar   93  TYR93      -0.0009
     39  CD2        1.3350   16.1510   -6.0750 C.ar   93  TYR93      -0.0009
     40  CE1        3.1440   16.0040   -8.1600 C.ar   93  TYR93       0.0417
     41  CE2        0.8880   16.1950   -7.3720 C.ar   93  TYR93       0.0417
     42  CZ         1.7920   16.1340   -8.4120 C.ar   93  TYR93       0.1957
     43  OH         1.3260   16.1910   -9.7090 O.3    93  TYR93      -0.2866
     44  N          4.9830    5.7760  -14.4010 N.3   115  PRO115     -0.2116
     45  CA         5.1090    7.2350  -14.3390 C.3   115  PRO115      0.1372
     46  C          6.1010    7.6770  -13.2630 C.2   115  PRO115      0.2244
     47  O          6.8790    8.6030  -13.5040 O.2   115  PRO115     -0.2868
     48  CB         3.6880    7.6890  -13.9920 C.3   115  PRO115      0.0268
     49  CG         2.8110    6.6320  -14.5910 C.3   115  PRO115      0.0207
     50  CD         3.5750    5.3370  -14.4190 C.3   115  PRO115      0.0892
     51  N          9.8850   10.6040  -12.0230 N.3   119  HIS119     -0.1241
     52  CA        10.1760   11.3920  -10.8240 C.3   119  HIS119      0.1621
     53  C         11.5180   10.9460  -10.2400 C.2   119  HIS119      0.2264
     54  O         12.3900   11.7640   -9.9400 O.2   119  HIS119     -0.2867
     55  CB         9.1000   11.2090   -9.7500 C.3   119  HIS119      0.0745
     56  CG         7.7040   11.5030  -10.2070 C.ar  119  HIS119      0.0817
     57  ND1        6.8240   12.2590   -9.4640 N.ar  119  HIS119     -0.2268
     58  CD2        7.0230   11.1110  -11.3130 C.ar  119  HIS119      0.1154
     59  CE1        5.6650   12.3350  -10.0970 C.ar  119  HIS119      0.1986
     60  NE2        5.7590   11.6420  -11.2200 N.ar  119  HIS119     -0.2212
     61  N          6.7400   14.1740  -21.6420 N.3   156  VAL156     -0.1231
     62  CA         6.1050   15.2330  -20.8670 C.3   156  VAL156      0.1692
     63  C          5.3010   14.6130  -19.7260 C.2   156  VAL156      0.2593
     64  O          4.4940   13.6990  -19.9470 O.2   156  VAL156     -0.2718
     65  CB         5.1660   16.0960  -21.7350 C.3   156  VAL156      0.0266
     66  CG1        4.5440   17.1910  -20.8860 C.3   156  VAL156      0.0020
     67  CG2        5.9300   16.7070  -22.8910 C.3   156  VAL156      0.0020
     68  N          5.5250   15.1020  -18.5090 N.am  157  SER157     -0.1938
     69  CA         4.8680   14.5430  -17.3260 C.3   157  SER157      0.2055
     70  C          4.5010   15.6410  -16.3380 C.2   157  SER157      0.2643
     71  O          5.3710   16.3580  -15.8280 O.2   157  SER157     -0.2714
     72  CB         5.7680   13.5130  -16.6330 C.3   157  SER157      0.2130
     73  OG         5.2490   13.1800  -15.3560 O.3   157  SER157     -0.2179
     74  N          3.2060   15.7860  -16.0810 N.am  158  VAL158     -0.1963
     75  CA         2.7430   16.7760  -15.1160 C.3   158  VAL158      0.1727
     76  C          3.2980   16.4650  -13.7350 C.2   158  VAL158      0.2616
     77  O          3.8780   17.3400  -13.0780 O.2   158  VAL158     -0.2715
     78  CB         1.2070   16.7880  -15.0210 C.3   158  VAL158      0.0290
     79  CG1        0.7580   17.7060  -13.8950 C.3   158  VAL158      0.0023
     80  CG2        0.5820   17.2230  -16.3540 C.3   158  VAL158      0.0023
     81  N          3.1100   15.2190  -13.2940 N.am  159  GLY159     -0.1955
     82  CA         3.5820   14.7830  -11.9840 C.3   159  GLY159      0.1869
     83  C          5.0780   14.9630  -11.7460 C.2   159  GLY159      0.2309
     84  O          5.5070   15.4640  -10.6910 O.2   159  GLY159     -0.2863
     85  N         -2.3490   10.1290  -23.9890 N.3   321  ILE321     -0.1231
     86  CA        -1.7260   10.2330  -22.6680 C.3   321  ILE321      0.1692
     87  C         -1.9880    8.9540  -21.8810 C.2   321  ILE321      0.2592
     88  O         -1.0750    8.3430  -21.3210 O.2   321  ILE321     -0.2718
     89  CB        -2.3050   11.4140  -21.8550 C.3   321  ILE321      0.0266
     90  CG1       -2.1960   12.7380  -22.6300 C.3   321  ILE321      0.0019
     91  CG2       -1.6340   11.4920  -20.4870 C.3   321  ILE321      0.0020
     92  CD1       -0.8190   13.0310  -23.1640 C.3   321  ILE321      0.0001
     93  N         -3.2590    8.5710  -21.8330 N.am  322  TYR322     -0.1976
     94  CA        -3.6750    7.3420  -21.1760 C.3   322  TYR322      0.1639
     95  C         -4.4400    6.4850  -22.1780 C.2   322  TYR322      0.2290
     96  O         -5.6650    6.5920  -22.3050 O.2   322  TYR322     -0.2864
     97  CB        -4.5320    7.6660  -19.9470 C.3   322  TYR322      0.0560
     98  CG        -3.7360    8.3080  -18.8360 C.ar  322  TYR322     -0.0198
     99  CD1       -2.7280    7.6010  -18.1940 C.ar  322  TYR322     -0.0009
    100  CD2       -3.9890    9.6190  -18.4290 C.ar  322  TYR322     -0.0009
    101  CE1       -1.9950    8.1740  -17.1820 C.ar  322  TYR322      0.0417
    102  CE2       -3.2550   10.2020  -17.4100 C.ar  322  TYR322      0.0417
    103  CZ        -2.2600    9.4700  -16.7920 C.ar  322  TYR322      0.1957
    104  OH        -1.5130   10.0240  -15.7730 O.3   322  TYR322     -0.2866
@<TRIPOS>BOND
     1    85    86    1
     2    92    90    1
     3    67    65    1
     4    86    87    1
     5    86    89    1
     6    90    89    1
     7    96    95    2
     8    95    94    1
     9    87    93   am
    10    87    88    2
    11    89    91    1
    12    93    94    1
    13    65    66    1
    14    65    62    1
    15    61    62    1
    16    94    97    1
    17    62    63    1
    18    97    98    1
    19    64    63    2
    20    63    68   am
    21    98   100   ar
    22    98    99   ar
    23    68    69    1
    24   100   102   ar
    25    99   101   ar
    26   102   103   ar
    27    69    72    1
    28    69    70    1
    29   101   103   ar
    30   103   104    1
    31    72    73    1
    32    80    78    1
    33    70    74   am
    34    70    71    2
    35    74    75    1
    36    75    78    1
    37    75    76    1
    38    78    79    1
    39    49    50    1
    40    49    48    1
    41    50    44    1
    42    44    45    1
    43    45    48    1
    44    45    46    1
    45    76    81   am
    46    76    77    2
    47    47    46    2
    48    81    82    1
    49    18    17    1
    50    19    17    1
    51    17    16    2
    52     8     6   am
    53    51    52    1
    54    82    83    1
    55    16    15    1
    56    83    84    2
    57    15    14    1
    58    58    60   ar
    59    58    56   ar
    60     6     5    1
    61     6     7    2
    62    60    59   ar
    63     5     2    1
    64    52    53    1
    65    52    55    1
    66    53    54    2
    67    56    55    1
    68    56    57   ar
    69    59    57   ar
    70    14    13    1
    71    43    42    1
    72     2     3    1
    73     2     1    1
    74     4     3    2
    75    13    10    1
    76    29    27   ar
    77    29    30   ar
    78    31    30    1
    79    42    40   ar
    80    42    41   ar
    81    27    25   ar
    82    40    38   ar
    83    30    28   ar
    84    10    11    1
    85    10     9    1
    86    41    39   ar
    87    25    24    1
    88    25    26   ar
    89    12    11    2
    90    38    37   ar
    91    28    26   ar
    92    24    21    1
    93    39    37   ar
    94    37    36    1
    95    21    22    1
    96    21    20    1
    97    22    32   am
    98    22    23    2
    99    32    33    1
   100    36    33    1
   101    33    34    1
   102    34    35    2
