@<TRIPOS>MOLECULE
tmp/3zh8B00.pdb
 186 175 0 0 0
SMALL
GASTEIGER

@<TRIPOS>ATOM
      1  N         26.0300   16.4660   35.6640 N.3    11  ARG11      -0.1245
      2  CA        27.4430   16.3340   35.3070 C.3    11  ARG11       0.1563
      3  C         28.3790   17.1900   36.1650 C.2    11  ARG11       0.2260
      4  O         27.9400   18.0900   36.8830 O.2    11  ARG11      -0.2867
      5  CB        27.6520   16.6630   33.8270 C.3    11  ARG11       0.0307
      6  CG        27.3000   18.1000   33.4630 C.3    11  ARG11       0.0489
      7  CD        27.4860   18.3870   31.9820 C.3    11  ARG11       0.2205
      8  NE        27.1780   19.7750   31.6520 N.pl3  11  ARG11      -0.0865
      9  CZ        27.2290   20.2690   30.4090 C.cat  11  ARG11       0.5346
     10  NH1       27.5760   19.5110   29.3860 N.pl3  11  ARG11       0.1354
     11  NH2       26.9430   21.5450   30.1890 N.pl3  11  ARG11       0.1354
     12  N         31.2410   20.0170   36.4170 N.3    13  ILE13      -0.1231
     13  CA        31.6080   21.1760   35.6140 C.3    13  ILE13       0.1692
     14  C         32.7720   21.9750   36.2010 C.2    13  ILE13       0.2593
     15  O         33.2080   22.9640   35.6160 O.2    13  ILE13      -0.2718
     16  CB        30.3960   22.1070   35.4030 C.3    13  ILE13       0.0266
     17  CG1       29.8650   22.6050   36.7480 C.3    13  ILE13       0.0019
     18  CG2       29.2960   21.3790   34.6530 C.3    13  ILE13       0.0020
     19  CD1       28.6550   23.5060   36.6300 C.3    13  ILE13       0.0001
     20  N         33.2770   21.5410   37.3490 N.am   14  GLY14      -0.1942
     21  CA        34.3810   22.2250   37.9960 C.3    14  GLY14       0.2014
     22  C         34.9650   21.4120   39.1330 C.2    14  GLY14       0.2639
     23  O         34.2390   20.7000   39.8220 O.2    14  GLY14      -0.2714
     24  N         36.2770   21.5100   39.3260 N.am   15  ARG15      -0.1963
     25  CA        36.9420   20.7640   40.3890 C.3    15  ARG15       0.1729
     26  C         38.2850   21.3700   40.7830 C.2    15  ARG15       0.2616
     27  O         39.2400   21.3620   40.0070 O.2    15  ARG15      -0.2715
     28  CB        37.1250   19.2940   40.0000 C.3    15  ARG15       0.0348
     29  CG        38.0470   19.0960   38.8420 C.3    15  ARG15       0.0492
     30  CD        38.0420   17.6610   38.3570 C.3    15  ARG15       0.2205
     31  NE        38.5080   16.7210   39.3720 N.pl3  15  ARG15      -0.0865
     32  CZ        37.6990   15.9450   40.0820 C.cat  15  ARG15       0.5346
     33  NH1       36.3910   16.0060   39.8840 N.pl3  15  ARG15       0.1354
     34  NH2       38.2000   15.0970   40.9810 N.pl3  15  ARG15       0.1354
     35  N         38.3350   21.9110   41.9950 N.am   16  GLY16      -0.1955
     36  CA        39.5770   22.3420   42.6030 C.3    16  GLY16       0.1869
     37  C         40.0510   21.2450   43.5400 C.2    16  GLY16       0.2309
     38  O         39.6300   20.0930   43.4230 O.2    16  GLY16      -0.2863
     39  N         39.8330   21.6130   47.0020 N.3    18  TYR18      -0.1227
     40  CA        38.9020   21.6640   48.1230 C.3    18  TYR18       0.1736
     41  C         37.4540   21.3660   47.7230 C.2    18  TYR18       0.2595
     42  O         36.7140   20.7420   48.4860 O.2    18  TYR18      -0.2718
     43  CB        38.9830   23.0480   48.7700 C.3    18  TYR18       0.0548
     44  CG        39.0420   24.1570   47.7320 C.ar   18  TYR18      -0.0200
     45  CD1       40.2150   24.4140   47.0330 C.ar   18  TYR18      -0.0009
     46  CD2       37.9230   24.9260   47.4330 C.ar   18  TYR18      -0.0009
     47  CE1       40.2780   25.4140   46.0720 C.ar   18  TYR18       0.0417
     48  CE2       37.9760   25.9320   46.4720 C.ar   18  TYR18       0.0417
     49  CZ        39.1580   26.1690   45.7960 C.ar   18  TYR18       0.1957
     50  OH        39.2310   27.1600   44.8430 O.3    18  TYR18      -0.2866
     51  N         37.0490   21.8160   46.5380 N.am   19  ALA19      -0.1980
     52  CA        35.6420   21.7640   46.1490 C.3    19  ALA19       0.1597
     53  C         35.3890   21.1490   44.7760 C.2    19  ALA19       0.2287
     54  O         36.2620   21.1520   43.9090 O.2    19  ALA19      -0.2864
     55  CB        35.0290   23.1560   46.2170 C.3    19  ALA19       0.0319
     56  N         32.1790   20.9980   41.6870 N.3    21  VAL21      -0.1245
     57  CA        30.9350   21.6310   41.2720 C.3    21  VAL21       0.1561
     58  C         30.1800   20.7870   40.2440 C.2    21  VAL21       0.2260
     59  O         30.7200   20.4220   39.1940 O.2    21  VAL21      -0.2867
     60  CB        31.1810   23.0590   40.7210 C.3    21  VAL21       0.0252
     61  CG1       29.9250   23.6050   40.0660 C.3    21  VAL21       0.0019
     62  CG2       31.6370   23.9840   41.8340 C.3    21  VAL21       0.0019
     63  N         23.6450   25.0010   39.5440 N.3    34  ALA34      -0.1245
     64  CA        24.9970   24.5090   39.7870 C.3    34  ALA34       0.1562
     65  C         25.1840   24.2200   41.2770 C.2    34  ALA34       0.2260
     66  O         24.7660   25.0060   42.1280 O.2    34  ALA34      -0.2867
     67  CB        26.0280   25.5170   39.3020 C.3    34  ALA34       0.0290
     68  N         27.7600   23.3260   44.4570 N.3    36  LYS36      -0.1245
     69  CA        29.1170   23.3670   44.9880 C.3    36  LYS36       0.1561
     70  C         29.2230   22.4900   46.2330 C.2    36  LYS36       0.2260
     71  O         28.5650   22.7450   47.2410 O.2    36  LYS36      -0.2867
     72  CB        29.5050   24.8070   45.3200 C.3    36  LYS36       0.0271
     73  CG        30.8530   24.9540   46.0000 C.3    36  LYS36       0.0035
     74  CD        31.1170   26.4080   46.3280 C.3    36  LYS36       0.0206
     75  CE        32.3420   26.5720   47.2010 C.3    36  LYS36       0.1093
     76  NZ        32.5900   28.0090   47.4890 N.3    36  LYS36      -0.1314
     77  N         26.9630   35.8340   41.5450 N.3    69  VAL69      -0.1245
     78  CA        26.1190   34.6520   41.6360 C.3    69  VAL69       0.1561
     79  C         25.3560   34.6490   42.9540 C.2    69  VAL69       0.2260
     80  O         25.9110   34.9880   44.0040 O.2    69  VAL69      -0.2867
     81  CB        26.9370   33.3550   41.5510 C.3    69  VAL69       0.0252
     82  CG1       27.8020   33.3540   40.3050 C.3    69  VAL69       0.0019
     83  CG2       27.7940   33.2020   42.7890 C.3    69  VAL69       0.0019
     84  N         23.3730   26.7930   43.6300 N.3    85  ILE85      -0.1231
     85  CA        23.6140   28.1430   43.1430 C.3    85  ILE85       0.1692
     86  C         23.0480   28.4300   41.7510 C.2    85  ILE85       0.2592
     87  O         23.0400   27.5680   40.8700 O.2    85  ILE85      -0.2718
     88  CB        25.1250   28.4410   43.1340 C.3    85  ILE85       0.0266
     89  CG1       25.6970   28.2800   44.5430 C.3    85  ILE85       0.0019
     90  CG2       25.4040   29.8330   42.5890 C.3    85  ILE85       0.0020
     91  CD1       27.2040   28.4140   44.6060 C.3    85  ILE85       0.0001
     92  N         22.5650   29.6540   41.5780 N.am   86  GLU86      -0.1966
     93  CA        22.1850   30.1740   40.2720 C.3    86  GLU86       0.1733
     94  C         23.1880   29.7390   39.2050 C.2    86  GLU86       0.2616
     95  O         24.3910   29.9630   39.3410 O.2    86  GLU86      -0.2715
     96  CB        22.1190   31.7010   40.3470 C.3    86  GLU86       0.0429
     97  CG        22.2200   32.4210   39.0230 C.3    86  GLU86       0.1163
     98  CD        22.4090   33.9150   39.2040 C.2    86  GLU86       0.3649
     99  OE1       22.8020   34.3370   40.3110 O.co2  86  GLU86      -0.2457
    100  OE2       22.1660   34.6700   38.2410 O.co2  86  GLU86      -0.2457
    101  N         22.6900   29.1180   38.1420 N.am   87  TYR87      -0.1960
    102  CA        23.5620   28.6250   37.0820 C.3    87  TYR87       0.1771
    103  C         23.8320   29.6640   35.9900 C.2    87  TYR87       0.2619
    104  O         22.9170   30.3490   35.5280 O.2    87  TYR87      -0.2715
    105  CB        22.9980   27.3440   36.4620 C.3    87  TYR87       0.0574
    106  CG        23.8110   26.8710   35.2860 C.ar   87  TYR87      -0.0198
    107  CD1       25.0230   26.2140   35.4740 C.ar   87  TYR87      -0.0009
    108  CD2       23.3820   27.1010   33.9870 C.ar   87  TYR87      -0.0009
    109  CE1       25.7820   25.7900   34.3980 C.ar   87  TYR87       0.0417
    110  CE2       24.1310   26.6800   32.9030 C.ar   87  TYR87       0.0417
    111  CZ        25.3320   26.0260   33.1140 C.ar   87  TYR87       0.1957
    112  OH        26.0800   25.6080   32.0350 O.3    87  TYR87      -0.2866
    113  N         25.0970   29.7710   35.5890 N.am   88  VAL88      -0.1963
    114  CA        25.5120   30.6770   34.5210 C.3    88  VAL88       0.1727
    115  C         26.0590   29.8720   33.3440 C.2    88  VAL88       0.2616
    116  O         26.9620   29.0550   33.5200 O.2    88  VAL88      -0.2715
    117  CB        26.5960   31.6530   35.0240 C.3    88  VAL88       0.0290
    118  CG1       27.0400   32.5940   33.9120 C.3    88  VAL88       0.0023
    119  CG2       26.0920   32.4320   36.2330 C.3    88  VAL88       0.0023
    120  N         25.5320   30.1090   32.1440 N.am   89  ASN89      -0.1972
    121  CA        25.8320   29.2360   31.0070 C.3    89  ASN89       0.1688
    122  C         26.5910   29.8740   29.8410 C.2    89  ASN89       0.2292
    123  O         26.5460   29.3680   28.7240 O.2    89  ASN89      -0.2864
    124  CB        24.5550   28.5760   30.4840 C.3    89  ASN89       0.1181
    125  CG        23.5260   29.5870   30.0110 C.2    89  ASN89       0.2629
    126  OD1       23.4150   30.6840   30.5650 O.2    89  ASN89      -0.2716
    127  ND2       22.7630   29.2210   28.9830 N.am   89  ASN89      -0.0877
    128  N         29.9330   30.4290   30.0210 N.3    91  GLY91      -0.1210
    129  CA        31.3290   30.0700   30.2000 C.3    91  GLY91       0.1956
    130  C         32.0490   31.0410   31.1150 C.2    91  GLY91       0.2611
    131  O         31.4360   31.6390   32.0040 O.2    91  GLY91      -0.2717
    132  N         33.3540   31.1910   30.9090 N.am   92  ASP92      -0.1973
    133  CA        34.1470   32.1370   31.6870 C.3    92  ASP92       0.1709
    134  C         35.2180   32.8130   30.8340 C.2    92  ASP92       0.2293
    135  O         35.4550   32.4120   29.6970 O.2    92  ASP92      -0.2864
    136  CB        34.7710   31.4400   32.8990 C.3    92  ASP92       0.1436
    137  CG        35.6900   30.2980   32.5060 C.2    92  ASP92       0.3671
    138  OD1       36.2040   30.3090   31.3670 O.co2  92  ASP92      -0.2456
    139  OD2       35.8940   29.3860   33.3350 O.co2  92  ASP92      -0.2456
    140  N         38.3560   32.6500   31.0350 N.3    94  MET94      -0.1245
    141  CA        39.4420   31.7450   30.6950 C.3    94  MET94       0.1570
    142  C         39.1570   31.0090   29.3970 C.2    94  MET94       0.2261
    143  O         39.9760   31.0080   28.4860 O.2    94  MET94      -0.2867
    144  CB        39.7080   30.7470   31.8200 C.3    94  MET94       0.0387
    145  CG        40.9260   29.8710   31.5610 C.3    94  MET94       0.0595
    146  SD        41.3920   28.8730   32.9820 S.3    94  MET94      -0.1393
    147  CE        39.9850   27.7690   33.0930 C.3    94  MET94       0.0692
    148  N         39.1310   32.2520   35.3650 N.3   135  ASP135     -0.1225
    149  CA        38.1920   31.1430   35.4980 C.3   135  ASP135      0.1805
    150  C         37.2140   31.3170   36.6640 C.2   135  ASP135      0.2597
    151  O         36.3270   30.4870   36.8650 O.2   135  ASP135     -0.2718
    152  CB        38.9410   29.8070   35.5830 C.3   135  ASP135      0.1424
    153  CG        40.0640   29.8340   36.5960 C.2   135  ASP135      0.3668
    154  OD1       40.3230   30.9180   37.1600 O.co2 135  ASP135     -0.2456
    155  OD2       40.6960   28.7790   36.8220 O.co2 135  ASP135     -0.2456
    156  N         37.3860   32.3920   37.4290 N.am  136  ASN136     -0.1974
    157  CA        36.4170   32.7860   38.4520 C.3   136  ASN136      0.1688
    158  C         35.4820   33.8870   37.9470 C.2   136  ASN136      0.2292
    159  O         34.6040   34.3550   38.6720 O.2   136  ASN136     -0.2864
    160  CB        37.1230   33.2400   39.7310 C.3   136  ASN136      0.1181
    161  CG        37.3360   32.1070   40.7140 C.2   136  ASN136      0.2629
    162  OD1       37.1030   30.9450   40.3950 O.2   136  ASN136     -0.2716
    163  ND2       37.7900   32.4400   41.9160 N.am  136  ASN136     -0.0877
    164  N         32.6980   34.3570   35.3960 N.3   138  LEU138     -0.1245
    165  CA        31.7680   33.6690   34.5090 C.3   138  LEU138      0.1561
    166  C         31.1030   34.6290   33.5270 C.2   138  LEU138      0.2260
    167  O         31.1000   35.8440   33.7290 O.2   138  LEU138     -0.2867
    168  CB        30.6900   32.9520   35.3260 C.3   138  LEU138      0.0270
    169  CG        31.1540   32.0040   36.4280 C.3   138  LEU138      0.0019
    170  CD1       29.9570   31.4380   37.1710 C.3   138  LEU138      0.0001
    171  CD2       32.0000   30.8860   35.8480 C.3   138  LEU138      0.0001
    172  N         32.1510   34.1160   40.7900 N.3   148  THR148     -0.1203
    173  CA        31.6700   32.9280   41.4860 C.3   148  THR148      0.1994
    174  C         32.6930   32.4610   42.5130 C.2   148  THR148      0.2617
    175  O         33.7470   33.0730   42.6690 O.2   148  THR148     -0.2717
    176  CB        31.3860   31.7770   40.5010 C.3   148  THR148      0.1784
    177  OG1       30.7790   30.6770   41.1920 O.3   148  THR148     -0.2211
    178  CG2       32.6760   31.3190   39.8320 C.3   148  THR148      0.0376
    179  N         32.3740   31.3750   43.2100 N.am  149  ASP149     -0.1973
    180  CA        33.2830   30.7790   44.1910 C.3   149  ASP149      0.1709
    181  C         33.8160   31.7890   45.2040 C.2   149  ASP149      0.2293
    182  O         34.9320   32.3060   45.0600 O.2   149  ASP149     -0.2864
    183  CB        34.4450   30.0700   43.4960 C.3   149  ASP149      0.1436
    184  CG        35.4020   29.4280   44.4780 C.2   149  ASP149      0.3671
    185  OD1       35.0120   29.2470   45.6550 O.co2 149  ASP149     -0.2456
    186  OD2       36.5350   29.0920   44.0690 O.co2 149  ASP149     -0.2456
@<TRIPOS>BOND
     1   143   142    2
     2   123   122    2
     3   127   125   am
     4    10     9    1
     5   142   141    1
     6   135   134    2
     7   122   121    1
     8   125   124    1
     9   125   126    2
    10   128   129    1
    11    11     9    1
    12   129   130    1
    13     9     8    2
    14   124   121    1
    15   141   140    1
    16   141   144    1
    17   134   133    1
    18   132   130   am
    19   132   133    1
    20   121   120    1
    21   130   131    2
    22   138   137   ar
    23   145   144    1
    24   145   146    1
    25     8     7    1
    26   133   136    1
    27     7     6    1
    28   112   111    1
    29   120   115   am
    30   137   136    1
    31   137   139   ar
    32   110   111   ar
    33   110   108   ar
    34   146   147    1
    35   111   109   ar
    36   115   116    2
    37   115   114    1
    38     6     5    1
    39   166   167    2
    40   166   165    1
    41     5     2    1
    42   118   117    1
    43   108   106   ar
    44   109   107   ar
    45   165   168    1
    46   165   164    1
    47   114   117    1
    48   114   113    1
    49    18    16    1
    50   117   119    1
    51   106   107   ar
    52   106   105    1
    53     2     1    1
    54     2     3    1
    55   168   169    1
    56   148   149    1
    57    16    13    1
    58    16    17    1
    59   149   152    1
    60   149   150    1
    61   104   103    2
    62   152   153    1
    63   113   103   am
    64    13    14    1
    65    13    12    1
    66    15    14    2
    67   171   169    1
    68   103   102    1
    69     3     4    2
    70    14    20   am
    71   169   170    1
    72   105   102    1
    73   153   155   ar
    74   153   154   ar
    75    19    17    1
    76   150   151    2
    77   150   156   am
    78   102   101    1
    79    20    21    1
    80   156   157    1
    81   158   157    1
    82   158   159    2
    83    21    22    1
    84   101    94   am
    85   100    98   ar
    86    30    29    1
    87    30    31    1
    88   157   160    1
    89    29    28    1
    90    97    98    1
    91    97    96    1
    92    22    24   am
    93    22    23    2
    94    59    58    2
    95    98    99   ar
    96    94    95    2
    97    94    93    1
    98    67    64    1
    99    24    25    1
   100    31    32    2
   101    63    64    1
   102   160   161    1
   103    64    65    1
   104   178   176    1
   105    33    32    1
   106    28    25    1
   107    27    26    2
   108    61    60    1
   109    32    34    1
   110    58    57    1
   111    93    96    1
   112    93    92    1
   113    82    81    1
   114    25    26    1
   115   162   161    2
   116   176   177    1
   117   176   173    1
   118   161   163   am
   119    60    57    1
   120    60    62    1
   121    26    35   am
   122   172   173    1
   123    87    86    2
   124    57    56    1
   125    65    66    2
   126   173   174    1
   127    77    78    1
   128    81    78    1
   129    81    83    1
   130    92    86   am
   131    78    79    1
   132    86    85    1
   133    35    36    1
   134   174   175    2
   135   174   179   am
   136    90    88    1
   137    36    37    1
   138    79    80    2
   139    88    85    1
   140    88    89    1
   141    85    84    1
   142   179   180    1
   143    38    37    2
   144   183   180    1
   145   183   184    1
   146    54    53    2
   147   186   184   ar
   148   180   181    1
   149    68    69    1
   150   184   185   ar
   151    89    91    1
   152    53    52    1
   153    50    49    1
   154    69    72    1
   155    69    70    1
   156   182   181    2
   157    72    73    1
   158    49    47   ar
   159    49    48   ar
   160    73    74    1
   161    47    45   ar
   162    52    55    1
   163    52    51    1
   164    70    71    2
   165    74    75    1
   166    48    46   ar
   167    51    41   am
   168    39    40    1
   169    45    44   ar
   170    75    76    1
   171    46    44   ar
   172    41    40    1
   173    41    42    2
   174    44    43    1
   175    40    43    1
