@<TRIPOS>MOLECULE
tmp/3zhaA01.pdb
 78 76 0 0 0
SMALL
GASTEIGER

@<TRIPOS>ATOM
      1  N        -64.0280 -115.0340 -183.3460 N.3    24  MET24      -0.1245
      2  CA       -63.4410 -115.5990 -182.1290 C.3    24  MET24       0.1570
      3  C        -62.7630 -114.5450 -181.2680 C.2    24  MET24       0.2261
      4  O        -62.8730 -114.6150 -180.0430 O.2    24  MET24      -0.2867
      5  CB       -62.4570 -116.7050 -182.4770 C.3    24  MET24       0.0387
      6  CG       -63.0850 -117.7830 -183.2920 C.3    24  MET24       0.0595
      7  SD       -62.0020 -119.1950 -183.4420 S.3    24  MET24      -0.1393
      8  CE       -62.2800 -119.9230 -181.8720 C.3    24  MET24       0.0692
      9  N        -64.4340 -115.0460 -173.9900 N.3    29  ALA29      -0.1231
     10  CA       -64.0230 -116.3210 -173.3880 C.3    29  ALA29       0.1694
     11  C        -62.7660 -116.9020 -174.0590 C.2    29  ALA29       0.2592
     12  O        -62.0940 -117.7600 -173.4770 O.2    29  ALA29      -0.2718
     13  CB       -65.1630 -117.3210 -173.4630 C.3    29  ALA29       0.0304
     14  N        -62.4620 -116.4420 -175.2880 N.am   30  VAL30      -0.1966
     15  CA       -61.3060 -116.8710 -176.0970 C.3    30  VAL30       0.1727
     16  C        -60.0230 -116.0950 -175.7020 C.2    30  VAL30       0.2616
     17  O        -60.0170 -114.8620 -175.7250 O.2    30  VAL30      -0.2715
     18  CB       -61.6270 -116.7270 -177.6140 C.3    30  VAL30       0.0290
     19  CG1      -60.4140 -117.0220 -178.4830 C.3    30  VAL30       0.0023
     20  CG2      -62.7960 -117.6090 -178.0150 C.3    30  VAL30       0.0023
     21  N        -58.9500 -116.8170 -175.3380 N.am   31  GLU31      -0.1963
     22  CA       -57.6600 -116.2000 -175.0280 C.3    31  GLU31       0.1733
     23  C        -56.7840 -116.3750 -176.2650 C.2    31  GLU31       0.2616
     24  O        -56.8470 -115.5390 -177.1600 O.2    31  GLU31      -0.2715
     25  CB       -57.0060 -116.7950 -173.7750 C.3    31  GLU31       0.0429
     26  CG       -57.5310 -116.2420 -172.4620 C.3    31  GLU31       0.1163
     27  CD       -56.6790 -116.5630 -171.2460 C.2    31  GLU31       0.3649
     28  OE1      -56.2950 -117.7440 -171.0730 O.co2  31  GLU31      -0.2457
     29  OE2      -56.4070 -115.6290 -170.4550 O.co2  31  GLU31      -0.2457
     30  N        -56.0490 -117.4920 -176.3720 N.am   32  ASN32      -0.1972
     31  CA       -55.2130 -117.7570 -177.5340 C.3    32  ASN32       0.1688
     32  C        -56.0330 -118.2800 -178.6920 C.2    32  ASN32       0.2292
     33  O        -57.0630 -118.9250 -178.4870 O.2    32  ASN32      -0.2864
     34  CB       -54.1100 -118.7320 -177.1860 C.3    32  ASN32       0.1181
     35  CG       -53.2060 -118.2820 -176.0620 C.2    32  ASN32       0.2629
     36  OD1      -52.9040 -117.0910 -175.8950 O.2    32  ASN32      -0.2716
     37  ND2      -52.7200 -119.2430 -175.2840 N.am   32  ASN32      -0.0877
     38  N        -50.6420 -124.9300 -176.7440 N.3   272  GLU272     -0.1231
     39  CA       -51.7320 -125.8810 -176.9880 C.3   272  GLU272      0.1699
     40  C        -53.0760 -125.1540 -176.9520 C.2   272  GLU272      0.2592
     41  O        -53.4330 -124.5640 -175.9290 O.2   272  GLU272     -0.2718
     42  CB       -51.7190 -127.0150 -175.9490 C.3   272  GLU272      0.0402
     43  CG       -50.6190 -128.0400 -176.1260 C.3   272  GLU272      0.1161
     44  CD       -50.4030 -128.8990 -174.8930 C.2   272  GLU272      0.3649
     45  OE1      -51.3370 -129.6450 -174.5090 O.co2 272  GLU272     -0.2457
     46  OE2      -49.3050 -128.8050 -174.2960 O.co2 272  GLU272     -0.2457
     47  N        -53.8140 -125.1690 -178.0690 N.am  273  VAL273     -0.1966
     48  CA       -55.1270 -124.5030 -178.1480 C.3   273  VAL273      0.1727
     49  C        -56.1660 -125.4640 -178.7200 C.2   273  VAL273      0.2617
     50  O        -55.9310 -126.0570 -179.7750 O.2   273  VAL273     -0.2715
     51  CB       -55.1010 -123.1680 -178.9590 C.3   273  VAL273      0.0290
     52  CG1      -56.4200 -122.4480 -178.8460 C.3   273  VAL273      0.0023
     53  CG2      -53.9890 -122.2490 -178.4990 C.3   273  VAL273      0.0023
     54  N        -57.3210 -125.5900 -178.0390 N.am  274  THR274     -0.1937
     55  CA       -58.4540 -126.3570 -178.5270 C.3   274  THR274      0.2028
     56  C        -59.6350 -125.4130 -178.6680 C.2   274  THR274      0.2642
     57  O        -60.0590 -124.7820 -177.6910 O.2   274  THR274     -0.2714
     58  CB       -58.7710 -127.5930 -177.6810 C.3   274  THR274      0.1808
     59  OG1      -57.5970 -128.3970 -177.5420 O.3   274  THR274     -0.2208
     60  CG2      -59.8950 -128.4300 -178.2840 C.3   274  THR274      0.0379
     61  N        -60.1520 -125.3060 -179.9040 N.am  275  HIS275     -0.1959
     62  CA       -61.3210 -124.5070 -180.2030 C.3   275  HIS275      0.1787
     63  C        -62.4550 -125.4430 -180.6060 C.2   275  HIS275      0.2620
     64  O        -62.2200 -126.4360 -181.2870 O.2   275  HIS275     -0.2715
     65  CB       -61.0470 -123.5660 -181.3850 C.3   275  HIS275      0.0785
     66  CG       -59.9490 -122.5610 -181.1890 C.ar  275  HIS275      0.0821
     67  ND1      -59.9520 -121.6800 -180.1250 N.ar  275  HIS275     -0.2267
     68  CD2      -58.9090 -122.2540 -182.0040 C.ar  275  HIS275      0.1154
     69  CE1      -58.9050 -120.8950 -180.3120 C.ar  275  HIS275      0.1986
     70  NE2      -58.2360 -121.2200 -181.4180 N.ar  275  HIS275     -0.2212
     71  N        -63.6830 -125.1190 -180.1940 N.am  276  ASP276     -0.1971
     72  CA       -64.8690 -125.8060 -180.6700 C.3   276  ASP276      0.1709
     73  C        -65.4560 -124.7440 -181.5940 C.2   276  ASP276      0.2293
     74  O        -65.9250 -123.6980 -181.1380 O.2   276  ASP276     -0.2864
     75  CB       -65.8390 -126.2220 -179.5590 C.3   276  ASP276      0.1436
     76  CG       -66.9760 -127.1260 -180.0370 C.2   276  ASP276      0.3671
     77  OD1      -67.1770 -127.2430 -181.2820 O.co2 276  ASP276     -0.2456
     78  OD2      -67.6660 -127.7190 -179.1720 O.co2 276  ASP276     -0.2456
@<TRIPOS>BOND
     1     7     6    1
     2     7     8    1
     3     1     2    1
     4     6     5    1
     5     5     2    1
     6     2     3    1
     7    68    70   ar
     8    68    66   ar
     9    73    74    2
    10    73    72    1
    11    70    69   ar
    12    65    66    1
    13    65    62    1
    14    64    63    2
    15    77    76   ar
    16     3     4    2
    17    66    67   ar
    18    72    71    1
    19    72    75    1
    20    63    62    1
    21    63    71   am
    22    69    67   ar
    23    62    61    1
    24    76    75    1
    25    76    78   ar
    26    61    56   am
    27    50    49    2
    28    51    52    1
    29    51    53    1
    30    51    48    1
    31    49    48    1
    32    49    54   am
    33    32    33    2
    34    32    31    1
    35    56    55    1
    36    56    57    2
    37    55    54    1
    38    55    58    1
    39    19    18    1
    40    60    58    1
    41    48    47    1
    42    47    40   am
    43    20    18    1
    44    58    59    1
    45    18    15    1
    46    31    34    1
    47    31    30    1
    48    34    35    1
    49    24    23    2
    50    39    40    1
    51    39    38    1
    52    39    42    1
    53    40    41    2
    54    30    23   am
    55    23    22    1
    56    43    42    1
    57    43    44    1
    58    15    16    1
    59    15    14    1
    60    35    36    2
    61    35    37   am
    62    17    16    2
    63    16    21   am
    64    21    22    1
    65    14    11   am
    66    22    25    1
    67    44    45   ar
    68    44    46   ar
    69    11    12    2
    70    11    10    1
    71     9    10    1
    72    25    26    1
    73    13    10    1
    74    26    27    1
    75    27    28   ar
    76    27    29   ar
