@<TRIPOS>MOLECULE
tmp/3zhbD00.pdb
 175 170 0 0 0
SMALL
GASTEIGER

@<TRIPOS>ATOM
      1  N        -42.3630  -64.2410   58.5500 N.3    15  GLY15      -0.1210
      2  CA       -43.4610  -63.4840   57.9900 C.3    15  GLY15       0.1956
      3  C        -43.2930  -63.3390   56.4830 C.2    15  GLY15       0.2612
      4  O        -42.2810  -62.8340   56.0570 O.2    15  GLY15      -0.2717
      5  N        -44.2840  -63.7750   55.6910 N.am   16  LEU16      -0.1965
      6  CA       -44.1810  -63.8150   54.2230 C.3    16  LEU16       0.1728
      7  C        -45.4210  -63.2880   53.5380 C.2    16  LEU16       0.2617
      8  O        -45.9250  -63.8550   52.5680 O.2    16  LEU16      -0.2715
      9  CB       -43.8910  -65.2330   53.7430 C.3    16  LEU16       0.0311
     10  CG       -42.6170  -65.8890   54.2730 C.3    16  LEU16       0.0022
     11  CD1      -42.4490  -67.3010   53.7480 C.3    16  LEU16       0.0001
     12  CD2      -41.3640  -65.1180   53.9130 C.3    16  LEU16       0.0001
     13  N        -45.9490  -62.2150   54.0830 N.am   17  GLY17      -0.1940
     14  CA       -46.9280  -61.4080   53.3760 C.3    17  GLY17       0.2014
     15  C        -46.2250  -60.7260   52.2350 C.2    17  GLY17       0.2639
     16  O        -45.0890  -61.0260   51.9300 O.2    17  GLY17      -0.2714
     17  N        -46.9010  -59.7630   51.6360 N.am   18  LEU18      -0.1963
     18  CA       -46.3150  -59.0180   50.5380 C.3    18  LEU18       0.1728
     19  C        -44.9420  -58.4940   50.9120 C.2    18  LEU18       0.2616
     20  O        -43.9890  -58.7550   50.1940 O.2    18  LEU18      -0.2715
     21  CB       -47.2010  -57.8530   50.1280 C.3    18  LEU18       0.0311
     22  CG       -48.6030  -58.2830   49.6330 C.3    18  LEU18       0.0022
     23  CD1      -49.4010  -57.0520   49.1880 C.3    18  LEU18       0.0001
     24  CD2      -48.4750  -59.3730   48.5590 C.3    18  LEU18       0.0001
     25  N        -44.8350  -57.8300   52.0690 N.am   19  MET19      -0.1963
     26  CA       -43.5840  -57.2080   52.4430 C.3    19  MET19       0.1736
     27  C        -42.5560  -58.2190   52.9060 C.2    19  MET19       0.2617
     28  O        -41.3750  -58.1000   52.5910 O.2    19  MET19      -0.2715
     29  CB       -43.8030  -56.1790   53.5060 C.3    19  MET19       0.0427
     30  CG       -42.5340  -55.4220   53.8630 C.3    19  MET19       0.0599
     31  SD       -41.8310  -54.4990   52.5220 S.3    19  MET19      -0.1393
     32  CE       -43.0270  -53.1420   52.4770 C.3    19  MET19       0.0692
     33  N        -42.9900  -59.2420   53.6250 N.am   20  GLY20      -0.1955
     34  CA       -42.0670  -60.3110   54.0320 C.3    20  GLY20       0.1869
     35  C        -41.3480  -60.9750   52.8660 C.2    20  GLY20       0.2309
     36  O        -40.1470  -61.2540   52.9420 O.2    20  GLY20      -0.2863
     37  N        -39.7810  -68.6360   57.0820 N.3    37  TRP37      -0.1227
     38  CA       -40.9470  -69.2570   57.7590 C.3    37  TRP37       0.1737
     39  C        -42.1800  -68.3720   57.7250 C.2    37  TRP37       0.2595
     40  O        -42.0420  -67.1320   57.7980 O.2    37  TRP37      -0.2718
     41  CB       -40.6320  -69.5670   59.2080 C.3    37  TRP37       0.0564
     42  CG       -41.7360  -70.2810   59.9150 C.ar   37  TRP37       0.0003
     43  CD1      -41.8320  -71.6070   60.1250 C.ar   37  TRP37       0.0946
     44  CD2      -42.8660  -69.6990   60.5570 C.ar   37  TRP37       0.0152
     45  NE1      -42.9410  -71.8910   60.8390 N.ar   37  TRP37      -0.2442
     46  CE2      -43.6130  -70.7430   61.1040 C.ar   37  TRP37       0.0810
     47  CE3      -43.3310  -68.3880   60.7120 C.ar   37  TRP37       0.0012
     48  CZ2      -44.8100  -70.5400   61.7790 C.ar   37  TRP37       0.0191
     49  CZ3      -44.5430  -68.1740   61.4090 C.ar   37  TRP37       0.0001
     50  CH2      -45.2640  -69.2450   61.9120 C.ar   37  TRP37       0.0015
     51  N        -43.3600  -68.9750   57.6200 N.am   38  ASN38      -0.1960
     52  CA       -44.6040  -68.2160   57.5820 C.3    38  ASN38       0.1819
     53  C        -45.7740  -68.9920   58.1780 C.2    38  ASN38       0.2621
     54  O        -45.9330  -70.1860   57.9240 O.2    38  ASN38      -0.2715
     55  CB       -44.9300  -67.7940   56.1480 C.3    38  ASN38       0.1195
     56  CG       -46.0490  -66.7740   56.0810 C.2    38  ASN38       0.2630
     57  OD1      -45.9370  -65.6750   56.6240 O.2    38  ASN38      -0.2716
     58  ND2      -47.1380  -67.1340   55.4110 N.am   38  ASN38      -0.0877
     59  N        -46.5900  -68.3050   58.9720 N.am   39  ARG39      -0.1963
     60  CA       -47.7470  -68.9280   59.6030 C.3    39  ARG39       0.1729
     61  C        -48.4740  -69.8520   58.6310 C.2    39  ARG39       0.2616
     62  O        -48.8820  -70.9550   58.9950 O.2    39  ARG39      -0.2715
     63  CB       -48.7070  -67.8620   60.1330 C.3    39  ARG39       0.0348
     64  CG       -50.0320  -68.4130   60.6340 C.3    39  ARG39       0.0492
     65  CD       -50.8340  -67.3470   61.3620 C.3    39  ARG39       0.2205
     66  NE       -51.6260  -66.5340   60.4430 N.pl3  39  ARG39      -0.0865
     67  CZ       -52.4300  -65.5470   60.8220 C.cat  39  ARG39       0.5346
     68  NH1      -52.5540  -65.2460   62.1070 N.pl3  39  ARG39       0.1354
     69  NH2      -53.1130  -64.8600   59.9160 N.pl3  39  ARG39       0.1354
     70  N        -48.6310  -69.3940   57.3940 N.am   40  THR40      -0.1951
     71  CA       -49.3080  -70.1780   56.3670 C.3    40  THR40       0.1897
     72  C        -48.3030  -70.8790   55.4580 C.2    40  THR40       0.2313
     73  O        -47.7040  -70.2560   54.5820 O.2    40  THR40      -0.2863
     74  CB       -50.2380  -69.3010   55.5080 C.3    40  THR40       0.1794
     75  OG1      -51.2940  -68.7790   56.3230 O.3    40  THR40      -0.2208
     76  CG2      -50.8350  -70.1140   54.3700 C.3    40  THR40       0.0378
     77  N        -46.7040  -70.0850   51.4120 N.3    43  LYS43      -0.1245
     78  CA       -46.7710  -68.6750   51.0450 C.3    43  LYS43       0.1561
     79  C        -45.3950  -68.1390   50.6630 C.2    43  LYS43       0.2260
     80  O        -45.2200  -66.9370   50.4640 O.2    43  LYS43      -0.2867
     81  CB       -47.3560  -67.8500   52.1930 C.3    43  LYS43       0.0271
     82  CG       -48.0280  -66.5600   51.7510 C.3    43  LYS43       0.0035
     83  CD       -49.4410  -66.4570   52.3010 C.3    43  LYS43       0.0206
     84  CE       -49.9580  -65.0290   52.2280 C.3    43  LYS43       0.1093
     85  NZ       -50.5280  -64.5780   53.5280 N.3    43  LYS43      -0.1314
     86  N        -41.2920  -59.6370   59.9360 N.3    70  CYS70      -0.1221
     87  CA       -42.2200  -58.7360   59.3340 C.3    70  CYS70       0.1808
     88  C        -43.6010  -59.3710   59.1970 C.2    70  CYS70       0.2601
     89  O        -43.8690  -60.1190   58.2770 O.2    70  CYS70      -0.2717
     90  CB       -41.7050  -58.2940   57.9900 C.3    70  CYS70       0.0970
     91  SG       -42.6750  -56.9120   57.3560 S.3    70  CYS70      -0.0800
     92  N        -44.4730  -59.0570   60.1330 N.am   71  VAL71      -0.1965
     93  CA       -45.8060  -59.6360   60.1930 C.3    71  VAL71       0.1727
     94  C        -46.7750  -58.4840   60.3710 C.2    71  VAL71       0.2616
     95  O        -46.3430  -57.3350   60.3560 O.2    71  VAL71      -0.2715
     96  CB       -45.9550  -60.6700   61.3410 C.3    71  VAL71       0.0290
     97  CG1      -45.0840  -61.8890   61.0840 C.3    71  VAL71       0.0023
     98  CG2      -45.6350  -60.0420   62.6970 C.3    71  VAL71       0.0023
     99  N        -48.0620  -58.7760   60.5570 N.am   72  SER72      -0.1950
    100  CA       -49.0510  -57.7100   60.3980 C.3    72  SER72       0.1924
    101  C        -48.9690  -56.6760   61.4930 C.2    72  SER72       0.2314
    102  O        -48.9400  -55.4970   61.1850 O.2    72  SER72      -0.2863
    103  CB       -50.4280  -58.2980   60.3200 C.3    72  SER72       0.2116
    104  OG       -50.6120  -59.0770   61.4630 O.3    72  SER72      -0.2180
    105  N        -49.2930  -60.0630   66.5510 N.3    76  ALA76      -0.1245
    106  CA       -48.7120  -61.2170   65.8560 C.3    76  ALA76       0.1562
    107  C        -47.2940  -61.4940   66.3060 C.2    76  ALA76       0.2260
    108  O        -46.9120  -62.6550   66.4960 O.2    76  ALA76      -0.2867
    109  CB       -48.7650  -61.0510   64.3550 C.3    76  ALA76       0.0290
    110  N        -47.3890  -63.3060   69.4390 N.3    79  ALA79      -0.1231
    111  CA       -47.8570  -64.6630   69.2300 C.3    79  ALA79       0.1694
    112  C        -46.7680  -65.6030   68.7690 C.2    79  ALA79       0.2591
    113  O        -46.7090  -66.7270   69.2090 O.2    79  ALA79      -0.2718
    114  CB       -48.9910  -64.6660   68.2510 C.3    79  ALA79       0.0304
    115  N        -45.8640  -65.1160   67.9380 N.am   80  LEU80      -0.1980
    116  CA       -44.8190  -65.9680   67.4130 C.3    80  LEU80       0.1596
    117  C        -43.5600  -66.0080   68.2640 C.2    80  LEU80       0.2287
    118  O        -42.8370  -66.9750   68.1880 O.2    80  LEU80      -0.2864
    119  CB       -44.3930  -65.4830   66.0440 C.3    80  LEU80       0.0297
    120  CG       -45.4670  -65.3960   64.9920 C.3    80  LEU80       0.0022
    121  CD1      -44.8890  -64.8480   63.6970 C.3    80  LEU80       0.0001
    122  CD2      -46.0330  -66.7830   64.8260 C.3    80  LEU80       0.0001
    123  N        -39.2950  -55.4220   61.6750 N.3    97  LEU97      -0.1231
    124  CA       -39.7070  -54.3950   60.7020 C.3    97  LEU97       0.1693
    125  C        -41.2280  -54.3260   60.5720 C.2    97  LEU97       0.2593
    126  O        -41.7580  -53.7810   59.6050 O.2    97  LEU97      -0.2718
    127  CB       -39.0730  -54.6970   59.3360 C.3    97  LEU97       0.0284
    128  CG       -37.5520  -54.6730   59.3470 C.3    97  LEU97       0.0019
    129  CD1      -37.0930  -54.9970   57.9480 C.3    97  LEU97       0.0001
    130  CD2      -36.9720  -53.3500   59.8120 C.3    97  LEU97       0.0001
    131  N        -41.9130  -54.9040   61.5500 N.am   98  THR98      -0.1939
    132  CA       -43.3100  -54.7170   61.7230 C.3    98  THR98       0.2028
    133  C        -43.5840  -53.2960   62.1410 C.2    98  THR98       0.2642
    134  O        -42.8720  -52.6950   62.9780 O.2    98  THR98      -0.2714
    135  CB       -43.8560  -55.6880   62.7840 C.3    98  THR98       0.1808
    136  OG1      -43.5150  -57.0200   62.4050 O.3    98  THR98      -0.2208
    137  CG2      -45.3740  -55.6040   62.8800 C.3    98  THR98       0.0379
    138  N        -44.6530  -52.7660   61.5580 N.am   99  SER99      -0.1949
    139  CA       -45.1760  -51.4500   61.9140 C.3    99  SER99       0.1924
    140  C        -45.8830  -51.4890   63.2560 C.2    99  SER99       0.2314
    141  O        -46.6540  -52.3760   63.5300 O.2    99  SER99      -0.2863
    142  CB       -46.1680  -50.9310   60.8620 C.3    99  SER99       0.2116
    143  OG       -45.6620  -51.0480   59.5340 O.3    99  SER99      -0.2180
    144  N        -40.6900  -49.8590   57.5380 N.3   124  ILE124     -0.1231
    145  CA       -40.4970  -49.7630   56.0990 C.3   124  ILE124      0.1692
    146  C        -41.3600  -48.6230   55.5640 C.2   124  ILE124      0.2592
    147  O        -42.5590  -48.6100   55.7950 O.2   124  ILE124     -0.2718
    148  CB       -41.0420  -50.9860   55.3590 C.3   124  ILE124      0.0266
    149  CG1      -40.6980  -52.3290   56.0100 C.3   124  ILE124      0.0019
    150  CG2      -40.6010  -50.9450   53.9200 C.3   124  ILE124      0.0020
    151  CD1      -39.2700  -52.6490   56.0960 C.3   124  ILE124      0.0001
    152  N        -40.7920  -47.7070   54.7980 N.am  125  LEU125     -0.1966
    153  CA       -41.5630  -46.5770   54.2420 C.3   125  LEU125      0.1728
    154  C        -41.5630  -46.6250   52.7090 C.2   125  LEU125      0.2616
    155  O        -41.2490  -45.6650   52.0430 O.2   125  LEU125     -0.2715
    156  CB       -40.9840  -45.2490   54.7470 C.3   125  LEU125      0.0311
    157  CG       -41.3700  -44.7920   56.1750 C.3   125  LEU125      0.0022
    158  CD1      -40.9760  -45.8180   57.2150 C.3   125  LEU125      0.0001
    159  CD2      -40.6870  -43.4740   56.4580 C.3   125  LEU125      0.0001
    160  N        -41.9330  -47.7640   52.1680 N.am  126  ALA126     -0.1963
    161  CA       -41.9420  -47.9400   50.7510 C.3   126  ALA126      0.1728
    162  C        -42.6890  -49.2050   50.5540 C.2   126  ALA126      0.2617
    163  O        -42.9060  -49.9310   51.4960 O.2   126  ALA126     -0.2715
    164  CB       -40.5310  -48.0760   50.2010 C.3   126  ALA126      0.0334
    165  N        -43.0940  -49.4760   49.3290 N.am  127  GLY127     -0.1941
    166  CA       -43.8990  -50.6570   49.0300 C.3   127  GLY127      0.1998
    167  C        -42.9940  -51.8000   48.7160 C.2   127  GLY127      0.2480
    168  O        -41.8000  -51.5970   48.5370 O.2   127  GLY127     -0.2729
    169  N        -43.5480  -53.0180   48.6870 N.am  128  PRO128     -0.2726
    170  CA       -42.7540  -54.2160   48.4690 C.3   128  PRO128      0.1402
    171  C        -41.9060  -54.1620   47.2080 C.2   128  PRO128      0.2269
    172  O        -40.7610  -54.5590   47.2380 O.2   128  PRO128     -0.2865
    173  CB       -43.7970  -55.3260   48.3580 C.3   128  PRO128      0.0296
    174  CG       -44.9750  -54.8250   49.1310 C.3   128  PRO128      0.0237
    175  CD       -44.9600  -53.3280   48.9500 C.3   128  PRO128      0.0939
@<TRIPOS>BOND
     1   171   172    2
     2   171   170    1
     3   173   170    1
     4   173   174    1
     5   170   169    1
     6   168   167    2
     7    24    22    1
     8   169   167   am
     9   169   175    1
    10   167   166    1
    11   175   174    1
    12   166   165    1
    13    23    22    1
    14   165   162   am
    15    22    21    1
    16    21    18    1
    17    20    19    2
    18   164   161    1
    19    80    79    2
    20    18    19    1
    21    18    17    1
    22   162   161    1
    23   162   163    2
    24    79    78    1
    25   161   160    1
    26    19    25   am
    27    78    77    1
    28    78    81    1
    29    17    15   am
    30    82    81    1
    31    82    83    1
    32    16    15    2
    33   155   154    2
    34    25    26    1
    35   160   154   am
    36    84    83    1
    37    84    85    1
    38    15    14    1
    39    26    27    1
    40    26    29    1
    41    32    31    1
    42    31    30    1
    43     8     7    2
    44    28    27    2
    45   154   153    1
    46    35    36    2
    47    35    34    1
    48    27    33   am
    49    14    13    1
    50    29    30    1
    51     7    13   am
    52     7     6    1
    53    33    34    1
    54     9     6    1
    55     9    10    1
    56    11    10    1
    57    12    10    1
    58   150   148    1
    59     6     5    1
    60   153   156    1
    61   153   152    1
    62    76    74    1
    63    73    72    2
    64   156   157    1
    65   152   146   am
    66   148   149    1
    67   148   145    1
    68    58    56   am
    69    72    71    1
    70    74    75    1
    71    74    71    1
    72   146   147    2
    73   146   145    1
    74     5     3   am
    75   149   151    1
    76     4     3    2
    77    56    55    1
    78    56    57    2
    79   145   144    1
    80    55    52    1
    81   157   159    1
    82   157   158    1
    83    71    70    1
    84     3     2    1
    85    37    38    1
    86    91    90    1
    87    70    61   am
    88    52    51    1
    89    52    53    1
    90    51    39   am
    91    39    38    1
    92    39    40    2
    93    38    41    1
    94    54    53    2
    95   129   128    1
    96    90    87    1
    97     2     1    1
    98    53    59   am
    99    89    88    2
   100    61    62    2
   101    61    60    1
   102    59    60    1
   103    88    87    1
   104    88    92   am
   105    41    42    1
   106    87    86    1
   107   127   128    1
   108   127   124    1
   109   128   130    1
   110   143   142    1
   111    60    63    1
   112   126   125    2
   113    42    43   ar
   114    42    44   ar
   115    69    67    1
   116    43    45   ar
   117    92    93    1
   118    63    64    1
   119    93    94    1
   120    93    96    1
   121   103   100    1
   122   103   104    1
   123    95    94    2
   124    94    99   am
   125   100    99    1
   126   100   101    1
   127    66    67    2
   128    66    65    1
   129    44    47   ar
   130    44    46   ar
   131   125   124    1
   132   125   131   am
   133    64    65    1
   134   124   123    1
   135    47    49   ar
   136    67    68    1
   137    45    46   ar
   138   142   139    1
   139    97    96    1
   140    46    48   ar
   141   102   101    2
   142    96    98    1
   143    49    50   ar
   144   131   132    1
   145   138   139    1
   146   138   133   am
   147   132   133    1
   148   132   135    1
   149    48    50   ar
   150   139   140    1
   151   133   134    2
   152   136   135    1
   153   135   137    1
   154   140   141    2
   155   121   120    1
   156   109   106    1
   157   122   120    1
   158   120   119    1
   159   106   107    1
   160   106   105    1
   161   119   116    1
   162   107   108    2
   163   116   115    1
   164   116   117    1
   165   115   112   am
   166   118   117    2
   167   114   111    1
   168   112   113    2
   169   112   111    1
   170   111   110    1
