@<TRIPOS>MOLECULE
tmp/3zhfA00.pdb
 128 123 0 0 0
SMALL
GASTEIGER

@<TRIPOS>ATOM
      1  N         19.0900   38.9620   43.9870 N.3    52  GLN52      -0.1231
      2  CA        19.7110   40.2300   43.6460 C.3    52  GLN52       0.1698
      3  C         20.9340   39.9430   42.7890 C.2    52  GLN52       0.2592
      4  O         21.5790   38.9110   42.9570 O.2    52  GLN52      -0.2718
      5  CB        20.0880   40.9860   44.9140 C.3    52  GLN52       0.0381
      6  CG        18.8740   41.4380   45.7000 C.3    52  GLN52       0.0905
      7  CD        19.2470   42.1560   46.9760 C.2    52  GLN52       0.2608
      8  OE1       19.5640   41.5270   47.9850 O.2    52  GLN52      -0.2717
      9  NE2       19.2170   43.4770   46.9370 N.am   52  GLN52      -0.0878
     10  N         21.2360   40.8240   41.8390 N.am   53  ALA53      -0.1966
     11  CA        22.3480   40.5580   40.9380 C.3    53  ALA53       0.1728
     12  C         23.1980   41.7950   40.7080 C.2    53  ALA53       0.2616
     13  O         22.7140   42.9180   40.8030 O.2    53  ALA53      -0.2715
     14  CB        21.8530   40.0070   39.6020 C.3    53  ALA53       0.0334
     15  N         24.4730   41.5700   40.4060 N.am   54  ALA54      -0.1963
     16  CA        25.4050   42.6600   40.1530 C.3    54  ALA54       0.1728
     17  C         26.3130   42.2860   38.9940 C.2    54  ALA54       0.2616
     18  O         26.6820   41.1220   38.8270 O.2    54  ALA54      -0.2715
     19  CB        26.2280   42.9620   41.3950 C.3    54  ALA54       0.0334
     20  N         26.6530   43.2770   38.1780 N.am   55  VAL55      -0.1964
     21  CA        27.5490   43.0710   37.0480 C.3    55  VAL55       0.1712
     22  C         28.6080   44.1700   37.0810 C.2    55  VAL55       0.2458
     23  O         28.4100   45.1860   37.7500 O.2    55  VAL55      -0.2730
     24  CB        26.7810   43.1210   35.7060 C.3    55  VAL55       0.0289
     25  CG1       25.7730   41.9750   35.6210 C.3    55  VAL55       0.0023
     26  CG2       26.0950   44.4620   35.5370 C.3    55  VAL55       0.0023
     27  N         29.7400   43.9680   36.3830 N.am   56  PRO56      -0.2716
     28  CA        30.7620   45.0250   36.3530 C.3    56  PRO56       0.1536
     29  C         30.1880   46.3230   35.7810 C.2    56  PRO56       0.2598
     30  O         29.2200   46.2600   35.0250 O.2    56  PRO56      -0.2715
     31  CB        31.8220   44.4580   35.4070 C.3    56  PRO56       0.0310
     32  CG        31.6250   42.9740   35.4450 C.3    56  PRO56       0.0237
     33  CD        30.1530   42.7720   35.6200 C.3    56  PRO56       0.0939
     34  N         30.7590   47.4740   36.1360 N.am   57  LYS57      -0.1964
     35  CA        30.1910   48.7540   35.7140 C.3    57  LYS57       0.1728
     36  C         30.4200   49.0070   34.2350 C.2    57  LYS57       0.2616
     37  O         29.9110   49.9730   33.6810 O.2    57  LYS57      -0.2715
     38  CB        30.7390   49.9220   36.5410 C.3    57  LYS57       0.0311
     39  CG        32.2030   50.2250   36.3040 C.3    57  LYS57       0.0038
     40  CD        32.7210   51.2670   37.2860 C.3    57  LYS57       0.0206
     41  CE        34.2210   51.4660   37.1380 C.3    57  LYS57       0.1093
     42  NZ        34.7180   52.5850   37.9860 N.3    57  LYS57      -0.1314
     43  N         31.1910   48.1290   33.6040 N.am   58  SER58      -0.1950
     44  CA        31.4030   48.1840   32.1610 C.3    58  SER58       0.1924
     45  C         30.1780   47.6690   31.4050 C.2    58  SER58       0.2314
     46  O         30.1190   47.7360   30.1750 O.2    58  SER58      -0.2863
     47  CB        32.6440   47.3770   31.7800 C.3    58  SER58       0.2116
     48  OG        32.6360   46.0950   32.3870 O.3    58  SER58      -0.2180
     49  N         22.8460   46.4980   33.6970 N.3    61  LEU61      -0.1245
     50  CA        21.8940   45.4620   34.0760 C.3    61  LEU61       0.1561
     51  C         20.5110   46.0340   34.3760 C.2    61  LEU61       0.2260
     52  O         20.3870   47.0710   35.0300 O.2    61  LEU61      -0.2867
     53  CB        22.4120   44.7010   35.2940 C.3    61  LEU61       0.0270
     54  CG        21.4620   43.7230   35.9700 C.3    61  LEU61       0.0019
     55  CD1       21.1970   42.5270   35.0870 C.3    61  LEU61       0.0001
     56  CD2       22.0710   43.2980   37.3200 C.3    61  LEU61       0.0001
     57  N         16.6430   44.5980   35.8330 N.3    63  LEU63      -0.1245
     58  CA        15.9200   43.4640   36.3930 C.3    63  LEU63       0.1561
     59  C         14.4360   43.6360   36.2080 C.2    63  LEU63       0.2260
     60  O         13.8710   44.6680   36.5600 O.2    63  LEU63      -0.2867
     61  CB        16.1980   43.3000   37.8930 C.3    63  LEU63       0.0270
     62  CG        17.4510   42.5290   38.2890 C.3    63  LEU63       0.0019
     63  CD1       18.6510   43.4450   38.2460 C.3    63  LEU63       0.0001
     64  CD2       17.2780   41.9200   39.6770 C.3    63  LEU63       0.0001
     65  N         30.6760   39.1670   34.0310 N.3    94  ARG94      -0.1231
     66  CA        30.7850   38.5950   35.3600 C.3    94  ARG94       0.1694
     67  C         29.4600   38.8640   36.0410 C.2    94  ARG94       0.2592
     68  O         28.8230   39.8850   35.7980 O.2    94  ARG94      -0.2718
     69  CB        31.9420   39.2180   36.1370 C.3    94  ARG94       0.0321
     70  CG        33.2970   38.9720   35.4890 C.3    94  ARG94       0.0489
     71  CD        34.4010   39.6550   36.2600 C.3    94  ARG94       0.2205
     72  NE        34.5250   39.1140   37.6070 N.pl3  94  ARG94      -0.0865
     73  CZ        35.2560   39.6670   38.5670 C.cat  94  ARG94       0.5346
     74  NH1       35.9260   40.7870   38.3320 N.pl3  94  ARG94       0.1354
     75  NH2       35.3120   39.1070   39.7650 N.pl3  94  ARG94       0.1354
     76  N         29.0280   37.9280   36.8690 N.am   95  LEU95      -0.1966
     77  CA        27.7240   38.0300   37.4800 C.3    95  LEU95       0.1728
     78  C         27.8440   37.5350   38.9140 C.2    95  LEU95       0.2616
     79  O         28.3140   36.4170   39.1580 O.2    95  LEU95      -0.2715
     80  CB        26.7290   37.1770   36.6950 C.3    95  LEU95       0.0311
     81  CG        25.2450   37.2240   37.0500 C.3    95  LEU95       0.0022
     82  CD1       24.6500   38.5980   36.8120 C.3    95  LEU95       0.0001
     83  CD2       24.5180   36.1890   36.2130 C.3    95  LEU95       0.0001
     84  N         27.4420   38.3850   39.8530 N.am   96  LYS96      -0.1963
     85  CA        27.4200   38.0330   41.2650 C.3    96  LYS96       0.1728
     86  C         25.9680   38.0270   41.7150 C.2    96  LYS96       0.2616
     87  O         25.2120   38.9510   41.4070 O.2    96  LYS96      -0.2715
     88  CB        28.2240   39.0470   42.0750 C.3    96  LYS96       0.0311
     89  CG        28.4940   38.6410   43.5220 C.3    96  LYS96       0.0038
     90  CD        29.5960   39.5120   44.1060 C.3    96  LYS96       0.0206
     91  CE        29.8600   39.1810   45.5710 C.3    96  LYS96       0.1093
     92  NZ        31.0170   39.9510   46.1010 N.3    96  LYS96      -0.1314
     93  N         25.5740   36.9770   42.4250 N.am   97  LEU97      -0.1963
     94  CA        24.1860   36.8400   42.8510 C.3    97  LEU97       0.1728
     95  C         24.0650   36.7990   44.3630 C.2    97  LEU97       0.2616
     96  O         24.9310   36.2700   45.0380 O.2    97  LEU97      -0.2715
     97  CB        23.5790   35.5600   42.2710 C.3    97  LEU97       0.0311
     98  CG        23.5390   35.3990   40.7520 C.3    97  LEU97       0.0022
     99  CD1       22.9100   34.0570   40.3950 C.3    97  LEU97       0.0001
    100  CD2       22.7680   36.5510   40.1360 C.3    97  LEU97       0.0001
    101  N         22.9780   37.3540   44.8730 N.am   98  ARG98      -0.1977
    102  CA        22.6610   37.2530   46.2930 C.3    98  ARG98       0.1597
    103  C         21.2730   36.6570   46.4000 C.2    98  ARG98       0.2287
    104  O         20.2980   37.2640   45.9570 O.2    98  ARG98      -0.2864
    105  CB        22.6930   38.6290   46.9540 C.3    98  ARG98       0.0334
    106  CG        22.3810   38.6090   48.4430 C.3    98  ARG98       0.0492
    107  CD        22.4680   40.0160   49.0230 C.3    98  ARG98       0.2205
    108  NE        22.2050   40.0390   50.4620 N.pl3  98  ARG98      -0.0865
    109  CZ        21.0230   40.3260   51.0010 C.cat  98  ARG98       0.5346
    110  NH1       19.9880   40.6080   50.2210 N.pl3  98  ARG98       0.1354
    111  NH2       20.8760   40.3270   52.3200 N.pl3  98  ARG98       0.1354
    112  N         25.5990   34.1150   48.7130 N.3   111  ILE111     -0.1245
    113  CA        26.1550   35.0930   47.7880 C.3   111  ILE111      0.1561
    114  C         27.3430   34.4740   47.0930 C.2   111  ILE111      0.2260
    115  O         28.1960   33.8730   47.7340 O.2   111  ILE111     -0.2867
    116  CB        26.6020   36.3760   48.5110 C.3   111  ILE111      0.0252
    117  CG1       25.4380   37.0110   49.2700 C.3   111  ILE111      0.0019
    118  CG2       27.1830   37.3850   47.5170 C.3   111  ILE111      0.0019
    119  CD1       25.8050   38.3230   49.9290 C.3   111  ILE111      0.0001
    120  N         29.8740   34.6070   43.1400 N.3   113  GLU113     -0.1245
    121  CA        30.0800   34.9770   41.7530 C.3   113  GLU113      0.1567
    122  C         29.8650   33.7370   40.9040 C.2   113  GLU113      0.2260
    123  O         30.2690   32.6360   41.2810 O.2   113  GLU113     -0.2867
    124  CB        31.4760   35.5500   41.5200 C.3   113  GLU113      0.0388
    125  CG        31.7220   35.8570   40.0490 C.3   113  GLU113      0.1160
    126  CD        32.9950   36.6320   39.7860 C.2   113  GLU113      0.3649
    127  OE1       33.7480   36.9190   40.7390 O.co2 113  GLU113     -0.2457
    128  OE2       33.2380   36.9550   38.6080 O.co2 113  GLU113     -0.2457
@<TRIPOS>BOND
     1    46    45    2
     2    45    44    1
     3    47    44    1
     4    47    48    1
     5    44    43    1
     6    43    36   am
     7    37    36    2
     8    49    50    1
     9    65    66    1
    10    50    51    1
    11    50    53    1
    12    36    35    1
    13    51    52    2
    14    30    29    2
    15    55    54    1
    16    53    54    1
    17    66    67    1
    18    66    69    1
    19    31    32    1
    20    31    28    1
    21    32    33    1
    22    70    69    1
    23    70    71    1
    24    26    24    1
    25    33    27    1
    26    25    24    1
    27    24    21    1
    28    35    34    1
    29    35    38    1
    30    29    34   am
    31    29    28    1
    32    68    67    2
    33    57    58    1
    34    54    56    1
    35    67    76   am
    36    59    58    1
    37    59    60    2
    38    83    81    1
    39    71    72    1
    40    39    38    1
    41    39    40    1
    42    28    27    1
    43    27    22   am
    44    58    61    1
    45    80    81    1
    46    80    77    1
    47    82    81    1
    48    76    77    1
    49    21    22    1
    50    21    20    1
    51    22    23    2
    52    41    40    1
    53    41    42    1
    54    77    78    1
    55    72    73    2
    56    61    62    1
    57    20    17   am
    58    63    62    1
    59    62    64    1
    60    74    73    1
    61    73    75    1
    62   128   126   ar
    63    18    17    2
    64    78    79    2
    65    78    84   am
    66    17    16    1
    67    14    11    1
    68   126   125    1
    69   126   127   ar
    70    84    85    1
    71   125   124    1
    72   100    98    1
    73    16    15    1
    74    16    19    1
    75    99    98    1
    76    15    12   am
    77    12    13    2
    78    12    11    1
    79    98    97    1
    80   122   123    2
    81   122   121    1
    82    11    10    1
    83    85    86    1
    84    85    88    1
    85    87    86    2
    86   124   121    1
    87    86    93   am
    88   121   120    1
    89    10     3   am
    90    88    89    1
    91    97    94    1
    92    93    94    1
    93     3     4    2
    94     3     2    1
    95    94    95    1
    96    89    90    1
    97     2     1    1
    98     2     5    1
    99    90    91    1
   100    95   101   am
   101    95    96    2
   102   101   102    1
   103     5     6    1
   104    91    92    1
   105     6     7    1
   106   104   103    2
   107   102   103    1
   108   102   105    1
   109     9     7   am
   110   105   106    1
   111     7     8    2
   112   114   115    2
   113   114   113    1
   114   118   116    1
   115   113   116    1
   116   113   112    1
   117   106   107    1
   118   116   117    1
   119   107   108    1
   120   117   119    1
   121   110   109    1
   122   108   109    2
   123   109   111    1
