@<TRIPOS>MOLECULE
tmp/3zhsA00.pdb
 161 156 0 0 0
SMALL
GASTEIGER

@<TRIPOS>ATOM
      1  N         -1.4270   26.6700  -37.5640 N.3   124  ARG124     -0.1245
      2  CA        -1.2880   25.2800  -37.9750 C.3   124  ARG124      0.1563
      3  C         -2.5900   24.4580  -37.8320 C.2   124  ARG124      0.2260
      4  O         -2.7730   23.4870  -38.5640 O.2   124  ARG124     -0.2867
      5  CB        -0.1130   24.5950  -37.2520 C.3   124  ARG124      0.0307
      6  CG        -0.2180   24.4770  -35.7580 C.3   124  ARG124      0.0489
      7  CD         1.0960   23.9760  -35.1710 C.3   124  ARG124      0.2205
      8  NE         1.2640   24.4380  -33.7930 N.pl3 124  ARG124     -0.0865
      9  CZ         2.0740   23.8800  -32.8990 C.cat 124  ARG124      0.5346
     10  NH1        2.8190   22.8270  -33.2280 N.pl3 124  ARG124      0.1354
     11  NH2        2.1440   24.3650  -31.6660 N.pl3 124  ARG124      0.1354
     12  N         -6.7070   14.0010  -37.2060 N.3   157  PRO157     -0.2102
     13  CA        -5.4760   14.7240  -36.8440 C.3   157  PRO157      0.1504
     14  C         -5.8470   16.1020  -36.2260 C.2   157  PRO157      0.2576
     15  O         -7.0220   16.3560  -35.9730 O.2   157  PRO157     -0.2718
     16  CB        -4.7230   14.8090  -38.1600 C.3   157  PRO157      0.0282
     17  CG        -5.7910   14.7350  -39.2320 C.3   157  PRO157      0.0208
     18  CD        -7.0340   14.1660  -38.6390 C.3   157  PRO157      0.0893
     19  N         -4.8630   16.9890  -35.9690 N.am  158  HIS158     -0.1962
     20  CA        -5.0860   18.2550  -35.2650 C.3   158  HIS158      0.1787
     21  C         -5.9070   19.3360  -36.0080 C.2   158  HIS158      0.2620
     22  O         -6.5920   20.1180  -35.3260 O.2   158  HIS158     -0.2715
     23  CB        -3.7560   18.8800  -34.8200 C.3   158  HIS158      0.0785
     24  CG        -2.7640   19.0840  -35.9220 C.ar  158  HIS158      0.0821
     25  ND1       -1.9570   18.0390  -36.3680 N.ar  158  HIS158     -0.2267
     26  CD2       -2.4650   20.1900  -36.6370 C.ar  158  HIS158      0.1154
     27  CE1       -1.1960   18.5460  -37.3260 C.ar  158  HIS158      0.1986
     28  NE2       -1.4600   19.8290  -37.5280 N.ar  158  HIS158     -0.2212
     29  N         -5.8360   19.4210  -37.3550 N.am  159  ARG159     -0.1977
     30  CA        -6.5430   20.4660  -38.1150 C.3   159  ARG159      0.1597
     31  C         -8.0790   20.4770  -37.8390 C.2   159  ARG159      0.2287
     32  O         -8.7840   19.5260  -38.1450 O.2   159  ARG159     -0.2864
     33  CB        -6.2520   20.3800  -39.6300 C.3   159  ARG159      0.0334
     34  CG        -6.8080   21.5920  -40.4130 C.3   159  ARG159      0.0492
     35  CD        -6.4770   21.6080  -41.8980 C.3   159  ARG159      0.2205
     36  NE        -5.0340   21.4580  -42.1610 N.pl3 159  ARG159     -0.0865
     37  CZ        -4.1280   22.4220  -42.0440 C.cat 159  ARG159      0.5346
     38  NH1       -4.4910   23.6430  -41.6720 N.pl3 159  ARG159      0.1354
     39  NH2       -2.8540   22.1770  -42.3100 N.pl3 159  ARG159      0.1354
     40  N          0.8880   13.0680  -32.7080 N.3   211  SER211     -0.1202
     41  CA         1.0350   13.9160  -33.8880 C.3   211  SER211      0.2020
     42  C          1.2400   13.0470  -35.1360 C.2   211  SER211      0.2619
     43  O          1.0290   13.5280  -36.2440 O.2   211  SER211     -0.2717
     44  CB         2.1940   14.8860  -33.7140 C.3   211  SER211      0.2103
     45  OG         1.9710   15.8270  -32.6760 O.3   211  SER211     -0.2182
     46  N          1.6300   11.7710  -34.9460 N.am  212  HIS212     -0.1961
     47  CA         1.8480   10.7530  -36.0020 C.3   212  HIS212      0.1787
     48  C          0.5770   10.5310  -36.7500 C.2   212  HIS212      0.2620
     49  O         -0.3590    9.8820  -36.2570 O.2   212  HIS212     -0.2715
     50  CB         2.3790    9.4380  -35.4020 C.3   212  HIS212      0.0785
     51  CG         3.7490    9.6050  -34.8160 C.ar  212  HIS212      0.0821
     52  ND1        3.9960   10.5400  -33.8350 N.ar  212  HIS212     -0.2267
     53  CD2        4.9010    8.9830  -35.1210 C.ar  212  HIS212      0.1154
     54  CE1        5.2840   10.4420  -33.5580 C.ar  212  HIS212      0.1986
     55  NE2        5.8660    9.5230  -34.3000 N.ar  212  HIS212     -0.2212
     56  N          0.5050   11.1670  -37.9100 N.am  213  LEU213     -0.1977
     57  CA        -0.6820   11.1430  -38.7540 C.3   213  LEU213      0.1596
     58  C         -1.0380    9.7120  -39.1310 C.2   213  LEU213      0.2287
     59  O         -0.1660    8.9050  -39.4330 O.2   213  LEU213     -0.2864
     60  CB        -0.4700   12.0200  -40.0210 C.3   213  LEU213      0.0297
     61  CG        -0.1640   13.5070  -39.7720 C.3   213  LEU213      0.0022
     62  CD1        0.3600   14.2010  -41.0120 C.3   213  LEU213      0.0001
     63  CD2       -1.4090   14.2450  -39.2500 C.3   213  LEU213      0.0001
     64  N         -5.9530   13.6480  -43.6330 N.3   251  GLY251     -0.1210
     65  CA        -5.3990   14.6830  -44.4960 C.3   251  GLY251      0.1956
     66  C         -5.0620   13.9940  -45.8110 C.2   251  GLY251      0.2612
     67  O         -4.8640   12.7870  -45.8020 O.2   251  GLY251     -0.2717
     68  N         -5.0060   14.7250  -46.9420 N.am  252  ASP252     -0.1959
     69  CA        -4.7660   14.1230  -48.2520 C.3   252  ASP252      0.1840
     70  C         -3.3390   13.5540  -48.4130 C.2   252  ASP252      0.2622
     71  O         -3.1890   12.5130  -49.0590 O.2   252  ASP252     -0.2715
     72  CB        -5.0670   15.1180  -49.3980 C.3   252  ASP252      0.1450
     73  CG        -4.2720   16.4280  -49.3710 C.2   252  ASP252      0.3671
     74  OD1       -4.3480   17.1450  -48.3650 O.co2 252  ASP252     -0.2456
     75  OD2       -3.5300   16.6980  -50.3410 O.co2 252  ASP252     -0.2456
     76  N         -2.2960   14.2470  -47.9160 N.am  253  ALA253     -0.1963
     77  CA        -0.9250   13.7140  -48.0810 C.3   253  ALA253      0.1728
     78  C         -0.7150   12.4660  -47.2060 C.2   253  ALA253      0.2616
     79  O         -0.1490   11.4810  -47.6870 O.2   253  ALA253     -0.2715
     80  CB         0.1220   14.7620  -47.7570 C.3   253  ALA253      0.0334
     81  N         -1.2580   12.4820  -45.9680 N.am  254  ALA254     -0.1977
     82  CA        -1.0640   11.3910  -44.9990 C.3   254  ALA254      0.1597
     83  C         -1.8460   10.1450  -45.3930 C.2   254  ALA254      0.2287
     84  O         -1.3350    9.0400  -45.2290 O.2   254  ALA254     -0.2864
     85  CB        -1.4620   11.8460  -43.6100 C.3   254  ALA254      0.0319
     86  N          0.9280    6.9170  -45.7660 N.3   258  GLN258     -0.1245
     87  CA         1.0980    6.1130  -44.5550 C.3   258  GLN258      0.1566
     88  C          0.5820    4.6850  -44.7800 C.2   258  GLN258      0.2260
     89  O         -0.5940    4.5030  -45.0650 O.2   258  GLN258     -0.2867
     90  CB         0.3650    6.7820  -43.3440 C.3   258  GLN258      0.0367
     91  CG         1.0800    8.0290  -42.7780 C.3   258  GLN258      0.0905
     92  CD         2.4320    7.7030  -42.1830 C.2   258  GLN258      0.2608
     93  OE1        2.5420    6.9200  -41.2350 O.2   258  GLN258     -0.2717
     94  NE2        3.5080    8.2460  -42.7610 N.am  258  GLN258     -0.0878
     95  N         -9.9440   15.4360  -45.6090 N.3   283  VAL283     -0.1245
     96  CA        -9.9290   16.8870  -45.7540 C.3   283  VAL283      0.1561
     97  C         -8.8370   17.1410  -46.8070 C.2   283  VAL283      0.2260
     98  O         -7.6530   17.2630  -46.4860 O.2   283  VAL283     -0.2867
     99  CB        -9.7080   17.6150  -44.4030 C.3   283  VAL283      0.0252
    100  CG1       -9.6630   19.1380  -44.6010 C.3   283  VAL283      0.0019
    101  CG2      -10.7930   17.2210  -43.3900 C.3   283  VAL283      0.0019
    102  N         -7.1760   19.2910  -48.9180 N.3   285  ASN285     -0.1240
    103  CA        -6.8540   20.6930  -49.1850 C.3   285  ASN285      0.1653
    104  C         -5.7480   20.8040  -50.2620 C.2   285  ASN285      0.2266
    105  O         -5.2130   21.8880  -50.4950 O.2   285  ASN285     -0.2867
    106  CB        -6.4840   21.4310  -47.8970 C.3   285  ASN285      0.1155
    107  CG        -5.3960   20.8010  -47.0830 C.2   285  ASN285      0.2627
    108  OD1       -4.6100   19.9750  -47.5680 O.2   285  ASN285     -0.2716
    109  ND2       -5.3350   21.1800  -45.8120 N.am  285  ASN285     -0.0877
    110  N         -2.6950   19.8300  -50.6810 N.3   287  ILE287     -0.1231
    111  CA        -1.3690   20.2400  -50.2360 C.3   287  ILE287      0.1692
    112  C         -1.0090   19.4730  -48.9570 C.2   287  ILE287      0.2593
    113  O         -1.8830   19.1080  -48.1620 O.2   287  ILE287     -0.2718
    114  CB        -1.2950   21.7950  -50.0400 C.3   287  ILE287      0.0266
    115  CG1        0.1800   22.3130  -50.0520 C.3   287  ILE287      0.0019
    116  CG2       -2.1370   22.2960  -48.8320 C.3   287  ILE287      0.0020
    117  CD1        0.3490   23.8480  -50.2810 C.3   287  ILE287      0.0001
    118  N          0.2770   19.2790  -48.7680 N.am  288  GLY288     -0.1942
    119  CA         0.8170   18.6430  -47.5720 C.3   288  GLY288      0.2014
    120  C          1.9790   19.4710  -47.1160 C.2   288  GLY288      0.2638
    121  O          3.0870   19.2940  -47.6230 O.2   288  GLY288     -0.2714
    122  N          1.6990   20.4760  -46.2470 N.am  289  PHE289     -0.1973
    123  CA         2.6750   21.4490  -45.7730 C.3   289  PHE289      0.1639
    124  C          3.1440   22.3010  -46.9960 C.2   289  PHE289      0.2290
    125  O          2.4090   23.2040  -47.4280 O.2   289  PHE289     -0.2864
    126  CB         3.8350   20.7460  -45.0090 C.3   289  PHE289      0.0560
    127  CG         4.6720   21.6030  -44.0980 C.ar  289  PHE289     -0.0200
    128  CD1        4.8730   22.9540  -44.3750 C.ar  289  PHE289     -0.0042
    129  CD2        5.3300   21.0470  -43.0050 C.ar  289  PHE289     -0.0042
    130  CE1        5.6420   23.7490  -43.5330 C.ar  289  PHE289     -0.0003
    131  CE2        6.1320   21.8400  -42.1800 C.ar  289  PHE289     -0.0003
    132  CZ         6.2810   23.1870  -42.4470 C.ar  289  PHE289     -0.0000
    133  N         -6.3600   25.1240  -48.2850 N.3   350  ARG350     -0.1245
    134  CA        -5.8260   25.5790  -47.0140 C.3   350  ARG350      0.1563
    135  C         -5.6050   27.0470  -47.1640 C.2   350  ARG350      0.2260
    136  O         -4.6800   27.4540  -47.8710 O.2   350  ARG350     -0.2867
    137  CB        -4.5570   24.7850  -46.6090 C.3   350  ARG350      0.0307
    138  CG        -4.1680   25.0020  -45.1420 C.3   350  ARG350      0.0489
    139  CD        -2.7280   24.6340  -44.9390 C.3   350  ARG350      0.2205
    140  NE        -1.8820   25.5350  -45.7330 N.pl3 350  ARG350     -0.0865
    141  CZ        -0.7690   25.2080  -46.3790 C.cat 350  ARG350      0.5346
    142  NH1       -0.3100   23.9650  -46.3380 N.pl3 350  ARG350      0.1354
    143  NH2       -0.1160   26.1210  -47.0860 N.pl3 350  ARG350      0.1354
    144  N          0.9470   26.8280  -43.6610 N.3   354  HIS354     -0.1226
    145  CA         0.8860   25.6030  -42.8540 C.3   354  HIS354      0.1752
    146  C          1.0600   25.8940  -41.3630 C.2   354  HIS354      0.2596
    147  O          0.4330   25.2350  -40.5370 O.2   354  HIS354     -0.2718
    148  CB         1.9200   24.5760  -43.3110 C.3   354  HIS354      0.0759
    149  CG         1.7210   23.2390  -42.6740 C.ar  354  HIS354      0.0818
    150  ND1        0.6100   22.4540  -42.9690 N.ar  354  HIS354     -0.2268
    151  CD2        2.4540   22.6230  -41.7180 C.ar  354  HIS354      0.1154
    152  CE1        0.7390   21.3690  -42.2290 C.ar  354  HIS354      0.1986
    153  NE2        1.8250   21.4340  -41.4490 N.ar  354  HIS354     -0.2212
    154  N          1.8990   26.8810  -41.0310 N.am  355  ASN355     -0.1974
    155  CA         2.1350   27.2980  -39.6620 C.3   355  ASN355      0.1688
    156  C          2.7610   28.7180  -39.6440 C.2   355  ASN355      0.2292
    157  O          2.8060   29.3870  -40.6830 O.2   355  ASN355     -0.2864
    158  CB         3.0040   26.2620  -38.9130 C.3   355  ASN355      0.1181
    159  CG         4.2990   25.8450  -39.5890 C.2   355  ASN355      0.2629
    160  OD1        4.8370   26.5080  -40.4680 O.2   355  ASN355     -0.2716
    161  ND2        4.8620   24.7560  -39.1360 N.am  355  ASN355     -0.0877
@<TRIPOS>BOND
     1   110   111    1
     2   105   104    2
     3    75    73   ar
     4   117   115    1
     5   104   103    1
     6   111   114    1
     7   111   112    1
     8   115   114    1
     9   114   116    1
    10    72    73    1
    11    72    69    1
    12    73    74   ar
    13   103   102    1
    14   103   106    1
    15    71    70    2
    16   112   118   am
    17   112   113    2
    18   118   119    1
    19    70    69    1
    20    70    76   am
    21   133   134    1
    22    69    68    1
    23    77    76    1
    24    77    80    1
    25    77    78    1
    26   106   107    1
    27   136   135    2
    28    79    78    2
    29   121   120    2
    30   119   120    1
    31   108   107    2
    32   125   124    2
    33    78    81   am
    34   135   134    1
    35   120   122   am
    36   143   141    1
    37   107   109   am
    38   134   137    1
    39   124   123    1
    40    68    66   am
    41    97    98    2
    42    97    96    1
    43   137   138    1
    44   141   142    1
    45   141   140    2
    46   122   123    1
    47    81    82    1
    48    66    67    2
    49    66    65    1
    50   123   126    1
    51    86    87    1
    52    96    95    1
    53    96    99    1
    54   140   139    1
    55    83    84    2
    56    83    82    1
    57   138   139    1
    58    89    88    2
    59   126   127    1
    60    82    85    1
    61    88    87    1
    62   100    99    1
    63    87    90    1
    64    65    64    1
    65    99   101    1
    66   128   127   ar
    67   128   130   ar
    68   127   129   ar
    69   144   145    1
    70   130   132   ar
    71    90    91    1
    72   148   145    1
    73   148   149    1
    74   129   131   ar
    75   150   149   ar
    76   150   152   ar
    77   145   146    1
    78    91    92    1
    79    94    92   am
    80   149   151   ar
    81   132   131   ar
    82    39    37    1
    83   152   153   ar
    84    92    93    2
    85    36    37    2
    86    36    35    1
    87    37    38    1
    88    35    34    1
    89   151   153   ar
    90   146   154   am
    91   146   147    2
    92   154   155    1
    93    62    61    1
    94   157   156    2
    95   160   159    2
    96    34    33    1
    97    60    61    1
    98    60    57    1
    99    61    63    1
   100   155   156    1
   101   155   158    1
   102    33    30    1
   103   159   161   am
   104   159   158    1
   105    59    58    2
   106    17    18    1
   107    17    16    1
   108    58    57    1
   109    57    56    1
   110    18    12    1
   111     4     3    2
   112    16    13    1
   113    32    31    2
   114    30    31    1
   115    30    29    1
   116     2     3    1
   117     2     1    1
   118     2     5    1
   119    56    48   am
   120    28    27   ar
   121    28    26   ar
   122    29    21   am
   123    27    25   ar
   124     5     6    1
   125    12    13    1
   126    13    14    1
   127    48    49    2
   128    48    47    1
   129    26    24   ar
   130    25    24   ar
   131    43    42    2
   132    14    15    2
   133    14    19   am
   134    21    22    2
   135    21    20    1
   136    47    50    1
   137    47    46    1
   138    19    20    1
   139    24    23    1
   140     6     7    1
   141    50    51    1
   142    20    23    1
   143     7     8    1
   144    42    46   am
   145    42    41    1
   146    53    51   ar
   147    53    55   ar
   148    51    52   ar
   149    55    54   ar
   150    41    44    1
   151    41    40    1
   152    52    54   ar
   153     8     9    2
   154    44    45    1
   155    10     9    1
   156     9    11    1
