@<TRIPOS>MOLECULE
tmp/3zhsA01.pdb
 91 86 0 0 0
SMALL
GASTEIGER

@<TRIPOS>ATOM
      1  N         -0.5950  -13.5610  -35.0240 N.3   491  GLN491     -0.1231
      2  CA        -0.3220  -14.3920  -36.1820 C.3   491  GLN491      0.1698
      3  C         -0.2850  -15.8870  -35.8070 C.2   491  GLN491      0.2592
      4  O          0.5170  -16.3220  -34.9640 O.2   491  GLN491     -0.2718
      5  CB         0.9680  -13.9420  -36.8640 C.3   491  GLN491      0.0381
      6  CG         0.7240  -12.7020  -37.7160 C.3   491  GLN491      0.0905
      7  CD         1.9960  -11.9240  -37.9270 C.2   491  GLN491      0.2608
      8  OE1        3.1040  -12.4570  -37.8540 O.2   491  GLN491     -0.2717
      9  NE2        1.8630  -10.6400  -38.2030 N.am  491  GLN491     -0.0878
     10  N         -1.2690  -16.6360  -36.3580 N.am  492  ASP492     -0.1974
     11  CA        -1.4910  -18.0720  -36.1420 C.3   492  ASP492      0.1709
     12  C         -1.7200  -18.4150  -34.6580 C.2   492  ASP492      0.2293
     13  O         -1.4340  -19.5240  -34.2450 O.2   492  ASP492     -0.2864
     14  CB        -0.2920  -18.8740  -36.6960 C.3   492  ASP492      0.1436
     15  CG        -0.0400  -18.4940  -38.1330 C.2   492  ASP492      0.3671
     16  OD1       -0.8580  -18.8980  -39.0040 O.co2 492  ASP492     -0.2456
     17  OD2        0.8980  -17.6840  -38.3800 O.co2 492  ASP492     -0.2456
     18  N          2.0920  -20.5290  -32.8770 N.3   497  THR497     -0.1218
     19  CA         3.2390  -20.5460  -33.7930 C.3   497  THR497      0.1862
     20  C          4.0820  -21.8120  -33.5770 C.2   497  THR497      0.2287
     21  O          4.5790  -22.3910  -34.5480 O.2   497  THR497     -0.2866
     22  CB         4.0690  -19.2640  -33.5750 C.3   497  THR497      0.1770
     23  OG1        3.2620  -18.1470  -33.9650 O.3   497  THR497     -0.2211
     24  CG2        5.4290  -19.2700  -34.3400 C.3   497  THR497      0.0375
     25  N         -1.5810  -10.5230  -41.5020 N.3   540  LEU540     -0.1245
     26  CA        -0.1260  -10.4540  -41.3850 C.3   540  LEU540      0.1561
     27  C          0.2830   -8.9920  -41.3010 C.2   540  LEU540      0.2260
     28  O          0.8930   -8.4240  -42.2080 O.2   540  LEU540     -0.2867
     29  CB         0.5540  -11.1910  -42.5520 C.3   540  LEU540      0.0270
     30  CG         1.9110  -11.8480  -42.2600 C.3   540  LEU540      0.0019
     31  CD1        2.2790  -12.8140  -43.3380 C.3   540  LEU540      0.0001
     32  CD2        3.0670  -10.8190  -42.0040 C.3   540  LEU540      0.0001
     33  N          1.4850   -5.9460  -38.0700 N.3   542  GLU542     -0.1245
     34  CA         1.9230   -5.6700  -36.6940 C.3   542  GLU542      0.1567
     35  C          1.3840   -4.3090  -36.2590 C.2   542  GLU542      0.2260
     36  O          0.7150   -4.2100  -35.2280 O.2   542  GLU542     -0.2867
     37  CB         3.4600   -5.7150  -36.5650 C.3   542  GLU542      0.0388
     38  CG         4.0070   -7.1360  -36.6020 C.3   542  GLU542      0.1160
     39  CD         4.1960   -7.7550  -37.9750 C.2   542  GLU542      0.3649
     40  OE1        4.4290   -7.0160  -38.9640 O.co2 542  GLU542     -0.2457
     41  OE2        4.1100   -9.0000  -38.0520 O.co2 542  GLU542     -0.2457
     42  N          4.3340  -13.1020  -33.6760 N.3   566  GLN566     -0.1231
     43  CA         4.7640  -14.4330  -34.1430 C.3   566  GLN566      0.1698
     44  C          6.0530  -14.7780  -33.4190 C.2   566  GLN566      0.2592
     45  O          6.1900  -15.8600  -32.8390 O.2   566  GLN566     -0.2718
     46  CB         4.9480  -14.4960  -35.6720 C.3   566  GLN566      0.0381
     47  CG         5.3070  -15.9050  -36.1610 C.3   566  GLN566      0.0905
     48  CD         4.2440  -16.4370  -37.0730 C.2   566  GLN566      0.2608
     49  OE1        4.3320  -16.2910  -38.2860 O.2   566  GLN566     -0.2717
     50  NE2        3.1910  -17.0170  -36.5170 N.am  566  GLN566     -0.0878
     51  N          6.9710  -13.8120  -33.4370 N.am  567  PHE567     -0.1976
     52  CA         8.2560  -13.7860  -32.7510 C.3   567  PHE567      0.1639
     53  C          8.3760  -12.3450  -32.2660 C.2   567  PHE567      0.2290
     54  O          7.9460  -11.4590  -32.9950 O.2   567  PHE567     -0.2864
     55  CB         9.4190  -14.2070  -33.6940 C.3   567  PHE567      0.0560
     56  CG         9.5470  -15.7010  -33.9800 C.ar  567  PHE567     -0.0200
     57  CD1        8.7440  -16.3150  -34.9360 C.ar  567  PHE567     -0.0042
     58  CD2       10.4810  -16.4790  -33.3050 C.ar  567  PHE567     -0.0042
     59  CE1        8.8590  -17.6900  -35.1940 C.ar  567  PHE567     -0.0003
     60  CE2       10.6070  -17.8530  -33.5740 C.ar  567  PHE567     -0.0003
     61  CZ         9.8000  -18.4450  -34.5200 C.ar  567  PHE567     -0.0000
     62  N          9.3520   -9.1840  -34.6080 N.3   570  PHE570     -0.1241
     63  CA         8.5060   -8.4840  -35.5930 C.3   570  PHE570      0.1605
     64  C          7.6720   -7.3330  -34.9650 C.2   570  PHE570      0.2264
     65  O          7.0710   -6.5660  -35.7070 O.2   570  PHE570     -0.2867
     66  CB         7.5970   -9.4870  -36.3470 C.3   570  PHE570      0.0534
     67  CG         8.4070  -10.5920  -36.9960 C.ar  570  PHE570     -0.0203
     68  CD1        9.3110  -10.3060  -38.0160 C.ar  570  PHE570     -0.0042
     69  CD2        8.3240  -11.9020  -36.5340 C.ar  570  PHE570     -0.0042
     70  CE1       10.1280  -11.3090  -38.5550 C.ar  570  PHE570     -0.0003
     71  CE2        9.0920  -12.9180  -37.1160 C.ar  570  PHE570     -0.0003
     72  CZ        10.0060  -12.6120  -38.1100 C.ar  570  PHE570     -0.0000
     73  N         18.2230  -19.3840  -34.1750 N.3   606  GLN606     -0.1245
     74  CA        17.3100  -19.1230  -35.3010 C.3   606  GLN606      0.1566
     75  C         17.5370  -17.7590  -36.0240 C.2   606  GLN606      0.2260
     76  O         16.7660  -17.4000  -36.9130 O.2   606  GLN606     -0.2867
     77  CB        15.8630  -19.2270  -34.8410 C.3   606  GLN606      0.0367
     78  CG        15.2410  -20.5930  -35.0530 C.3   606  GLN606      0.0905
     79  CD        13.7390  -20.4650  -34.9800 C.2   606  GLN606      0.2608
     80  OE1       13.1500  -20.4290  -33.9050 O.2   606  GLN606     -0.2717
     81  NE2       13.0880  -20.3390  -36.1280 N.am  606  GLN606     -0.0878
     82  N         14.5450  -14.0240  -35.2810 N.3   610  HIS610     -0.1241
     83  CA        13.8040  -15.0800  -34.5730 C.3   610  HIS610      0.1621
     84  C         14.4780  -15.3370  -33.2240 C.2   610  HIS610      0.2264
     85  O         14.6130  -16.4890  -32.8230 O.2   610  HIS610     -0.2867
     86  CB        13.7280  -16.3900  -35.4240 C.3   610  HIS610      0.0745
     87  CG        12.9560  -16.2050  -36.6910 C.ar  610  HIS610      0.0817
     88  ND1       13.5880  -15.8890  -37.8670 N.ar  610  HIS610     -0.2268
     89  CD2       11.6190  -16.2450  -36.9010 C.ar  610  HIS610      0.1154
     90  CE1       12.6330  -15.8010  -38.7750 C.ar  610  HIS610      0.1986
     91  NE2       11.4290  -16.0160  -38.2400 N.ar  610  HIS610     -0.2212
@<TRIPOS>BOND
     1    31    30    1
     2    29    30    1
     3    29    26    1
     4    30    32    1
     5    28    27    2
     6    25    26    1
     7    26    27    1
     8    16    15   ar
     9    40    39   ar
    10    90    91   ar
    11    90    88   ar
    12    70    72   ar
    13    70    68   ar
    14    17    15   ar
    15    49    48    2
    16    91    89   ar
    17     9     7   am
    18    15    14    1
    19    72    71   ar
    20    33    34    1
    21    41    39   ar
    22    68    67   ar
    23    39    38    1
    24     7     8    2
    25     7     6    1
    26    88    87   ar
    27     6     5    1
    28    71    69   ar
    29    48    50   am
    30    48    47    1
    31    67    69   ar
    32    67    66    1
    33    76    75    2
    34    89    87   ar
    35     5     2    1
    36    14    11    1
    37    34    37    1
    38    34    35    1
    39    87    86    1
    40    38    37    1
    41    10    11    1
    42    10     3   am
    43    66    63    1
    44    35    36    2
    45     2     3    1
    46     2     1    1
    47    47    46    1
    48    11    12    1
    49    81    79   am
    50    75    74    1
    51     3     4    2
    52    65    64    2
    53    46    43    1
    54    63    64    1
    55    63    62    1
    56    86    83    1
    57    74    77    1
    58    74    73    1
    59    82    83    1
    60    59    57   ar
    61    59    61   ar
    62    78    79    1
    63    78    77    1
    64    79    80    2
    65    57    56   ar
    66    12    13    2
    67    83    84    1
    68    21    20    2
    69    61    60   ar
    70    24    22    1
    71    43    42    1
    72    43    44    1
    73    56    55    1
    74    56    58   ar
    75    23    22    1
    76    19    20    1
    77    19    22    1
    78    19    18    1
    79    55    52    1
    80    60    58   ar
    81    51    44   am
    82    51    52    1
    83    44    45    2
    84    84    85    2
    85    54    53    2
    86    52    53    1
