@<TRIPOS>MOLECULE
tmp/3zhtA01.pdb
 91 86 0 0 0
SMALL
GASTEIGER

@<TRIPOS>ATOM
      1  N         -0.3080  -13.5490  -34.9390 N.3   488  GLN488     -0.1231
      2  CA        -0.0720  -14.4030  -36.0950 C.3   488  GLN488      0.1698
      3  C         -0.0470  -15.9000  -35.6980 C.2   488  GLN488      0.2592
      4  O          0.7920  -16.3350  -34.8960 O.2   488  GLN488     -0.2718
      5  CB         1.1970  -13.9770  -36.8350 C.3   488  GLN488      0.0381
      6  CG         0.9740  -12.6960  -37.6420 C.3   488  GLN488      0.0905
      7  CD         2.2380  -11.9040  -37.8070 C.2   488  GLN488      0.2608
      8  OE1        3.3520  -12.4380  -37.7610 O.2   488  GLN488     -0.2717
      9  NE2        2.0960  -10.6050  -37.9760 N.am  488  GLN488     -0.0878
     10  N         -1.0270  -16.6610  -36.2380 N.am  489  ASP489     -0.1974
     11  CA        -1.2080  -18.1220  -36.0470 C.3   489  ASP489      0.1709
     12  C         -1.4170  -18.4820  -34.5770 C.2   489  ASP489      0.2293
     13  O         -1.0640  -19.5780  -34.1660 O.2   489  ASP489     -0.2864
     14  CB        -0.0110  -18.9030  -36.6350 C.3   489  ASP489      0.1436
     15  CG         0.2540  -18.5230  -38.0850 C.2   489  ASP489      0.3671
     16  OD1       -0.5540  -18.9300  -38.9680 O.co2 489  ASP489     -0.2456
     17  OD2        1.2040  -17.7380  -38.3270 O.co2 489  ASP489     -0.2456
     18  N          2.4150  -20.6280  -32.8410 N.3   494  THR494     -0.1218
     19  CA         3.5760  -20.6360  -33.7320 C.3   494  THR494      0.1862
     20  C          4.4080  -21.9030  -33.5180 C.2   494  THR494      0.2287
     21  O          4.9270  -22.4580  -34.4880 O.2   494  THR494     -0.2866
     22  CB         4.3980  -19.3610  -33.4600 C.3   494  THR494      0.1770
     23  OG1        3.5980  -18.2450  -33.8520 O.3   494  THR494     -0.2211
     24  CG2        5.7640  -19.3340  -34.1810 C.3   494  THR494      0.0375
     25  N         -1.2880  -10.5390  -41.4170 N.3   537  LEU537     -0.1245
     26  CA         0.1640  -10.4030  -41.3020 C.3   537  LEU537      0.1561
     27  C          0.5080   -8.8980  -41.1170 C.2   537  LEU537      0.2260
     28  O          1.0580   -8.2450  -42.0070 O.2   537  LEU537     -0.2867
     29  CB         0.8790  -10.9920  -42.5250 C.3   537  LEU537      0.0270
     30  CG         2.2460  -11.6280  -42.2530 C.3   537  LEU537      0.0019
     31  CD1        2.6000  -12.6230  -43.3400 C.3   537  LEU537      0.0001
     32  CD2        3.3540  -10.5900  -42.1190 C.3   537  LEU537      0.0001
     33  N          1.7030   -5.9330  -37.8890 N.3   539  GLU539     -0.1245
     34  CA         2.1320   -5.6800  -36.5300 C.3   539  GLU539      0.1567
     35  C          1.5860   -4.3460  -36.0990 C.2   539  GLU539      0.2260
     36  O          0.9170   -4.2750  -35.0800 O.2   539  GLU539     -0.2867
     37  CB         3.6610   -5.7510  -36.3640 C.3   539  GLU539      0.0388
     38  CG         4.1750   -7.1840  -36.3550 C.3   539  GLU539      0.1160
     39  CD         4.4300   -7.7900  -37.7250 C.2   539  GLU539      0.3649
     40  OE1        4.6270   -7.0350  -38.7060 O.co2 539  GLU539     -0.2457
     41  OE2        4.4270   -9.0350  -37.8120 O.co2 539  GLU539     -0.2457
     42  N          4.5920  -13.2020  -33.5210 N.3   563  GLN563     -0.1231
     43  CA         5.0210  -14.5290  -34.0010 C.3   563  GLN563      0.1698
     44  C          6.3410  -14.8990  -33.2870 C.2   563  GLN563      0.2592
     45  O          6.4750  -15.9980  -32.7150 O.2   563  GLN563     -0.2718
     46  CB         5.1920  -14.5330  -35.5350 C.3   563  GLN563      0.0381
     47  CG         5.5400  -15.9160  -36.0760 C.3   563  GLN563      0.0905
     48  CD         4.4380  -16.4590  -36.9500 C.2   563  GLN563      0.2608
     49  OE1        4.4880  -16.3550  -38.1810 O.2   563  GLN563     -0.2717
     50  NE2        3.4220  -17.0470  -36.3420 N.am  563  GLN563     -0.0878
     51  N          7.2690  -13.9190  -33.2940 N.am  564  PHE564     -0.1976
     52  CA         8.5510  -13.8580  -32.6060 C.3   564  PHE564      0.1639
     53  C          8.6450  -12.4270  -32.1250 C.2   564  PHE564      0.2290
     54  O          8.1960  -11.5480  -32.8600 O.2   564  PHE564     -0.2864
     55  CB         9.7210  -14.2470  -33.5480 C.3   564  PHE564      0.0560
     56  CG         9.8710  -15.7390  -33.8030 C.ar  564  PHE564     -0.0200
     57  CD1        9.1110  -16.3770  -34.7830 C.ar  564  PHE564     -0.0042
     58  CD2       10.7960  -16.4960  -33.0880 C.ar  564  PHE564     -0.0042
     59  CE1        9.2370  -17.7580  -35.0040 C.ar  564  PHE564     -0.0003
     60  CE2       10.9360  -17.8820  -33.3190 C.ar  564  PHE564     -0.0003
     61  CZ        10.1560  -18.5060  -34.2720 C.ar  564  PHE564     -0.0000
     62  N          9.6140   -9.1220  -34.4190 N.3   567  PHE567     -0.1241
     63  CA         8.7580   -8.4380  -35.3880 C.3   567  PHE567      0.1605
     64  C          7.9230   -7.3200  -34.7790 C.2   567  PHE567      0.2264
     65  O          7.2990   -6.5700  -35.5340 O.2   567  PHE567     -0.2867
     66  CB         7.8470   -9.4570  -36.0970 C.3   567  PHE567      0.0534
     67  CG         8.6660  -10.5210  -36.7820 C.ar  567  PHE567     -0.0203
     68  CD1        9.5710  -10.1860  -37.7840 C.ar  567  PHE567     -0.0042
     69  CD2        8.5710  -11.8520  -36.3930 C.ar  567  PHE567     -0.0042
     70  CE1       10.3820  -11.1600  -38.3640 C.ar  567  PHE567     -0.0003
     71  CE2        9.3580  -12.8290  -36.9970 C.ar  567  PHE567     -0.0003
     72  CZ        10.2570  -12.4780  -37.9790 C.ar  567  PHE567     -0.0000
     73  N         18.5440  -19.3540  -33.9790 N.3   603  GLN603     -0.1245
     74  CA        17.6790  -19.1680  -35.1480 C.3   603  GLN603      0.1566
     75  C         17.8890  -17.8260  -35.8660 C.2   603  GLN603      0.2260
     76  O         17.1260  -17.4890  -36.7790 O.2   603  GLN603     -0.2867
     77  CB        16.2050  -19.3190  -34.7790 C.3   603  GLN603      0.0367
     78  CG        15.7330  -20.7350  -34.6120 C.3   603  GLN603      0.0905
     79  CD        14.2390  -20.7660  -34.5800 C.2   603  GLN603      0.2608
     80  OE1       13.5840  -20.0580  -33.8210 O.2   603  GLN603     -0.2717
     81  NE2       13.6820  -21.7260  -35.2740 N.am  603  GLN603     -0.0878
     82  N         14.9080  -14.0710  -35.1150 N.3   607  HIS607     -0.1241
     83  CA        14.1570  -15.1160  -34.4300 C.3   607  HIS607      0.1621
     84  C         14.7890  -15.3500  -33.0510 C.2   607  HIS607      0.2264
     85  O         14.8870  -16.4920  -32.6030 O.2   607  HIS607     -0.2867
     86  CB        14.1340  -16.4060  -35.2820 C.3   607  HIS607      0.0745
     87  CG        13.3250  -16.2480  -36.5260 C.ar  607  HIS607      0.0817
     88  ND1       13.8970  -15.8000  -37.6910 N.ar  607  HIS607     -0.2268
     89  CD2       11.9980  -16.3880  -36.7110 C.ar  607  HIS607      0.1154
     90  CE1       12.9160  -15.7250  -38.5680 C.ar  607  HIS607      0.1986
     91  NE2       11.7480  -16.0550  -38.0190 N.ar  607  HIS607     -0.2212
@<TRIPOS>BOND
     1    31    30    1
     2    29    30    1
     3    29    26    1
     4    30    32    1
     5    28    27    2
     6    25    26    1
     7    26    27    1
     8    16    15   ar
     9    40    39   ar
    10    90    91   ar
    11    90    88   ar
    12    70    72   ar
    13    70    68   ar
    14    17    15   ar
    15    49    48    2
    16    15    14    1
    17    91    89   ar
    18    72    71   ar
    19     9     7   am
    20    33    34    1
    21    41    39   ar
    22     7     8    2
    23     7     6    1
    24    68    67   ar
    25    39    38    1
    26    88    87   ar
    27     6     5    1
    28    71    69   ar
    29    48    50   am
    30    48    47    1
    31     5     2    1
    32    67    69   ar
    33    67    66    1
    34    76    75    2
    35    89    87   ar
    36    14    11    1
    37    34    37    1
    38    34    35    1
    39    87    86    1
    40    37    38    1
    41    10    11    1
    42    10     3   am
    43    35    36    2
    44    66    63    1
    45     2     3    1
    46     2     1    1
    47    47    46    1
    48    11    12    1
    49    75    74    1
    50     3     4    2
    51    46    43    1
    52    65    64    2
    53    63    64    1
    54    63    62    1
    55    86    83    1
    56    81    79   am
    57    74    77    1
    58    74    73    1
    59    82    83    1
    60    59    57   ar
    61    59    61   ar
    62    57    56   ar
    63    77    78    1
    64    78    79    1
    65    79    80    2
    66    12    13    2
    67    21    20    2
    68    83    84    1
    69    61    60   ar
    70    24    22    1
    71    43    42    1
    72    43    44    1
    73    23    22    1
    74    56    55    1
    75    56    58   ar
    76    19    20    1
    77    19    22    1
    78    19    18    1
    79    55    52    1
    80    60    58   ar
    81    51    44   am
    82    51    52    1
    83    44    45    2
    84    84    85    2
    85    54    53    2
    86    52    53    1
