@<TRIPOS>MOLECULE
tmp/3zhtA00.pdb
 161 156 0 0 0
SMALL
GASTEIGER

@<TRIPOS>ATOM
      1  N         -1.5210   26.6810  -37.2360 N.3   121  ARG121     -0.1245
      2  CA        -1.3950   25.2460  -37.6170 C.3   121  ARG121      0.1563
      3  C         -2.6670   24.4070  -37.3220 C.2   121  ARG121      0.2260
      4  O         -2.8070   23.2950  -37.8380 O.2   121  ARG121     -0.2867
      5  CB        -0.1410   24.5800  -36.9980 C.3   121  ARG121      0.0307
      6  CG        -0.2330   24.0310  -35.5740 C.3   121  ARG121      0.0489
      7  CD         1.1130   23.4500  -35.1250 C.3   121  ARG121      0.2205
      8  NE         1.2190   23.4160  -33.6620 N.pl3 121  ARG121     -0.0865
      9  CZ         1.9280   22.5330  -32.9600 C.cat 121  ARG121      0.5346
     10  NH1        2.6340   21.5900  -33.5790 N.pl3 121  ARG121      0.1354
     11  NH2        1.9350   22.5840  -31.6340 N.pl3 121  ARG121      0.1354
     12  N         -6.7280   13.9110  -37.0530 N.3   154  PRO154     -0.2102
     13  CA        -5.4990   14.6680  -36.7120 C.3   154  PRO154      0.1504
     14  C         -5.8580   15.9890  -35.9760 C.2   154  PRO154      0.2576
     15  O         -6.9910   16.1640  -35.5430 O.2   154  PRO154     -0.2718
     16  CB        -4.8350   14.9150  -38.0650 C.3   154  PRO154      0.0282
     17  CG        -5.8470   14.5140  -39.1190 C.3   154  PRO154      0.0208
     18  CD        -7.1270   14.1380  -38.4520 C.3   154  PRO154      0.0893
     19  N         -4.9250   16.9350  -35.8450 N.am  155  HIS155     -0.1962
     20  CA        -5.1600   18.1450  -35.0490 C.3   155  HIS155      0.1787
     21  C         -5.9600   19.2720  -35.7360 C.2   155  HIS155      0.2620
     22  O         -6.5340   20.0800  -35.0180 O.2   155  HIS155     -0.2715
     23  CB        -3.8330   18.7100  -34.5350 C.3   155  HIS155      0.0785
     24  CG        -2.8730   19.1070  -35.6120 C.ar  155  HIS155      0.0821
     25  ND1       -1.7420   18.3500  -35.8830 N.ar  155  HIS155     -0.2267
     26  CD2       -2.9000   20.1680  -36.4530 C.ar  155  HIS155      0.1154
     27  CE1       -1.1200   18.9720  -36.8710 C.ar  155  HIS155      0.1986
     28  NE2       -1.7910   20.0590  -37.2660 N.ar  155  HIS155     -0.2212
     29  N         -5.9780   19.3520  -37.0870 N.am  156  ARG156     -0.1977
     30  CA        -6.6410   20.4080  -37.8500 C.3   156  ARG156      0.1597
     31  C         -8.1950   20.4290  -37.6280 C.2   156  ARG156      0.2287
     32  O         -8.9140   19.5160  -38.0370 O.2   156  ARG156     -0.2864
     33  CB        -6.2950   20.3070  -39.3580 C.3   156  ARG156      0.0334
     34  CG        -6.7250   21.5510  -40.1600 C.3   156  ARG156      0.0492
     35  CD        -6.2470   21.5570  -41.6150 C.3   156  ARG156      0.2205
     36  NE        -4.7890   21.4280  -41.7260 N.pl3 156  ARG156     -0.0865
     37  CZ        -3.9280   22.4290  -41.5640 C.cat 156  ARG156      0.5346
     38  NH1       -4.3650   23.6530  -41.2780 N.pl3 156  ARG156      0.1354
     39  NH2       -2.6220   22.2140  -41.6740 N.pl3 156  ARG156      0.1354
     40  N          0.9600   13.0590  -32.3940 N.3   208  SER208     -0.1202
     41  CA         1.0550   13.8770  -33.6050 C.3   208  SER208      0.2020
     42  C          1.2460   12.9900  -34.8450 C.2   208  SER208      0.2619
     43  O          0.9560   13.4390  -35.9490 O.2   208  SER208     -0.2717
     44  CB         2.2140   14.8550  -33.5110 C.3   208  SER208      0.2103
     45  OG         2.0200   15.7900  -32.4730 O.3   208  SER208     -0.2182
     46  N          1.7490   11.7330  -34.6460 N.am  209  HIS209     -0.1961
     47  CA         1.9900   10.7390  -35.7030 C.3   209  HIS209      0.1787
     48  C          0.7170   10.4900  -36.4380 C.2   209  HIS209      0.2620
     49  O         -0.1560    9.7930  -35.9460 O.2   209  HIS209     -0.2715
     50  CB         2.5490    9.4230  -35.1230 C.3   209  HIS209      0.0785
     51  CG         3.9180    9.5760  -34.5580 C.ar  209  HIS209      0.0821
     52  ND1        4.1890   10.4960  -33.5710 N.ar  209  HIS209     -0.2267
     53  CD2        5.0470    8.8940  -34.8450 C.ar  209  HIS209      0.1154
     54  CE1        5.4750   10.3720  -33.3030 C.ar  209  HIS209      0.1986
     55  NE2        6.0300    9.4070  -34.0320 N.ar  209  HIS209     -0.2212
     56  N          0.5880   11.1360  -37.5860 N.am  210  LEU210     -0.1977
     57  CA        -0.6100   11.0870  -38.4040 C.3   210  LEU210      0.1596
     58  C         -0.9530    9.6520  -38.7970 C.2   210  LEU210      0.2287
     59  O         -0.0710    8.8650  -39.1480 O.2   210  LEU210     -0.2864
     60  CB        -0.4400   11.9760  -39.6640 C.3   210  LEU210      0.0297
     61  CG        -0.2170   13.4750  -39.3720 C.3   210  LEU210      0.0022
     62  CD1        0.3590   14.2220  -40.5590 C.3   210  LEU210      0.0001
     63  CD2       -1.4670   14.1230  -38.8430 C.3   210  LEU210      0.0001
     64  N         -5.9270   13.6400  -43.4330 N.3   248  GLY248     -0.1210
     65  CA        -5.3660   14.6910  -44.2760 C.3   248  GLY248      0.1956
     66  C         -5.0070   14.0070  -45.5780 C.2   248  GLY248      0.2612
     67  O         -4.7920   12.7830  -45.5890 O.2   248  GLY248     -0.2717
     68  N         -4.9860   14.7480  -46.6840 N.am  249  ASP249     -0.1959
     69  CA        -4.7180   14.1620  -47.9910 C.3   249  ASP249      0.1840
     70  C         -3.3010   13.5840  -48.1060 C.2   249  ASP249      0.2622
     71  O         -3.1710   12.5020  -48.6970 O.2   249  ASP249     -0.2715
     72  CB        -4.9900   15.1560  -49.1340 C.3   249  ASP249      0.1450
     73  CG        -4.2320   16.4750  -49.0680 C.2   249  ASP249      0.3671
     74  OD1       -4.3920   17.2060  -48.0620 O.co2 249  ASP249     -0.2456
     75  OD2       -3.4760   16.7770  -50.0210 O.co2 249  ASP249     -0.2456
     76  N         -2.2480   14.2870  -47.5930 N.am  250  ALA250     -0.1963
     77  CA        -0.8920   13.7640  -47.7740 C.3   250  ALA250      0.1728
     78  C         -0.6710   12.4980  -46.9340 C.2   250  ALA250      0.2616
     79  O         -0.1570   11.5150  -47.4570 O.2   250  ALA250     -0.2715
     80  CB         0.1810   14.8360  -47.4850 C.3   250  ALA250      0.0334
     81  N         -1.1720   12.4940  -45.6850 N.am  251  ALA251     -0.1977
     82  CA        -1.0190   11.3810  -44.7340 C.3   251  ALA251      0.1597
     83  C         -1.7850   10.1150  -45.1780 C.2   251  ALA251      0.2287
     84  O         -1.2660    9.0020  -45.0520 O.2   251  ALA251     -0.2864
     85  CB        -1.5010   11.8210  -43.3610 C.3   251  ALA251      0.0319
     86  N          1.0130    7.0080  -45.5140 N.3   255  GLN255     -0.1245
     87  CA         1.1940    6.1710  -44.3340 C.3   255  GLN255      0.1566
     88  C          0.6870    4.7620  -44.5730 C.2   255  GLN255      0.2260
     89  O         -0.4940    4.5760  -44.8550 O.2   255  GLN255     -0.2867
     90  CB         0.4810    6.8160  -43.1160 C.3   255  GLN255      0.0367
     91  CG         1.1700    8.0910  -42.5890 C.3   255  GLN255      0.0905
     92  CD         2.5420    7.7740  -42.0190 C.2   255  GLN255      0.2608
     93  OE1        2.6760    6.9870  -41.0840 O.2   255  GLN255     -0.2717
     94  NE2        3.6000    8.3250  -42.5970 N.am  255  GLN255     -0.0878
     95  N         -9.8550   15.3950  -45.3720 N.3   280  VAL280     -0.1245
     96  CA        -9.8930   16.8430  -45.5100 C.3   280  VAL280      0.1561
     97  C         -8.8020   17.1460  -46.5310 C.2   280  VAL280      0.2260
     98  O         -7.6310   17.3600  -46.1800 O.2   280  VAL280     -0.2867
     99  CB        -9.7340   17.5850  -44.1630 C.3   280  VAL280      0.0252
    100  CG1       -9.8450   19.0970  -44.3650 C.3   280  VAL280      0.0019
    101  CG2      -10.7570   17.0950  -43.1470 C.3   280  VAL280      0.0019
    102  N         -7.1450   19.2920  -48.6580 N.3   282  ASN282     -0.1240
    103  CA        -6.8620   20.6990  -48.9120 C.3   282  ASN282      0.1653
    104  C         -5.7470   20.8550  -49.9700 C.2   282  ASN282      0.2266
    105  O         -5.1840   21.9420  -50.1490 O.2   282  ASN282     -0.2867
    106  CB        -6.5430   21.4370  -47.6080 C.3   282  ASN282      0.1155
    107  CG        -5.4450   20.8260  -46.7890 C.2   282  ASN282      0.2627
    108  OD1       -4.6240   20.0700  -47.2930 O.2   282  ASN282     -0.2716
    109  ND2       -5.3740   21.2050  -45.5160 N.am  282  ASN282     -0.0877
    110  N         -2.7080   19.8670  -50.3830 N.3   284  ILE284     -0.1231
    111  CA        -1.3740   20.2700  -49.9270 C.3   284  ILE284      0.1692
    112  C         -1.0230   19.5240  -48.6600 C.2   284  ILE284      0.2593
    113  O         -1.9170   19.1370  -47.8800 O.2   284  ILE284     -0.2718
    114  CB        -1.2820   21.8320  -49.7410 C.3   284  ILE284      0.0266
    115  CG1        0.1870   22.3210  -49.7160 C.3   284  ILE284      0.0019
    116  CG2       -2.1460   22.3680  -48.5590 C.3   284  ILE284      0.0020
    117  CD1        0.3630   23.7800  -49.9990 C.3   284  ILE284      0.0001
    118  N          0.2690   19.3560  -48.4620 N.am  285  GLY285     -0.1942
    119  CA         0.8540   18.7100  -47.2890 C.3   285  GLY285      0.2014
    120  C          2.0340   19.5400  -46.8470 C.2   285  GLY285      0.2638
    121  O          3.1480   19.3390  -47.3390 O.2   285  GLY285     -0.2714
    122  N          1.7670   20.5380  -45.9820 N.am  286  PHE286     -0.1973
    123  CA         2.7040   21.5320  -45.4800 C.3   286  PHE286      0.1639
    124  C          3.1570   22.3880  -46.7050 C.2   286  PHE286      0.2290
    125  O          2.4270   23.2790  -47.1100 O.2   286  PHE286     -0.2864
    126  CB         3.8660   20.8730  -44.6740 C.3   286  PHE286      0.0560
    127  CG         4.7210   21.7770  -43.8170 C.ar  286  PHE286     -0.0200
    128  CD1        4.8340   23.1370  -44.1020 C.ar  286  PHE286     -0.0042
    129  CD2        5.4280   21.2690  -42.7360 C.ar  286  PHE286     -0.0042
    130  CE1        5.6420   23.9710  -43.3300 C.ar  286  PHE286     -0.0003
    131  CE2        6.2380   22.1050  -41.9590 C.ar  286  PHE286     -0.0003
    132  CZ         6.3260   23.4530  -42.2510 C.ar  286  PHE286     -0.0000
    133  N         -6.4590   25.1810  -47.8470 N.3   347  ARG347     -0.1245
    134  CA        -5.9110   25.6530  -46.6050 C.3   347  ARG347      0.1563
    135  C         -5.7110   27.1280  -46.8380 C.2   347  ARG347      0.2260
    136  O         -4.8660   27.5070  -47.6360 O.2   347  ARG347     -0.2867
    137  CB        -4.6120   24.8710  -46.2960 C.3   347  ARG347      0.0307
    138  CG        -4.1330   24.9510  -44.8610 C.3   347  ARG347      0.0489
    139  CD        -2.6830   24.5580  -44.8080 C.3   347  ARG347      0.2205
    140  NE        -1.8530   25.5470  -45.5000 N.pl3 347  ARG347     -0.0865
    141  CZ        -0.6670   25.3020  -46.0390 C.cat 347  ARG347      0.5346
    142  NH1       -0.1340   24.0890  -45.9640 N.pl3 347  ARG347      0.1354
    143  NH2        0.0080   26.2750  -46.6400 N.pl3 347  ARG347      0.1354
    144  N          0.6770   26.8710  -43.2760 N.3   351  HIS351     -0.1226
    145  CA         0.6760   25.6700  -42.4490 C.3   351  HIS351      0.1752
    146  C          0.9080   26.0380  -40.9570 C.2   351  HIS351      0.2596
    147  O          0.2030   25.5090  -40.1130 O.2   351  HIS351     -0.2718
    148  CB         1.7490   24.6740  -42.9510 C.3   351  HIS351      0.0759
    149  CG         1.6070   23.2990  -42.3770 C.ar  351  HIS351      0.0818
    150  ND1        0.5660   22.4490  -42.7660 N.ar  351  HIS351     -0.2268
    151  CD2        2.3390   22.6790  -41.4260 C.ar  351  HIS351      0.1154
    152  CE1        0.7390   21.3280  -42.0760 C.ar  351  HIS351      0.1986
    153  NE2        1.7750   21.4230  -41.2430 N.ar  351  HIS351     -0.2212
    154  N          1.8600   26.9670  -40.6550 N.am  352  ASN352     -0.1974
    155  CA         2.1930   27.4420  -39.3010 C.3   352  ASN352      0.1688
    156  C          2.7170   28.9030  -39.3310 C.2   352  ASN352      0.2292
    157  O          2.7970   29.5040  -40.4090 O.2   352  ASN352     -0.2864
    158  CB         3.1860   26.4900  -38.5930 C.3   352  ASN352      0.1181
    159  CG         4.5320   26.2910  -39.2470 C.2   352  ASN352      0.2629
    160  OD1        5.0350   27.1090  -40.0180 O.2   352  ASN352     -0.2716
    161  ND2        5.1890   25.2270  -38.8600 N.am  352  ASN352     -0.0877
@<TRIPOS>BOND
     1   110   111    1
     2   105   104    2
     3    75    73   ar
     4   117   115    1
     5   104   103    1
     6   111   114    1
     7   111   112    1
     8   114   115    1
     9   114   116    1
    10    72    73    1
    11    72    69    1
    12    73    74   ar
    13   103   102    1
    14   103   106    1
    15    71    70    2
    16   112   118   am
    17   112   113    2
    18   118   119    1
    19    70    69    1
    20    70    76   am
    21    69    68    1
    22   133   134    1
    23    77    76    1
    24    77    80    1
    25    77    78    1
    26   136   135    2
    27   106   107    1
    28    79    78    2
    29   121   120    2
    30   108   107    2
    31   119   120    1
    32   125   124    2
    33    78    81   am
    34   120   122   am
    35   135   134    1
    36   107   109   am
    37   124   123    1
    38    68    66   am
    39   143   141    1
    40   134   137    1
    41    97    98    2
    42    97    96    1
    43   137   138    1
    44   141   142    1
    45   141   140    2
    46   122   123    1
    47    81    82    1
    48    67    66    2
    49    66    65    1
    50    86    87    1
    51    96    95    1
    52    96    99    1
    53   140   139    1
    54   123   126    1
    55    83    84    2
    56    83    82    1
    57   138   139    1
    58    89    88    2
    59    82    85    1
    60   126   127    1
    61    88    87    1
    62   100    99    1
    63    87    90    1
    64    65    64    1
    65    99   101    1
    66   128   127   ar
    67   128   130   ar
    68   127   129   ar
    69   130   132   ar
    70   144   145    1
    71    90    91    1
    72   148   145    1
    73   148   149    1
    74   150   149   ar
    75   150   152   ar
    76   129   131   ar
    77    94    92   am
    78    91    92    1
    79   145   146    1
    80   149   151   ar
    81   132   131   ar
    82   152   153   ar
    83    92    93    2
    84    36    35    1
    85    36    37    2
    86    39    37    1
    87    35    34    1
    88    37    38    1
    89   151   153   ar
    90   146   154   am
    91   146   147    2
    92   154   155    1
    93    62    61    1
    94   157   156    2
    95    34    33    1
    96   160   159    2
    97    60    61    1
    98    60    57    1
    99    61    63    1
   100    33    30    1
   101   156   155    1
   102   155   158    1
   103   159   161   am
   104   159   158    1
   105    59    58    2
   106    17    18    1
   107    17    16    1
   108    58    57    1
   109    18    12    1
   110    57    56    1
   111    16    13    1
   112    32    31    2
   113    30    31    1
   114    30    29    1
   115     4     3    2
   116     2     3    1
   117     2     1    1
   118     2     5    1
   119    56    48   am
   120    28    27   ar
   121    28    26   ar
   122    29    21   am
   123    12    13    1
   124     5     6    1
   125    27    25   ar
   126    13    14    1
   127    26    24   ar
   128    48    49    2
   129    48    47    1
   130    14    19   am
   131    14    15    2
   132    43    42    2
   133    25    24   ar
   134    19    20    1
   135    21    20    1
   136    21    22    2
   137    47    50    1
   138    47    46    1
   139    24    23    1
   140     6     7    1
   141     7     8    1
   142    50    51    1
   143    20    23    1
   144    53    51   ar
   145    53    55   ar
   146    42    46   am
   147    42    41    1
   148    51    52   ar
   149    55    54   ar
   150     8     9    2
   151    41    44    1
   152    41    40    1
   153    10     9    1
   154    52    54   ar
   155    44    45    1
   156     9    11    1
