@<TRIPOS>MOLECULE
tmp/3zhuB01.pdb
 197 194 0 0 0
SMALL
GASTEIGER

@<TRIPOS>ATOM
      1  N         -8.5820   24.5260    2.7860 N.3   119  PHE119     -0.1241
      2  CA        -8.7640   23.6190    1.6330 C.3   119  PHE119      0.1605
      3  C        -10.1660   23.7810    1.0880 C.2   119  PHE119      0.2264
      4  O        -10.9640   22.8400    1.0860 O.2   119  PHE119     -0.2867
      5  CB        -8.4360   22.1460    1.9970 C.3   119  PHE119      0.0534
      6  CG        -6.9540   22.0130    2.2720 C.ar  119  PHE119     -0.0203
      7  CD1       -6.0310   22.0220    1.2220 C.ar  119  PHE119     -0.0042
      8  CD2       -6.4750   21.9700    3.5790 C.ar  119  PHE119     -0.0042
      9  CE1       -4.6680   21.9430    1.4710 C.ar  119  PHE119     -0.0003
     10  CE2       -5.1060   21.8980    3.8280 C.ar  119  PHE119     -0.0003
     11  CZ        -4.2120   21.8710    2.7740 C.ar  119  PHE119     -0.0000
     12  N        -11.4060   13.3240    2.4670 N.3   151  PRO151     -0.2102
     13  CA       -10.1350   14.0190    2.6760 C.3   151  PRO151      0.1504
     14  C        -10.4080   15.4860    3.0470 C.2   151  PRO151      0.2576
     15  O        -11.4930   15.8250    3.5370 O.2   151  PRO151     -0.2718
     16  CB        -9.4160   13.8320    1.3410 C.3   151  PRO151      0.0282
     17  CG       -10.4940   13.6740    0.3350 C.3   151  PRO151      0.0208
     18  CD       -11.7780   13.3370    1.0410 C.3   151  PRO151      0.0893
     19  N         -9.4310   16.3580    2.7860 N.am  152  HIS152     -0.1962
     20  CA        -9.4230   17.7760    3.1500 C.3   152  HIS152      0.1787
     21  C        -10.3610   18.6620    2.3070 C.2   152  HIS152      0.2620
     22  O        -10.8160   19.6960    2.8290 O.2   152  HIS152     -0.2715
     23  CB        -7.9720   18.3090    3.0280 C.3   152  HIS152      0.0785
     24  CG        -7.3640   17.9700    1.7040 C.ar  152  HIS152      0.0821
     25  ND1       -6.9370   16.6880    1.4220 N.ar  152  HIS152     -0.2267
     26  CD2       -7.2650   18.7250    0.5760 C.ar  152  HIS152      0.1154
     27  CE1       -6.5550   16.7120    0.1520 C.ar  152  HIS152      0.1986
     28  NE2       -6.7140   17.9230   -0.3900 N.ar  152  HIS152     -0.2212
     29  N        -10.5850   18.3170    1.0020 N.am  153  ARG153     -0.1977
     30  CA       -11.3430   19.1630    0.0720 C.3   153  ARG153      0.1597
     31  C        -12.7860   19.3540    0.5180 C.2   153  ARG153      0.2287
     32  O        -13.5870   18.4120    0.4540 O.2   153  ARG153     -0.2864
     33  CB       -11.2900   18.6210   -1.3750 C.3   153  ARG153      0.0334
     34  CG       -11.7230   19.6260   -2.4870 C.3   153  ARG153      0.0492
     35  CD       -10.9470   20.9270   -2.4600 C.3   153  ARG153      0.2205
     36  NE        -9.5010   20.7290   -2.6330 N.pl3 153  ARG153     -0.0865
     37  CZ        -8.5870   21.6690   -2.4170 C.cat 153  ARG153      0.5346
     38  NH1       -8.9500   22.8670   -1.9850 N.pl3 153  ARG153      0.1354
     39  NH2       -7.2950   21.4070   -2.6060 N.pl3 153  ARG153      0.1354
     40  N         -5.3370   18.7940   13.3190 N.3   185  VAL185     -0.1245
     41  CA        -5.8130   19.9250   12.5200 C.3   185  VAL185      0.1561
     42  C         -7.3320   19.8220   12.2860 C.2   185  VAL185      0.2260
     43  O         -7.8850   18.7180   12.3170 O.2   185  VAL185     -0.2867
     44  CB        -5.0100   20.0820   11.1980 C.3   185  VAL185      0.0252
     45  CG1       -3.5450   20.4180   11.4860 C.3   185  VAL185      0.0019
     46  CG2       -5.1150   18.8380   10.3260 C.3   185  VAL185      0.0019
     47  N         -9.4130   20.1820    9.7160 N.3   187  TYR187     -0.1227
     48  CA        -9.9810   19.4130    8.5990 C.3   187  TYR187      0.1736
     49  C         -9.6620   17.8770    8.7110 C.2   187  TYR187      0.2595
     50  O         -9.6700   17.1750    7.6990 O.2   187  TYR187     -0.2718
     51  CB        -9.5430   19.9830    7.2280 C.3   187  TYR187      0.0548
     52  CG        -8.1280   20.5240    7.2110 C.ar  187  TYR187     -0.0200
     53  CD1       -7.0330   19.6680    7.0780 C.ar  187  TYR187     -0.0009
     54  CD2       -7.8800   21.8890    7.3620 C.ar  187  TYR187     -0.0009
     55  CE1       -5.7290   20.1600    7.0860 C.ar  187  TYR187      0.0417
     56  CE2       -6.5780   22.3880    7.3820 C.ar  187  TYR187      0.0417
     57  CZ        -5.5070   21.5160    7.2530 C.ar  187  TYR187      0.1957
     58  OH        -4.2270   21.9970    7.2300 O.3   187  TYR187     -0.2866
     59  N         -9.4140   17.3700    9.9370 N.am  188  HIS188     -0.1975
     60  CA        -9.1880   15.9440   10.2200 C.3   188  HIS188      0.1656
     61  C        -10.2310   15.4230   11.1770 C.2   188  HIS188      0.2291
     62  O        -10.3140   14.2310   11.4160 O.2   188  HIS188     -0.2864
     63  CB        -7.7960   15.7080   10.8410 C.3   188  HIS188      0.0771
     64  CG        -6.6490   15.6980    9.8750 C.ar  188  HIS188      0.0820
     65  ND1       -5.3750   15.4080   10.2980 N.ar  188  HIS188     -0.2267
     66  CD2       -6.6150   15.9960    8.5480 C.ar  188  HIS188      0.1154
     67  CE1       -4.6110   15.5070    9.2240 C.ar  188  HIS188      0.1986
     68  NE2       -5.3170   15.8480    8.1490 N.ar  188  HIS188     -0.2212
     69  N         -9.5530   11.2670   10.4930 N.3   211  ASN211     -0.1226
     70  CA        -8.5240   10.6890    9.6360 C.3   211  ASN211      0.1770
     71  C         -7.2080   11.4630    9.7030 C.2   211  ASN211      0.2439
     72  O         -7.2280   12.6220   10.0860 O.2   211  ASN211     -0.2733
     73  CB        -9.0050   10.6960    8.1820 C.3   211  ASN211      0.1168
     74  CG        -9.4260   12.0430    7.6630 C.2   211  ASN211      0.2627
     75  OD1      -10.6050   12.2920    7.5420 O.2   211  ASN211     -0.2716
     76  ND2       -8.4930   12.9370    7.3580 N.am  211  ASN211     -0.0877
     77  N         -6.0850   10.8970    9.2270 N.am  212  PRO212     -0.2718
     78  CA        -4.8610   11.6800    9.1070 C.3   212  PRO212      0.1535
     79  C         -4.7830   12.3500    7.7050 C.2   212  PRO212      0.2599
     80  O         -5.7330   12.2730    6.8820 O.2   212  PRO212     -0.2715
     81  CB        -3.7890   10.6040    9.2620 C.3   212  PRO212      0.0310
     82  CG        -4.3860    9.4220    8.6070 C.3   212  PRO212      0.0237
     83  CD        -5.8740    9.5370    8.6900 C.3   212  PRO212      0.0939
     84  N         -3.6350   13.0270    7.4470 N.am  213  SER213     -0.1936
     85  CA        -3.3290   13.7150    6.2030 C.3   213  SER213      0.2055
     86  C         -3.2070   12.6940    5.1020 C.2   213  SER213      0.2643
     87  O         -3.5770   12.9800    3.9620 O.2   213  SER213     -0.2714
     88  CB        -2.0350   14.5130    6.3420 C.3   213  SER213      0.2130
     89  OG        -2.1870   15.6740    7.1490 O.3   213  SER213     -0.2179
     90  N         -2.7100   11.4780    5.4690 N.am  214  HIS214     -0.1959
     91  CA        -2.5320   10.3040    4.6090 C.3   214  HIS214      0.1787
     92  C         -3.8640    9.9970    3.9370 C.2   214  HIS214      0.2620
     93  O         -4.8120    9.4470    4.5280 O.2   214  HIS214     -0.2715
     94  CB        -1.9730    9.0940    5.3880 C.3   214  HIS214      0.0785
     95  CG        -0.6560    9.3700    6.0570 C.ar  214  HIS214      0.0821
     96  ND1       -0.5280   10.3560    7.0370 N.ar  214  HIS214     -0.2267
     97  CD2        0.5420    8.7720    5.8890 C.ar  214  HIS214      0.1154
     98  CE1        0.7480   10.3350    7.4030 C.ar  214  HIS214      0.1986
     99  NE2        1.4220    9.3900    6.7580 N.ar  214  HIS214     -0.2212
    100  N         -3.9320   10.4800    2.7050 N.am  215  LEU215     -0.1977
    101  CA        -5.0600   10.3920    1.8130 C.3   215  LEU215      0.1596
    102  C         -5.3780    8.9610    1.5040 C.2   215  LEU215      0.2287
    103  O         -4.4580    8.1830    1.2010 O.2   215  LEU215     -0.2864
    104  CB        -4.7500   11.1490    0.5170 C.3   215  LEU215      0.0297
    105  CG        -4.4450   12.6490    0.6390 C.3   215  LEU215      0.0022
    106  CD1       -3.8680   13.1610   -0.6550 C.3   215  LEU215      0.0001
    107  CD2       -5.6840   13.4240    0.9870 C.3   215  LEU215      0.0001
    108  N        -10.3010   12.5670   -3.5960 N.3   253  GLY253     -0.1210
    109  CA        -9.7070   13.5360   -4.5090 C.3   253  GLY253      0.1956
    110  C         -9.2650   12.7200   -5.7120 C.2   253  GLY253      0.2612
    111  O         -8.9560   11.5200   -5.5700 O.2   253  GLY253     -0.2717
    112  N         -9.2560   13.3360   -6.9010 N.am  254  ASP254     -0.1959
    113  CA        -8.9060   12.6790   -8.1710 C.3   254  ASP254      0.1840
    114  C         -7.4470   12.1580   -8.2390 C.2   254  ASP254      0.2622
    115  O         -7.2140   11.0960   -8.7970 O.2   254  ASP254     -0.2715
    116  CB        -9.1530   13.6380   -9.3540 C.3   254  ASP254      0.1450
    117  CG        -8.4540   14.9760   -9.2420 C.2   254  ASP254      0.3671
    118  OD1       -8.7450   15.7150   -8.2800 O.co2 254  ASP254     -0.2456
    119  OD2       -7.6230   15.2970  -10.1330 O.co2 254  ASP254     -0.2456
    120  N         -6.4670   12.8810   -7.7100 N.am  255  ALA255     -0.1963
    121  CA        -5.1050   12.3700   -7.7870 C.3   255  ALA255      0.1728
    122  C         -4.8820   11.1800   -6.8050 C.2   255  ALA255      0.2616
    123  O         -4.2190   10.1940   -7.1720 O.2   255  ALA255     -0.2715
    124  CB        -4.1210   13.4870   -7.5130 C.3   255  ALA255      0.0334
    125  N         -5.4410   11.2760   -5.5670 N.am  256  ALA256     -0.1977
    126  CA        -5.2870   10.2450   -4.5400 C.3   256  ALA256      0.1597
    127  C         -6.1230    9.0110   -4.8590 C.2   256  ALA256      0.2287
    128  O         -5.7280    7.9070   -4.4670 O.2   256  ALA256     -0.2864
    129  CB        -5.6820   10.7970   -3.1830 C.3   256  ALA256      0.0319
    130  N         -3.2800    5.9820   -4.8640 N.3   260  GLN260     -0.1245
    131  CA        -3.1260    5.1830   -3.6410 C.3   260  GLN260      0.1566
    132  C         -3.6800    3.7390   -3.7730 C.2   260  GLN260      0.2260
    133  O         -4.8690    3.5450   -4.0590 O.2   260  GLN260     -0.2867
    134  CB        -3.7740    5.8940   -2.4480 C.3   260  GLN260      0.0367
    135  CG        -3.0100    7.1420   -2.0000 C.3   260  GLN260      0.0905
    136  CD        -1.7120    6.7950   -1.3060 C.2   260  GLN260      0.2608
    137  OE1       -1.6910    6.0770   -0.3090 O.2   260  GLN260     -0.2717
    138  NE2       -0.5940    7.2840   -1.8400 N.am  260  GLN260     -0.0878
    139  N        -14.1150   14.1210   -5.8450 N.3   285  VAL285     -0.1245
    140  CA       -14.0960   15.5690   -6.0410 C.3   285  VAL285      0.1561
    141  C        -12.9170   15.8170   -6.9780 C.2   285  VAL285      0.2260
    142  O        -11.8140   16.1530   -6.5440 O.2   285  VAL285     -0.2867
    143  CB       -14.0530   16.4130   -4.7440 C.3   285  VAL285      0.0252
    144  CG1      -14.2500   17.8970   -5.0590 C.3   285  VAL285      0.0019
    145  CG2      -15.0940   15.9480   -3.7250 C.3   285  VAL285      0.0019
    146  N        -11.3060   17.8500   -9.2960 N.3   287  ASN287     -0.1240
    147  CA       -10.9730   19.2130   -9.6810 C.3   287  ASN287      0.1653
    148  C         -9.8550   19.1910  -10.6950 C.2   287  ASN287      0.2266
    149  O         -9.1960   20.1960  -10.8960 O.2   287  ASN287     -0.2867
    150  CB       -10.6110   20.1150   -8.4990 C.3   287  ASN287      0.1155
    151  CG        -9.6550   19.5610   -7.4910 C.2   287  ASN287      0.2627
    152  OD1       -8.8600   18.6570   -7.7780 O.2   287  ASN287     -0.2716
    153  ND2       -9.7210   20.1150   -6.2730 N.am  287  ASN287     -0.0877
    154  N         -6.8140   18.2360  -10.8760 N.3   289  ILE289     -0.1231
    155  CA        -5.5230   18.6970  -10.3560 C.3   289  ILE289      0.1692
    156  C         -5.2010   18.0090   -8.9930 C.2   289  ILE289      0.2593
    157  O         -6.1040   17.7270   -8.2000 O.2   289  ILE289     -0.2718
    158  CB        -5.5330   20.2880  -10.2270 C.3   289  ILE289      0.0266
    159  CG1       -4.1230   20.8790  -10.0990 C.3   289  ILE289      0.0019
    160  CG2       -6.4760   20.8230   -9.1460 C.3   289  ILE289      0.0020
    161  CD1       -3.3200   20.7900  -11.3730 C.3   289  ILE289      0.0001
    162  N         -3.9160   17.7360   -8.7750 N.am  290  GLY290     -0.1942
    163  CA        -3.3640   17.1740   -7.5510 C.3   290  GLY290      0.2014
    164  C         -2.2520   18.1110   -7.1420 C.2   290  GLY290      0.2638
    165  O         -1.1140   17.9390   -7.5930 O.2   290  GLY290     -0.2714
    166  N         -2.6060   19.1940   -6.3880 N.am  291  PHE291     -0.1973
    167  CA        -1.7060   20.2760   -5.9640 C.3   291  PHE291      0.1639
    168  C         -1.1050   21.0010   -7.2430 C.2   291  PHE291      0.2290
    169  O         -1.7750   21.8560   -7.8100 O.2   291  PHE291     -0.2864
    170  CB        -0.6310   19.7430   -4.9920 C.3   291  PHE291      0.0560
    171  CG         0.1950   20.7370   -4.2070 C.ar  291  PHE291     -0.0200
    172  CD1        0.1900   22.0890   -4.5370 C.ar  291  PHE291     -0.0042
    173  CD2        1.0390   20.3060   -3.1850 C.ar  291  PHE291     -0.0042
    174  CE1        0.9660   22.9900   -3.8270 C.ar  291  PHE291     -0.0003
    175  CE2        1.8300   21.2090   -2.4800 C.ar  291  PHE291     -0.0003
    176  CZ         1.7900   22.5390   -2.8030 C.ar  291  PHE291     -0.0000
    177  N        -10.8070   23.6890   -8.9480 N.3   352  ARG352     -0.1245
    178  CA       -10.3550   24.2260   -7.6830 C.3   352  ARG352      0.1563
    179  C        -10.1230   25.6880   -7.9680 C.2   352  ARG352      0.2260
    180  O         -9.2070   26.0130   -8.7260 O.2   352  ARG352     -0.2867
    181  CB        -9.0980   23.4430   -7.2320 C.3   352  ARG352      0.0307
    182  CG        -8.5470   23.8040   -5.8550 C.3   352  ARG352      0.0489
    183  CD        -7.1000   23.4010   -5.7570 C.3   352  ARG352      0.2205
    184  NE        -6.2650   24.1630   -6.6830 N.pl3 352  ARG352     -0.0865
    185  CZ        -5.0790   23.7670   -7.1250 C.cat 352  ARG352      0.5346
    186  NH1       -4.5800   22.6000   -6.7510 N.pl3 352  ARG352      0.1354
    187  NH2       -4.3880   24.5310   -7.9560 N.pl3 352  ARG352      0.1354
    188  N         -3.8680   25.1710   -4.2570 N.3   356  HIS356     -0.1241
    189  CA        -4.0230   23.9080   -3.5310 C.3   356  HIS356      0.1621
    190  C         -4.4920   24.1500   -2.1020 C.2   356  HIS356      0.2264
    191  O         -5.4180   23.4750   -1.6330 O.2   356  HIS356     -0.2867
    192  CB        -2.7490   23.0840   -3.5630 C.3   356  HIS356      0.0745
    193  CG        -2.8730   21.8030   -2.8270 C.ar  356  HIS356      0.0817
    194  ND1       -3.8420   20.8880   -3.1510 N.ar  356  HIS356     -0.2268
    195  CD2       -2.1670   21.3480   -1.7690 C.ar  356  HIS356      0.1154
    196  CE1       -3.6920   19.8980   -2.2920 C.ar  356  HIS356      0.1986
    197  NE2       -2.6970   20.1410   -1.4380 N.ar  356  HIS356     -0.2212
@<TRIPOS>BOND
     1   161   159    1
     2   149   148    2
     3   154   155    1
     4   148   147    1
     5   155   158    1
     6   155   156    1
     7   158   159    1
     8   158   160    1
     9   119   117   ar
    10   147   146    1
    11   147   150    1
    12   116   117    1
    13   116   113    1
    14   117   118   ar
    15   156   162   am
    16   156   157    2
    17   177   178    1
    18   115   114    2
    19   162   163    1
    20   180   179    2
    21   150   151    1
    22   114   113    1
    23   114   120   am
    24   113   112    1
    25   179   178    1
    26   187   185    1
    27   169   168    2
    28   121   120    1
    29   121   124    1
    30   121   122    1
    31   152   151    2
    32   178   181    1
    33   165   164    2
    34   163   164    1
    35   151   153   am
    36   168   167    1
    37   181   182    1
    38   123   122    2
    39   164   166   am
    40   185   186    1
    41   185   184    2
    42   141   142    2
    43   141   140    1
    44   112   110   am
    45   122   125   am
    46   184   183    1
    47   166   167    1
    48   140   139    1
    49   140   143    1
    50   167   170    1
    51   182   183    1
    52   110   111    2
    53   110   109    1
    54   125   126    1
    55   144   143    1
    56   170   171    1
    57   130   131    1
    58   127   126    1
    59   127   128    2
    60   143   145    1
    61   126   129    1
    62   172   171   ar
    63   172   174   ar
    64   109   108    1
    65   188   189    1
    66   171   173   ar
    67   133   132    2
    68   174   176   ar
    69   132   131    1
    70   131   134    1
    71   192   189    1
    72   192   193    1
    73   189   190    1
    74   173   175   ar
    75   194   193   ar
    76   194   196   ar
    77   193   195   ar
    78   176   175   ar
    79    36    35    1
    80    36    37    2
    81    39    37    1
    82    34    35    1
    83    34    33    1
    84   134   135    1
    85    37    38    1
    86   196   197   ar
    87   190   191    2
    88   135   136    1
    89   138   136   am
    90   195   197   ar
    91    33    30    1
    92   136   137    2
    93   106   105    1
    94    28    27   ar
    95    28    26   ar
    96    30    31    1
    97    30    29    1
    98    27    25   ar
    99    17    18    1
   100    17    16    1
   101    32    31    2
   102   104   105    1
   103   104   101    1
   104    26    24   ar
   105   105   107    1
   106    29    21   am
   107    18    12    1
   108     4     3    2
   109     3     2    1
   110   103   102    2
   111     7     9   ar
   112     7     6   ar
   113    16    13    1
   114    25    24   ar
   115     9    11   ar
   116   102   101    1
   117     2     5    1
   118     2     1    1
   119    24    23    1
   120   101   100    1
   121     5     6    1
   122     6     8   ar
   123    21    22    2
   124    21    20    1
   125    12    13    1
   126    13    14    1
   127   100    92   am
   128    11    10   ar
   129    19    14   am
   130    19    20    1
   131    23    20    1
   132    14    15    2
   133     8    10   ar
   134    92    93    2
   135    92    91    1
   136    87    86    2
   137    91    94    1
   138    91    90    1
   139    86    90   am
   140    86    85    1
   141    94    95    1
   142    97    95   ar
   143    97    99   ar
   144    95    96   ar
   145    85    88    1
   146    85    84    1
   147    88    89    1
   148    99    98   ar
   149    80    79    2
   150    96    98   ar
   151    53    55   ar
   152    53    52   ar
   153    55    57   ar
   154    52    51    1
   155    52    54   ar
   156    51    48    1
   157    58    57    1
   158    57    56   ar
   159    76    74   am
   160    54    56   ar
   161    84    79   am
   162    75    74    2
   163    74    73    1
   164    50    49    2
   165    79    78    1
   166    68    66   ar
   167    68    67   ar
   168    73    70    1
   169    66    64   ar
   170    48    49    1
   171    48    47    1
   172    82    83    1
   173    82    81    1
   174    83    77    1
   175    49    59   am
   176    78    77    1
   177    78    81    1
   178    67    65   ar
   179    77    71   am
   180    70    71    1
   181    70    69    1
   182    71    72    2
   183    64    65   ar
   184    64    63    1
   185    59    60    1
   186    60    63    1
   187    60    61    1
   188    46    44    1
   189    61    62    2
   190    44    45    1
   191    44    41    1
   192    42    43    2
   193    42    41    1
   194    41    40    1
