@<TRIPOS>MOLECULE
tmp/3zhuB00.pdb
 87 83 0 0 0
SMALL
GASTEIGER

@<TRIPOS>ATOM
      1  N         -5.0110  -13.8330    7.4090 N.3   510  GLN510     -0.1231
      2  CA        -4.6360  -14.7330    6.3280 C.3   510  GLN510      0.1698
      3  C         -4.5790  -16.1910    6.8120 C.2   510  GLN510      0.2592
      4  O         -3.7650  -16.5300    7.6720 O.2   510  GLN510     -0.2718
      5  CB        -3.3170  -14.2680    5.6920 C.3   510  GLN510      0.0381
      6  CG        -3.5450  -13.1510    4.6570 C.3   510  GLN510      0.0905
      7  CD        -2.3310  -12.2660    4.4880 C.2   510  GLN510      0.2608
      8  OE1       -1.1880  -12.7040    4.6690 O.2   510  GLN510     -0.2717
      9  NE2       -2.5450  -10.9920    4.1340 N.am  510  GLN510     -0.0878
     10  N         -5.5140  -17.0340    6.2800 N.am  511  ASP511     -0.1974
     11  CA        -5.6460  -18.4610    6.6180 C.3   511  ASP511      0.1709
     12  C         -5.9230  -18.6370    8.1320 C.2   511  ASP511      0.2293
     13  O         -5.4760  -19.6150    8.7410 O.2   511  ASP511     -0.2864
     14  CB        -4.3760  -19.2170    6.1830 C.3   511  ASP511      0.1436
     15  CG        -4.0880  -18.9550    4.7210 C.2   511  ASP511      0.3671
     16  OD1       -4.8440  -19.4750    3.8680 O.co2 511  ASP511     -0.2456
     17  OD2       -3.1700  -18.1530    4.4320 O.co2 511  ASP511     -0.2456
     18  N         -5.7010  -11.2460    0.6380 N.3   559  LEU559     -0.1245
     19  CA        -4.2640  -11.1110    0.8020 C.3   559  LEU559      0.1561
     20  C         -3.8770   -9.6310    0.8390 C.2   559  LEU559      0.2260
     21  O         -3.2830   -9.1010   -0.1020 O.2   559  LEU559     -0.2867
     22  CB        -3.4990  -11.8710   -0.2940 C.3   559  LEU559      0.0270
     23  CG        -2.2160  -12.5890    0.1590 C.3   559  LEU559      0.0019
     24  CD1       -1.7500  -13.5200   -0.9120 C.3   559  LEU559      0.0001
     25  CD2       -1.0860  -11.6110    0.4930 C.3   559  LEU559      0.0001
     26  N         -2.7980   -6.3610    4.0020 N.3   561  GLU561     -0.1245
     27  CA        -2.4260   -5.9870    5.3520 C.3   561  GLU561      0.1567
     28  C         -3.0180   -4.6300    5.6480 C.2   561  GLU561      0.2260
     29  O         -3.7400   -4.5140    6.6240 O.2   561  GLU561     -0.2867
     30  CB        -0.9050   -5.9930    5.5550 C.3   561  GLU561      0.0388
     31  CG        -0.3130   -7.3870    5.6510 C.3   561  GLU561      0.1160
     32  CD        -0.1020   -8.0850    4.3260 C.2   561  GLU561      0.3649
     33  OE1        0.0940   -7.4020    3.2910 O.co2 561  GLU561     -0.2457
     34  OE2       -0.1550   -9.3340    4.3290 O.co2 561  GLU561     -0.2457
     35  N          0.0220  -13.3820    9.0150 N.3   585  GLN585     -0.1231
     36  CA         0.5180  -14.6960    8.6720 C.3   585  GLN585      0.1698
     37  C          1.7850  -14.9150    9.4840 C.2   585  GLN585      0.2592
     38  O          1.9340  -15.9080   10.2040 O.2   585  GLN585     -0.2718
     39  CB         0.7890  -14.7890    7.1290 C.3   585  GLN585      0.0381
     40  CG         1.2350  -16.1860    6.6830 C.3   585  GLN585      0.0905
     41  CD         0.1950  -16.8640    5.8370 C.2   585  GLN585      0.2608
     42  OE1        0.3650  -17.0210    4.6250 O.2   585  GLN585     -0.2717
     43  NE2       -0.9120  -17.2460    6.4470 N.am  585  GLN585     -0.0878
     44  N          2.6840  -13.9330    9.3670 N.am  586  PHE586     -0.1976
     45  CA         3.9380  -13.7720   10.1040 C.3   586  PHE586      0.1639
     46  C          3.9920  -12.2980   10.3640 C.2   586  PHE586      0.2290
     47  O          3.5280  -11.5170    9.5180 O.2   586  PHE586     -0.2864
     48  CB         5.1680  -14.3000    9.3060 C.3   586  PHE586      0.0560
     49  CG         5.2370  -15.7980    9.1200 C.ar  586  PHE586     -0.0200
     50  CD1        4.5860  -16.4160    8.0530 C.ar  586  PHE586     -0.0042
     51  CD2        6.0510  -16.5760    9.9260 C.ar  586  PHE586     -0.0042
     52  CE1        4.6730  -17.7980    7.8510 C.ar  586  PHE586     -0.0003
     53  CE2        6.1440  -17.9570    9.7210 C.ar  586  PHE586     -0.0003
     54  CZ         5.4580  -18.5560    8.6720 C.ar  586  PHE586     -0.0000
     55  N          5.0100   -9.1690    7.8940 N.3   589  PHE589     -0.1241
     56  CA         4.1490   -8.5650    6.8740 C.3   589  PHE589      0.1605
     57  C          3.2630   -7.4350    7.4060 C.2   589  PHE589      0.2264
     58  O          2.6300   -6.7570    6.5950 O.2   589  PHE589     -0.2867
     59  CB         3.2770   -9.6420    6.2090 C.3   589  PHE589      0.0534
     60  CG         4.0600  -10.7960    5.6460 C.ar  589  PHE589     -0.0203
     61  CD1        5.0010  -10.5980    4.6350 C.ar  589  PHE589     -0.0042
     62  CD2        3.8560  -12.0860    6.1160 C.ar  589  PHE589     -0.0042
     63  CE1        5.7390  -11.6670    4.1280 C.ar  589  PHE589     -0.0003
     64  CE2        4.5970  -13.1540    5.6110 C.ar  589  PHE589     -0.0003
     65  CZ         5.5270  -12.9380    4.6190 C.ar  589  PHE589     -0.0000
     66  N          3.2520   -3.7520    5.9440 N.3   592  GLY592     -0.1225
     67  CA         2.4240   -3.4030    4.7880 C.3   592  GLY592      0.1811
     68  C          1.2350   -2.5720    5.2470 C.2   592  GLY592      0.2280
     69  O          0.5760   -1.9410    4.4270 O.2   592  GLY592     -0.2866
     70  N         12.2040  -12.7250    6.4730 N.3   628  ASP628     -0.1225
     71  CA        10.7790  -12.4020    6.3700 C.3   628  ASP628      0.1805
     72  C          9.8780  -13.3830    7.1010 C.2   628  ASP628      0.2597
     73  O          8.6470  -13.2590    6.9870 O.2   628  ASP628     -0.2718
     74  CB        10.3330  -12.3360    4.9090 C.3   628  ASP628      0.1424
     75  CG        11.0050  -11.2510    4.1410 C.2   628  ASP628      0.3668
     76  OD1       11.2990  -10.2040    4.7450 O.co2 628  ASP628     -0.2456
     77  OD2       11.2790  -11.4610    2.9440 O.co2 628  ASP628     -0.2456
     78  N         10.4490  -14.3360    7.8600 N.am  629  HIS629     -0.1975
     79  CA         9.6130  -15.2830    8.5840 C.3   629  HIS629      0.1656
     80  C         10.1230  -15.4000    9.9900 C.2   629  HIS629      0.2291
     81  O         10.0680  -16.4750   10.5860 O.2   629  HIS629     -0.2864
     82  CB         9.6040  -16.6360    7.8530 C.3   629  HIS629      0.0771
     83  CG         8.8290  -16.6070    6.5770 C.ar  629  HIS629      0.0820
     84  ND1        7.4910  -16.9430    6.5440 N.ar  629  HIS629     -0.2267
     85  CD2        9.2130  -16.2370    5.3320 C.ar  629  HIS629      0.1154
     86  CE1        7.1090  -16.7930    5.2820 C.ar  629  HIS629      0.1986
     87  NE2        8.1150  -16.3870    4.5160 N.ar  629  HIS629     -0.2212
@<TRIPOS>BOND
     1    24    23    1
     2    22    23    1
     3    22    19    1
     4    21    20    2
     5    23    25    1
     6    18    19    1
     7    19    20    1
     8    77    75   ar
     9    33    32   ar
    10    16    15   ar
    11    26    27    1
    12    63    65   ar
    13    63    61   ar
    14     9     7   am
    15    75    76   ar
    16    75    74    1
    17    32    34   ar
    18    32    31    1
    19    69    68    2
    20    17    15   ar
    21     7     6    1
    22     7     8    2
    23    87    86   ar
    24    87    85   ar
    25    65    64   ar
    26    42    41    2
    27    61    60   ar
    28     6     5    1
    29    15    14    1
    30    67    68    1
    31    67    66    1
    32    74    71    1
    33    86    84   ar
    34    85    83   ar
    35    27    30    1
    36    27    28    1
    37    30    31    1
    38    64    62   ar
    39    60    62   ar
    40    60    59    1
    41    28    29    2
    42     5     2    1
    43    41    43   am
    44    41    40    1
    45    14    11    1
    46    59    56    1
    47    10    11    1
    48    10     3   am
    49     2     3    1
    50     2     1    1
    51    71    70    1
    52    71    72    1
    53    84    83   ar
    54    83    82    1
    55    58    57    2
    56    11    12    1
    57    40    39    1
    58     3     4    2
    59    56    57    1
    60    56    55    1
    61    73    72    2
    62    72    78   am
    63    39    36    1
    64    52    50   ar
    65    52    54   ar
    66    82    79    1
    67    78    79    1
    68    50    49   ar
    69    12    13    2
    70    79    80    1
    71    54    53   ar
    72    36    35    1
    73    36    37    1
    74    49    48    1
    75    49    51   ar
    76    48    45    1
    77    44    37   am
    78    44    45    1
    79    37    38    2
    80    47    46    2
    81    53    51   ar
    82    80    81    2
    83    45    46    1
