@<TRIPOS>MOLECULE
tmp/3zhvD01.pdb
 161 156 0 0 0
SMALL
GASTEIGER

@<TRIPOS>ATOM
      1  N         -1.1810  -27.6580   45.4110 N.3   119  ARG119     -0.1245
      2  CA        -1.1210  -26.2020   45.3490 C.3   119  ARG119      0.1563
      3  C         -1.7740  -25.5260   46.5770 C.2   119  ARG119      0.2260
      4  O         -1.4670  -24.3690   46.8650 O.2   119  ARG119     -0.2867
      5  CB        -1.7040  -25.6730   44.0230 C.3   119  ARG119      0.0307
      6  CG        -3.2220  -25.5990   43.8680 C.3   119  ARG119      0.0489
      7  CD        -3.5570  -25.0730   42.4640 C.3   119  ARG119      0.2205
      8  NE        -4.7370  -24.1920   42.3940 N.pl3 119  ARG119     -0.0865
      9  CZ        -4.7030  -22.8620   42.5020 C.cat 119  ARG119      0.5346
     10  NH1       -3.5500  -22.2320   42.7050 N.pl3 119  ARG119      0.1354
     11  NH2       -5.8230  -22.1560   42.4290 N.pl3 119  ARG119      0.1354
     12  N         -6.0590  -16.2020   51.3410 N.3   152  PRO152     -0.2102
     13  CA        -5.9230  -16.8750   50.0260 C.3   152  PRO152      0.1504
     14  C         -6.2290  -18.4060   50.1430 C.2   152  PRO152      0.2576
     15  O         -6.6990  -18.8720   51.1750 O.2   152  PRO152     -0.2718
     16  CB        -4.4750  -16.5820   49.6240 C.3   152  PRO152      0.0282
     17  CG        -3.7590  -16.1880   50.8740 C.3   152  PRO152      0.0208
     18  CD        -4.7410  -16.0040   51.9870 C.3   152  PRO152      0.0893
     19  N         -5.9970  -19.1880   49.0840 N.am  153  HIS153     -0.1962
     20  CA        -6.3630  -20.6230   49.0150 C.3   153  HIS153      0.1787
     21  C         -5.5010  -21.5830   49.8390 C.2   153  HIS153      0.2620
     22  O         -5.9650  -22.7030   50.1220 O.2   153  HIS153     -0.2715
     23  CB        -6.3380  -21.1140   47.5540 C.3   153  HIS153      0.0785
     24  CG        -4.9850  -21.0020   46.9150 C.ar  153  HIS153      0.0821
     25  ND1       -4.0670  -22.0390   46.9690 N.ar  153  HIS153     -0.2267
     26  CD2       -4.4140  -19.9500   46.2910 C.ar  153  HIS153      0.1154
     27  CE1       -2.9810  -21.5930   46.3650 C.ar  153  HIS153      0.1986
     28  NE2       -3.1420  -20.3420   45.9420 N.ar  153  HIS153     -0.2212
     29  N         -4.2370  -21.2040   50.1520 N.am  154  ARG154     -0.1977
     30  CA        -3.3350  -22.1080   50.8600 C.3   154  ARG154      0.1597
     31  C         -3.7940  -22.4100   52.3160 C.2   154  ARG154      0.2287
     32  O         -3.8180  -21.5180   53.1710 O.2   154  ARG154     -0.2864
     33  CB        -1.9000  -21.5920   50.8380 C.3   154  ARG154      0.0334
     34  CG        -0.9390  -22.5680   51.5180 C.3   154  ARG154      0.0492
     35  CD         0.5230  -22.1730   51.4510 C.3   154  ARG154      0.2205
     36  NE         0.9470  -21.7580   50.1110 N.pl3 154  ARG154     -0.0865
     37  CZ         1.2410  -22.5790   49.1120 C.cat 154  ARG154      0.5346
     38  NH1        1.1470  -23.8930   49.2700 N.pl3 154  ARG154      0.1354
     39  NH2        1.6420  -22.0950   47.9540 N.pl3 154  ARG154      0.1354
     40  N         -9.4490  -15.6720   42.9900 N.3   205  SER205     -0.1202
     41  CA        -8.0590  -16.1200   43.0040 C.3   205  SER205      0.2020
     42  C         -7.1140  -14.9400   43.0660 C.2   205  SER205      0.2619
     43  O         -5.9650  -15.1300   43.4390 O.2   205  SER205     -0.2717
     44  CB        -7.7490  -16.9990   41.8040 C.3   205  SER205      0.2103
     45  OG        -8.4910  -18.2080   41.8430 O.3   205  SER205     -0.2182
     46  N         -7.6020  -13.7140   42.7310 N.am  206  HIS206     -0.1961
     47  CA        -6.8720  -12.4380   42.7930 C.3   206  HIS206      0.1787
     48  C         -6.4290  -12.1730   44.2190 C.2   206  HIS206      0.2620
     49  O         -7.2370  -11.7780   45.0610 O.2   206  HIS206     -0.2715
     50  CB        -7.7490  -11.2840   42.2750 C.3   206  HIS206      0.0785
     51  CG        -8.0060  -11.3590   40.8070 C.ar  206  HIS206      0.0821
     52  ND1       -8.5830  -12.4750   40.2360 N.ar  206  HIS206     -0.2267
     53  CD2       -7.7280  -10.4580   39.8330 C.ar  206  HIS206      0.1154
     54  CE1       -8.6390  -12.2220   38.9370 C.ar  206  HIS206      0.1986
     55  NE2       -8.1580  -11.0090   38.6520 N.ar  206  HIS206     -0.2212
     56  N         -5.1460  -12.4450   44.4950 N.am  207  LEU207     -0.1977
     57  CA        -4.5450  -12.3070   45.8110 C.3   207  LEU207      0.1596
     58  C         -4.6490  -10.8680   46.3110 C.2   207  LEU207      0.2287
     59  O         -4.4180   -9.9220   45.5560 O.2   207  LEU207     -0.2864
     60  CB        -3.0690  -12.7740   45.7920 C.3   207  LEU207      0.0297
     61  CG        -2.8170  -14.2450   45.3460 C.3   207  LEU207      0.0022
     62  CD1       -1.3570  -14.4680   44.9520 C.3   207  LEU207      0.0001
     63  CD2       -3.3280  -15.2580   46.3850 C.3   207  LEU207      0.0001
     64  N          0.0480  -14.0100   51.8420 N.3   245  GLY245     -0.1210
     65  CA         1.2610  -14.6320   51.3460 C.3   245  GLY245      0.1956
     66  C          2.3280  -13.5590   51.2960 C.2   245  GLY245      0.2612
     67  O          2.0080  -12.3710   51.1700 O.2   245  GLY245     -0.2717
     68  N          3.5930  -13.9410   51.4220 N.am  246  ASP246     -0.1959
     69  CA         4.6850  -12.9810   51.4530 C.3   246  ASP246      0.1840
     70  C          4.8730  -12.2080   50.1460 C.2   246  ASP246      0.2622
     71  O          5.1610  -11.0140   50.2090 O.2   246  ASP246     -0.2715
     72  CB         6.0090  -13.6400   51.8720 C.3   246  ASP246      0.1450
     73  CG         6.4590  -14.8210   51.0430 C.2   246  ASP246      0.3671
     74  OD1        5.6790  -15.8030   50.9220 O.co2 246  ASP246     -0.2456
     75  OD2        7.6000  -14.7950   50.5550 O.co2 246  ASP246     -0.2456
     76  N          4.7560  -12.8670   48.9770 N.am  247  ALA247     -0.1963
     77  CA         4.9550  -12.1610   47.7000 C.3   247  ALA247      0.1728
     78  C          3.8070  -11.1900   47.4210 C.2   247  ALA247      0.2616
     79  O          4.0520  -10.0870   46.9600 O.2   247  ALA247     -0.2715
     80  CB         5.1160  -13.1530   46.5450 C.3   247  ALA247      0.0334
     81  N          2.5650  -11.6040   47.7190 N.am  248  ALA248     -0.1977
     82  CA         1.3520  -10.8270   47.4810 C.3   248  ALA248      0.1597
     83  C          1.2580   -9.6140   48.4120 C.2   248  ALA248      0.2287
     84  O          0.8890   -8.5240   47.9600 O.2   248  ALA248     -0.2864
     85  CB         0.1330  -11.7160   47.6550 C.3   248  ALA248      0.0319
     86  N          1.1200   -6.2000   46.0440 N.3   252  GLN252     -0.1245
     87  CA        -0.2210   -5.7340   45.6900 C.3   252  GLN252      0.1566
     88  C         -0.5220   -4.3810   46.3470 C.2   252  GLN252      0.2260
     89  O         -0.4600   -4.2520   47.5630 O.2   252  GLN252     -0.2867
     90  CB        -1.2730   -6.8050   46.0660 C.3   252  GLN252      0.0367
     91  CG        -1.2500   -8.0510   45.1500 C.3   252  GLN252      0.0905
     92  CD        -1.6780   -7.7070   43.7250 C.2   252  GLN252      0.2608
     93  OE1       -2.7860   -7.2150   43.4930 O.2   252  GLN252     -0.2717
     94  NE2       -0.7960   -7.9120   42.7380 N.am  252  GLN252     -0.0878
     95  N          1.7810  -15.6390   55.9280 N.3   277  VAL277     -0.1245
     96  CA         2.3490  -16.9920   55.8250 C.3   277  VAL277      0.1561
     97  C          3.5760  -16.7990   54.9330 C.2   277  VAL277      0.2260
     98  O          3.4950  -16.8520   53.6980 O.2   277  VAL277     -0.2867
     99  CB         1.3260  -18.0420   55.3170 C.3   277  VAL277      0.0252
    100  CG1        1.9570  -19.4260   55.2080 C.3   277  VAL277      0.0019
    101  CG2        0.0990  -18.0860   56.2250 C.3   277  VAL277      0.0019
    102  N          6.4590  -18.0180   53.5520 N.3   279  ASN279     -0.1240
    103  CA         7.1630  -19.2500   53.2150 C.3   279  ASN279      0.1653
    104  C          8.3850  -18.9420   52.3600 C.2   279  ASN279      0.2266
    105  O          8.9830  -19.8580   51.7900 O.2   279  ASN279     -0.2867
    106  CB         6.2360  -20.2990   52.5560 C.3   279  ASN279      0.1155
    107  CG         5.4480  -19.7900   51.3750 C.2   279  ASN279      0.2627
    108  OD1        5.8070  -18.8080   50.7400 O.2   279  ASN279     -0.2716
    109  ND2        4.3590  -20.4580   51.0510 N.am  279  ASN279     -0.0877
    110  N          8.9470  -17.6190   49.5380 N.3   281  ILE281     -0.1231
    111  CA         8.8400  -17.9690   48.1190 C.3   281  ILE281      0.1692
    112  C          7.4640  -17.5400   47.6080 C.2   281  ILE281      0.2593
    113  O          6.5150  -17.4340   48.3820 O.2   281  ILE281     -0.2718
    114  CB         9.1460  -19.4870   47.8760 C.3   281  ILE281      0.0266
    115  CG1        9.4490  -19.7840   46.3810 C.3   281  ILE281      0.0019
    116  CG2        8.0910  -20.4290   48.5050 C.3   281  ILE281      0.0020
    117  CD1       10.1190  -21.0790   46.0980 C.3   281  ILE281      0.0001
    118  N          7.3960  -17.2600   46.3210 N.am  282  GLY282     -0.1942
    119  CA         6.1820  -16.8890   45.6030 C.3   282  GLY282      0.2014
    120  C          6.2070  -17.5930   44.2690 C.2   282  GLY282      0.2638
    121  O          6.8180  -17.1000   43.3230 O.2   282  GLY282     -0.2714
    122  N          5.6180  -18.7920   44.2190 N.am  283  PHE283     -0.1973
    123  CA         5.5920  -19.7280   43.0840 C.3   283  PHE283      0.1639
    124  C          7.0620  -20.1860   42.8030 C.2   283  PHE283      0.2290
    125  O          7.5060  -21.1070   43.4820 O.2   283  PHE283     -0.2864
    126  CB         4.8410  -19.1410   41.8780 C.3   283  PHE283      0.0560
    127  CG         4.3920  -20.0850   40.7860 C.ar  283  PHE283     -0.0200
    128  CD1        5.1380  -21.2170   40.4670 C.ar  283  PHE283     -0.0042
    129  CD2        3.2890  -19.7870   40.0070 C.ar  283  PHE283     -0.0042
    130  CE1        4.7750  -22.0430   39.3980 C.ar  283  PHE283     -0.0003
    131  CE2        2.9360  -20.6060   38.9260 C.ar  283  PHE283     -0.0003
    132  CZ         3.6720  -21.7370   38.6370 C.ar  283  PHE283     -0.0000
    133  N          7.5800  -23.7720   52.1940 N.3   344  ARG344     -0.1245
    134  CA         6.6320  -24.4580   51.3360 C.3   344  ARG344      0.1563
    135  C          7.3010  -25.7760   51.0150 C.2   344  ARG344      0.2260
    136  O          8.2510  -25.8020   50.2450 O.2   344  ARG344     -0.2867
    137  CB         6.3080  -23.6120   50.0890 C.3   344  ARG344      0.0307
    138  CG         5.0360  -24.0230   49.3200 C.3   344  ARG344      0.0489
    139  CD         5.0720  -23.5920   47.8430 C.3   344  ARG344      0.2205
    140  NE         6.2100  -24.1950   47.1290 N.pl3 344  ARG344     -0.0865
    141  CZ         6.8850  -23.6080   46.1380 C.cat 344  ARG344      0.5346
    142  NH1        6.5040  -22.4260   45.6750 N.pl3 344  ARG344      0.1354
    143  NH2        7.9390  -24.2120   45.5930 N.pl3 344  ARG344      0.1354
    144  N          4.9890  -25.7640   43.8860 N.3   348  HIS348     -0.1226
    145  CA         3.8200  -24.8740   43.8680 C.3   348  HIS348      0.1752
    146  C          2.5640  -25.5960   43.4060 C.2   348  HIS348      0.2596
    147  O          1.4950  -25.3310   43.9270 O.2   348  HIS348     -0.2718
    148  CB         4.0460  -23.6060   43.0420 C.3   348  HIS348      0.0759
    149  CG         3.0270  -22.5460   43.3180 C.ar  348  HIS348      0.0818
    150  ND1        3.1130  -21.7280   44.4420 N.ar  348  HIS348     -0.2268
    151  CD2        1.9180  -22.2110   42.6170 C.ar  348  HIS348      0.1154
    152  CE1        2.0760  -20.9130   44.3660 C.ar  348  HIS348      0.1986
    153  NE2        1.3310  -21.1680   43.2830 N.ar  348  HIS348     -0.2212
    154  N          2.7050  -26.5360   42.5110 N.am  349  ASN349     -0.1974
    155  CA         1.5990  -27.3160   41.9930 C.3   349  ASN349      0.1688
    156  C          2.1530  -28.6420   41.5330 C.2   349  ASN349      0.2292
    157  O          3.3720  -28.8640   41.6390 O.2   349  ASN349     -0.2864
    158  CB         0.8760  -26.5690   40.8510 C.3   349  ASN349      0.1181
    159  CG         1.7680  -26.1050   39.7060 C.2   349  ASN349      0.2629
    160  OD1        2.5570  -26.8630   39.1410 O.2   349  ASN349     -0.2716
    161  ND2        1.6150  -24.8530   39.3000 N.am  349  ASN349     -0.0877
@<TRIPOS>BOND
     1   132   131   ar
     2   132   130   ar
     3    55    54   ar
     4    55    53   ar
     5   131   129   ar
     6    54    52   ar
     7   160   159    2
     8   161   159   am
     9   130   128   ar
    10   159   158    1
    11    53    51   ar
    12   129   127   ar
    13    52    51   ar
    14   128   127   ar
    15   127   126    1
    16    51    50    1
    17   158   155    1
    18   156   157    2
    19   156   155    1
    20    44    45    1
    21    44    41    1
    22   126   123    1
    23   155   154    1
    24    50    47    1
    25     8     7    1
    26     8     9    2
    27    11     9    1
    28     7     6    1
    29     9    10    1
    30   154   146   am
    31   151   153   ar
    32   151   149   ar
    33    46    47    1
    34    46    42   am
    35    94    92   am
    36    47    48    1
    37   124   123    1
    38   124   125    2
    39    40    41    1
    40    41    42    1
    41   148   149    1
    42   148   145    1
    43    42    43    2
    44   123   122    1
    45   153   152   ar
    46   149   150   ar
    47   121   120    2
    48   146   145    1
    49   146   147    2
    50    93    92    2
    51    92    91    1
    52   145   144    1
    53     6     5    1
    54     5     2    1
    55   122   120   am
    56    48    56   am
    57    48    49    2
    58   120   119    1
    59   152   150   ar
    60    56    57    1
    61    62    61    1
    62    91    90    1
    63    61    60    1
    64    61    63    1
    65     2     1    1
    66     2     3    1
    67    59    58    2
    68   143   141    1
    69   119   118    1
    70   142   141    1
    71    87    86    1
    72    87    90    1
    73    87    88    1
    74    60    57    1
    75    57    58    1
    76    28    26   ar
    77    28    27   ar
    78   117   115    1
    79   141   140    2
    80    26    24   ar
    81   118   112   am
    82    88    89    2
    83    27    25   ar
    84   115   114    1
    85    80    77    1
    86     3     4    2
    87    24    25   ar
    88    24    23    1
    89    79    78    2
    90   140   139    1
    91    78    77    1
    92    78    81   am
    93    82    85    1
    94    82    81    1
    95    82    83    1
    96    23    20    1
    97   112   111    1
    98   112   113    2
    99    77    76    1
   100   139   138    1
   101   114   111    1
   102   114   116    1
   103    39    37    1
   104    84    83    2
   105   111   110    1
   106    76    70   am
   107    20    19    1
   108    20    21    1
   109    19    14   am
   110    37    38    1
   111    37    36    2
   112   138   137    1
   113    16    13    1
   114    16    17    1
   115    21    22    2
   116    21    29   am
   117    13    14    1
   118    13    12    1
   119   137   134    1
   120    36    35    1
   121    14    15    2
   122    70    71    2
   123    70    69    1
   124    29    30    1
   125   136   135    2
   126    75    73   ar
   127   108   107    2
   128    33    30    1
   129    33    34    1
   130    30    31    1
   131    17    18    1
   132    74    73   ar
   133   135   134    1
   134    73    72    1
   135   109   107   am
   136    67    66    2
   137    66    65    1
   138    66    68   am
   139   134   133    1
   140    12    18    1
   141    65    64    1
   142   107   106    1
   143    68    69    1
   144    35    34    1
   145    69    72    1
   146   105   104    2
   147    31    32    2
   148   104   103    1
   149   106   103    1
   150   103   102    1
   151    98    97    2
   152    97    96    1
   153   100    99    1
   154    99    96    1
   155    99   101    1
   156    96    95    1
