@<TRIPOS>MOLECULE
tmp/3zhwA00.pdb
 206 197 0 0 0
SMALL
GASTEIGER

@<TRIPOS>ATOM
      1  N        -18.9900  -13.7060   15.0100 N.3    31  PHE31      -0.1241
      2  CA       -19.1850  -12.4330   15.6960 C.3    31  PHE31       0.1605
      3  C        -18.5430  -11.2360   15.0050 C.2    31  PHE31       0.2264
      4  O        -19.0960  -10.1420   15.0430 O.2    31  PHE31      -0.2867
      5  CB       -18.7470  -12.5070   17.1600 C.3    31  PHE31       0.0534
      6  CG       -19.8720  -12.8320   18.1030 C.ar   31  PHE31      -0.0203
      7  CD1      -20.9430  -11.9460   18.2620 C.ar   31  PHE31      -0.0042
      8  CD2      -19.8670  -14.0180   18.8380 C.ar   31  PHE31      -0.0042
      9  CE1      -21.9910  -12.2420   19.1240 C.ar   31  PHE31      -0.0003
     10  CE2      -20.9070  -14.3160   19.7150 C.ar   31  PHE31      -0.0003
     11  CZ       -21.9690  -13.4260   19.8550 C.ar   31  PHE31      -0.0000
     12  N        -21.1900  -10.3180   12.4770 N.3    34  ILE34      -0.1245
     13  CA       -22.2900   -9.6370   13.1880 C.3    34  ILE34       0.1561
     14  C        -21.8910   -8.2290   13.6420 C.2    34  ILE34       0.2260
     15  O        -22.6430   -7.2720   13.4560 O.2    34  ILE34      -0.2867
     16  CB       -22.7810  -10.4460   14.4100 C.3    34  ILE34       0.0252
     17  CG1      -23.4290  -11.7650   13.9600 C.3    34  ILE34       0.0019
     18  CG2      -23.7800   -9.6350   15.2290 C.3    34  ILE34       0.0019
     19  CD1      -23.3980  -12.8590   15.0060 C.3    34  ILE34       0.0001
     20  N        -24.5600   -4.1010   18.2440 N.3    41  THR41      -0.1218
     21  CA       -24.4770   -5.3610   18.9880 C.3    41  THR41       0.1862
     22  C        -23.2160   -5.4450   19.8460 C.2    41  THR41       0.2287
     23  O        -23.1940   -6.1910   20.8250 O.2    41  THR41      -0.2866
     24  CB       -24.5020   -6.5960   18.0630 C.3    41  THR41       0.1770
     25  OG1      -23.4240   -6.5060   17.1240 O.3    41  THR41      -0.2211
     26  CG2      -25.8150   -6.6940   17.3080 C.3    41  THR41       0.0375
     27  N        -23.6490   -4.9490   23.6020 N.3    44  MET44      -0.1230
     28  CA       -24.2030   -6.0690   24.3610 C.3    44  MET44       0.1702
     29  C        -23.0750   -6.8580   25.0340 C.2    44  MET44       0.2592
     30  O        -23.3020   -7.5790   26.0060 O.2    44  MET44      -0.2718
     31  CB       -25.0130   -6.9950   23.4460 C.3    44  MET44       0.0401
     32  CG       -26.3640   -6.4270   23.1120 C.3    44  MET44       0.0596
     33  SD       -27.1020   -7.3830   21.7780 S.3    44  MET44      -0.1393
     34  CE       -28.6820   -6.5280   21.6800 C.3    44  MET44       0.0692
     35  N        -21.8610   -6.6970   24.5100 N.am   45  PHE45      -0.1976
     36  CA       -20.6830   -7.4180   24.9760 C.3    45  PHE45       0.1639
     37  C        -19.5650   -6.4860   25.4420 C.2    45  PHE45       0.2290
     38  O        -18.4160   -6.9130   25.5810 O.2    45  PHE45      -0.2864
     39  CB       -20.1560   -8.3330   23.8610 C.3    45  PHE45       0.0560
     40  CG       -21.0760   -9.4670   23.5190 C.ar   45  PHE45      -0.0200
     41  CD1      -21.0770  -10.6330   24.2820 C.ar   45  PHE45      -0.0042
     42  CD2      -21.9420   -9.3740   22.4320 C.ar   45  PHE45      -0.0042
     43  CE1      -21.9280  -11.6840   23.9680 C.ar   45  PHE45      -0.0003
     44  CE2      -22.7970  -10.4210   22.1130 C.ar   45  PHE45      -0.0003
     45  CZ       -22.7910  -11.5780   22.8820 C.ar   45  PHE45      -0.0000
     46  N        -16.9440  -14.3660   26.4780 N.3    60  LYS60      -0.1245
     47  CA       -18.2310  -15.0070   26.2490 C.3    60  LYS60       0.1561
     48  C        -18.5360  -15.2030   24.7690 C.2    60  LYS60       0.2260
     49  O        -19.4360  -15.9720   24.4260 O.2    60  LYS60      -0.2867
     50  CB       -19.3590  -14.2110   26.9080 C.3    60  LYS60       0.0271
     51  CG       -19.3210  -14.2230   28.4220 C.3    60  LYS60       0.0035
     52  CD       -20.3690  -13.2800   28.9780 C.3    60  LYS60       0.0206
     53  CE       -20.1870  -13.1210   30.4720 C.3    60  LYS60       0.1093
     54  NZ       -21.1260  -12.1070   31.0000 N.3    60  LYS60      -0.1314
     55  N        -20.5590  -18.3240   23.3330 N.3    64  HIS64      -0.1241
     56  CA       -21.8530  -17.9100   22.7910 C.3    64  HIS64       0.1621
     57  C        -22.0430  -18.4090   21.3500 C.2    64  HIS64       0.2264
     58  O        -23.0920  -18.9830   21.0090 O.2    64  HIS64      -0.2867
     59  CB       -22.0670  -16.3950   22.8560 C.3    64  HIS64       0.0745
     60  CG       -23.4360  -15.9880   22.4150 C.ar   64  HIS64       0.0817
     61  ND1      -23.7490  -15.7340   21.0960 N.ar   64  HIS64      -0.2268
     62  CD2      -24.5940  -15.8740   23.1050 C.ar   64  HIS64       0.1154
     63  CE1      -25.0340  -15.4470   20.9990 C.ar   64  HIS64       0.1986
     64  NE2      -25.5700  -15.5360   22.2030 N.ar   64  HIS64      -0.2212
     65  N        -22.6010  -22.0470   21.2370 N.3    67  SER67      -0.1202
     66  CA       -23.9800  -22.3340   21.6010 C.3    67  SER67       0.2020
     67  C        -24.9150  -22.2480   20.3860 C.2    67  SER67       0.2618
     68  O        -25.7580  -23.1330   20.1750 O.2    67  SER67      -0.2717
     69  CB       -24.4310  -21.3820   22.7060 C.3    67  SER67       0.2103
     70  OG       -25.7730  -21.6360   23.0700 O.3    67  SER67      -0.2182
     71  N        -24.7460  -21.2010   19.5790 N.am   68  VAL68      -0.1979
     72  CA       -25.5560  -21.0070   18.3840 C.3    68  VAL68       0.1595
     73  C        -25.4740  -22.2230   17.4510 C.2    68  VAL68       0.2287
     74  O        -26.5090  -22.7570   17.0280 O.2    68  VAL68      -0.2864
     75  CB       -25.1720  -19.7110   17.6330 C.3    68  VAL68       0.0276
     76  CG1      -25.8560  -19.6550   16.2690 C.3    68  VAL68       0.0022
     77  CG2      -25.5270  -18.4810   18.4640 C.3    68  VAL68       0.0022
     78  N        -26.8170  -25.6310   19.3510 N.3    71  MET71      -0.1230
     79  CA       -28.2490  -25.6550   19.5340 C.3    71  MET71       0.1702
     80  C        -29.0080  -25.7230   18.2050 C.2    71  MET71       0.2592
     81  O        -30.1100  -26.2760   18.1690 O.2    71  MET71      -0.2718
     82  CB       -28.7130  -24.4890   20.4040 C.3    71  MET71       0.0401
     83  CG       -28.2410  -24.5880   21.8490 C.3    71  MET71       0.0596
     84  SD       -29.1260  -23.4910   22.9850 S.3    71  MET71      -0.1393
     85  CE       -30.7110  -24.3310   23.0810 C.3    71  MET71       0.0692
     86  N        -28.4290  -25.1810   17.1280 N.am   72  CYS72      -0.1970
     87  CA       -29.0200  -25.3360   15.7880 C.3    72  CYS72       0.1712
     88  C        -28.8960  -26.7780   15.3430 C.2    72  CYS72       0.2296
     89  O        -29.8290  -27.3350   14.7640 O.2    72  CYS72      -0.2864
     90  CB       -28.3650  -24.4270   14.7490 C.3    72  CYS72       0.0983
     91  SG       -28.7730  -22.6750   14.8960 S.3    72  CYS72      -0.0798
     92  N        -35.2470  -19.0970   30.5530 N.3    94  ARG94      -0.1231
     93  CA       -33.9960  -18.4380   30.8910 C.3    94  ARG94       0.1694
     94  C        -33.3760  -17.7890   29.6480 C.2    94  ARG94       0.2591
     95  O        -32.9560  -16.6320   29.6950 O.2    94  ARG94      -0.2718
     96  CB       -33.0170  -19.4120   31.5430 C.3    94  ARG94       0.0321
     97  CG       -31.6120  -18.8470   31.6390 C.3    94  ARG94       0.0489
     98  CD       -30.8440  -19.4740   32.7730 C.3    94  ARG94       0.2205
     99  NE       -29.4220  -19.1690   32.6630 N.pl3  94  ARG94      -0.0865
    100  CZ       -28.5270  -19.4220   33.6110 C.cat  94  ARG94       0.5346
    101  NH1      -28.9070  -19.9830   34.7590 N.pl3  94  ARG94       0.1354
    102  NH2      -27.2500  -19.1160   33.4100 N.pl3  94  ARG94       0.1354
    103  N        -33.3440  -18.5330   28.5430 N.am   95  LEU95      -0.1980
    104  CA       -32.8640  -18.0080   27.2650 C.3    95  LEU95       0.1596
    105  C        -33.6560  -16.7830   26.8180 C.2    95  LEU95       0.2287
    106  O        -33.0780  -15.7990   26.3580 O.2    95  LEU95      -0.2864
    107  CB       -32.9140  -19.0820   26.1790 C.3    95  LEU95       0.0297
    108  CG       -31.7120  -20.0090   25.9790 C.3    95  LEU95       0.0022
    109  CD1      -32.0970  -21.1180   25.0100 C.3    95  LEU95       0.0001
    110  CD2      -30.4850  -19.2620   25.4700 C.3    95  LEU95       0.0001
    111  N        -32.7880  -13.8880   29.3290 N.3    98  SER98      -0.1202
    112  CA       -31.4130  -13.4140   29.1160 C.3    98  SER98       0.2020
    113  C        -31.2840  -12.4880   27.9110 C.2    98  SER98       0.2618
    114  O        -30.6390  -11.4360   27.9960 O.2    98  SER98      -0.2717
    115  CB       -30.4420  -14.5970   28.9630 C.3    98  SER98       0.2103
    116  OG       -30.3000  -15.2850   30.1950 O.3    98  SER98      -0.2182
    117  N        -31.8970  -12.8810   26.7950 N.am   99  HIS99      -0.1975
    118  CA       -31.8090  -12.1100   25.5620 C.3    99  HIS99       0.1656
    119  C        -32.5970  -10.8290   25.6330 C.2    99  HIS99       0.2291
    120  O        -32.1240   -9.7810   25.1900 O.2    99  HIS99      -0.2864
    121  CB       -32.2170  -12.9520   24.3550 C.3    99  HIS99       0.0771
    122  CG       -31.1790  -13.9540   23.9850 C.ar   99  HIS99       0.0820
    123  ND1      -31.1580  -15.2280   24.5110 N.ar   99  HIS99      -0.2267
    124  CD2      -30.0730  -13.8430   23.2130 C.ar   99  HIS99       0.1154
    125  CE1      -30.1030  -15.8730   24.0480 C.ar   99  HIS99       0.1986
    126  NE2      -29.4270  -15.0540   23.2590 N.ar   99  HIS99      -0.2212
    127  N        -30.9090   -8.2020   27.6320 N.3   102  TYR102     -0.1241
    128  CA       -29.8880   -7.4990   26.8600 C.3   102  TYR102      0.1605
    129  C        -30.4220   -6.7410   25.6380 C.2   102  TYR102      0.2264
    130  O        -29.6500   -6.1770   24.8710 O.2   102  TYR102     -0.2867
    131  CB       -28.7480   -8.4500   26.4960 C.3   102  TYR102      0.0534
    132  CG       -27.7740   -8.6150   27.6360 C.ar  102  TYR102     -0.0201
    133  CD1      -27.9900   -9.5570   28.6400 C.ar  102  TYR102     -0.0009
    134  CD2      -26.6510   -7.7960   27.7330 C.ar  102  TYR102     -0.0009
    135  CE1      -27.1030   -9.6820   29.7000 C.ar  102  TYR102      0.0417
    136  CE2      -25.7580   -7.9250   28.7860 C.ar  102  TYR102      0.0417
    137  CZ       -25.9890   -8.8620   29.7620 C.ar  102  TYR102      0.1957
    138  OH       -25.0960   -8.9720   30.8030 O.3   102  TYR102     -0.2866
    139  N        -32.0930   -7.7650   22.9410 N.3   104  VAL104     -0.1245
    140  CA       -32.0450   -8.4760   21.6700 C.3   104  VAL104      0.1561
    141  C        -33.4310   -8.4390   21.0170 C.2   104  VAL104      0.2260
    142  O        -34.4370   -8.7460   21.6570 O.2   104  VAL104     -0.2867
    143  CB       -31.5620   -9.9310   21.8680 C.3   104  VAL104      0.0252
    144  CG1      -31.5500  -10.6980   20.5500 C.3   104  VAL104      0.0019
    145  CG2      -30.1770   -9.9440   22.5060 C.3   104  VAL104      0.0019
    146  N        -31.5900   -8.3570   15.3350 N.3   108  HIS108     -0.1226
    147  CA       -30.3470   -8.9910   15.7820 C.3   108  HIS108      0.1752
    148  C        -30.3280  -10.4660   15.3850 C.2   108  HIS108      0.2596
    149  O        -29.3000  -10.9750   14.9500 O.2   108  HIS108     -0.2718
    150  CB       -30.1430   -8.8410   17.2960 C.3   108  HIS108      0.0759
    151  CG       -30.0970   -7.4210   17.7690 C.ar  108  HIS108      0.0818
    152  ND1      -30.8370   -6.9710   18.8430 N.ar  108  HIS108     -0.2268
    153  CD2      -29.4010   -6.3510   17.3200 C.ar  108  HIS108      0.1154
    154  CE1      -30.6080   -5.6840   19.0280 C.ar  108  HIS108      0.1986
    155  NE2      -29.7390   -5.2840   18.1180 N.ar  108  HIS108     -0.2212
    156  N        -31.4700  -11.1370   15.5380 N.am  109  PHE109     -0.1976
    157  CA       -31.6060  -12.5310   15.1260 C.3   109  PHE109      0.1639
    158  C        -31.4900  -12.6880   13.6130 C.2   109  PHE109      0.2290
    159  O        -30.9110  -13.6670   13.1190 O.2   109  PHE109     -0.2864
    160  CB       -32.9450  -13.1090   15.5830 C.3   109  PHE109      0.0560
    161  CG       -33.0410  -13.3500   17.0650 C.ar  109  PHE109     -0.0200
    162  CD1      -32.1850  -14.2520   17.6980 C.ar  109  PHE109     -0.0042
    163  CD2      -34.0150  -12.7040   17.8230 C.ar  109  PHE109     -0.0042
    164  CE1      -32.2870  -14.4920   19.0580 C.ar  109  PHE109     -0.0003
    165  CE2      -34.1190  -12.9370   19.1850 C.ar  109  PHE109     -0.0003
    166  CZ       -33.2580  -13.8350   19.8050 C.ar  109  PHE109     -0.0000
    167  N        -27.7120  -12.0990   12.7640 N.3   112  ALA112     -0.1245
    168  CA       -27.0040  -13.3190   13.1580 C.3   112  ALA112      0.1562
    169  C        -27.2470  -14.4760   12.1920 C.2   112  ALA112      0.2260
    170  O        -26.3090  -15.2040   11.8500 O.2   112  ALA112     -0.2867
    171  CB       -27.3590  -13.7210   14.5780 C.3   112  ALA112      0.0290
    172  N        -32.2700  -22.8640   12.5280 N.3   140  TYR140     -0.1241
    173  CA       -32.1150  -21.5780   13.1980 C.3   140  TYR140      0.1605
    174  C        -33.4760  -20.9250   13.4580 C.2   140  TYR140      0.2264
    175  O        -33.7930  -20.5710   14.6020 O.2   140  TYR140     -0.2867
    176  CB       -31.2100  -20.6610   12.3820 C.3   140  TYR140      0.0534
    177  CG       -30.8970  -19.3220   13.0230 C.ar  140  TYR140     -0.0201
    178  CD1      -31.7490  -18.2350   12.8500 C.ar  140  TYR140     -0.0009
    179  CD2      -29.7290  -19.1340   13.7740 C.ar  140  TYR140     -0.0009
    180  CE1      -31.4660  -16.9940   13.4090 C.ar  140  TYR140      0.0417
    181  CE2      -29.4350  -17.8960   14.3440 C.ar  140  TYR140      0.0417
    182  CZ       -30.3140  -16.8260   14.1500 C.ar  140  TYR140      0.1957
    183  OH       -30.0550  -15.5870   14.6840 O.3   140  TYR140     -0.2866
    184  N        -35.5170  -22.6480   16.2630 N.3   143  LEU143     -0.1231
    185  CA       -34.8530  -22.3990   17.5470 C.3   143  LEU143      0.1693
    186  C        -35.1880  -20.9890   18.0260 C.2   143  LEU143      0.2591
    187  O        -35.6810  -20.8010   19.1410 O.2   143  LEU143     -0.2718
    188  CB       -33.3320  -22.5300   17.4210 C.3   143  LEU143      0.0284
    189  CG       -32.4880  -23.0230   18.6110 C.3   143  LEU143      0.0019
    190  CD1      -31.0620  -22.5160   18.5000 C.3   143  LEU143      0.0001
    191  CD2      -33.0550  -22.7180   19.9960 C.3   143  LEU143      0.0001
    192  N        -34.9240  -20.0070   17.1640 N.am  144  VAL144     -0.1980
    193  CA       -35.2170  -18.6070   17.4640 C.3   144  VAL144      0.1595
    194  C        -36.7150  -18.3340   17.6930 C.2   144  VAL144      0.2287
    195  O        -37.0590  -17.5540   18.5710 O.2   144  VAL144     -0.2864
    196  CB       -34.6410  -17.6670   16.3880 C.3   144  VAL144      0.0276
    197  CG1      -35.0620  -16.2300   16.6520 C.3   144  VAL144      0.0022
    198  CG2      -33.1330  -17.7870   16.3690 C.3   144  VAL144      0.0022
    199  N        -37.2780  -19.3440   21.3230 N.3   147  ILE147     -0.1245
    200  CA       -36.7020  -18.3700   22.2530 C.3   147  ILE147      0.1561
    201  C        -37.5260  -17.0840   22.2780 C.2   147  ILE147      0.2260
    202  O        -37.8140  -16.5500   23.3500 O.2   147  ILE147     -0.2867
    203  CB       -35.2460  -18.0180   21.9030 C.3   147  ILE147      0.0252
    204  CG1      -34.3500  -19.2680   21.9650 C.3   147  ILE147      0.0019
    205  CG2      -34.7400  -16.9170   22.8370 C.3   147  ILE147      0.0019
    206  CD1      -33.0390  -19.1220   21.2190 C.3   147  ILE147      0.0001
@<TRIPOS>BOND
     1   170   169    2
     2   169   168    1
     3   176   177    1
     4   176   173    1
     5    12    13    1
     6   172   173    1
     7   167   168    1
     8   178   177   ar
     9   178   180   ar
    10   177   179   ar
    11   159   158    2
    12   168   171    1
    13    13    14    1
    14    13    16    1
    15   173   174    1
    16   180   182   ar
    17    15    14    2
    18   174   175    2
    19   158   157    1
    20   179   181   ar
    21    17    16    1
    22    17    19    1
    23   182   181   ar
    24   182   183    1
    25    16    18    1
    26    90    91    1
    27    90    87    1
    28    89    88    2
    29   149   148    2
    30     3     4    2
    31     3     2    1
    32     1     2    1
    33   157   156    1
    34   157   160    1
    35   146   147    1
    36    88    87    1
    37   148   156   am
    38   148   147    1
    39   160   161    1
    40     2     5    1
    41   147   150    1
    42    87    86    1
    43   184   185    1
    44    76    75    1
    45   198   196    1
    46   196   197    1
    47   196   193    1
    48    74    73    2
    49   161   162   ar
    50   161   163   ar
    51    25    24    1
    52    86    80   am
    53     5     6    1
    54   192   193    1
    55   192   186   am
    56   150   151    1
    57    26    24    1
    58   153   151   ar
    59   153   155   ar
    60   188   185    1
    61   188   189    1
    62    73    72    1
    63   193   194    1
    64   185   186    1
    65    75    72    1
    66    75    77    1
    67   194   195    2
    68   162   164   ar
    69   151   152   ar
    70   163   165   ar
    71   186   187    2
    72    24    21    1
    73     6     7   ar
    74     6     8   ar
    75   155   154   ar
    76    81    80    2
    77    80    79    1
    78    20    21    1
    79     7     9   ar
    80    72    71    1
    81   190   189    1
    82   189   191    1
    83     8    10   ar
    84   152   154   ar
    85    21    22    1
    86   164   166   ar
    87     9    11   ar
    88   165   166   ar
    89    78    79    1
    90    79    82    1
    91    71    67   am
    92    10    11   ar
    93    22    23    2
    94    68    67    2
    95    67    66    1
    96    82    83    1
    97   144   143    1
    98    63    61   ar
    99    63    64   ar
   100    58    57    2
   101   141   142    2
   102   141   140    1
   103    61    60   ar
   104   206   204    1
   105    65    66    1
   106   199   200    1
   107    57    56    1
   108    66    69    1
   109   140   143    1
   110   140   139    1
   111    34    33    1
   112    33    32    1
   113    83    84    1
   114   143   145    1
   115   203   204    1
   116   203   200    1
   117   203   205    1
   118    44    42   ar
   119    44    45   ar
   120    64    62   ar
   121   200   201    1
   122   201   202    2
   123    60    59    1
   124    60    62   ar
   125    42    40   ar
   126    69    70    1
   127    56    59    1
   128    56    55    1
   129    45    43   ar
   130    84    85    1
   131    32    31    1
   132   124   126   ar
   133   124   122   ar
   134   126   125   ar
   135    31    28    1
   136    40    39    1
   137    40    41   ar
   138    27    28    1
   139    39    36    1
   140    43    41   ar
   141   122   121    1
   142   122   123   ar
   143   125   123   ar
   144   121   118    1
   145    28    29    1
   146    49    48    2
   147    35    36    1
   148    35    29   am
   149    48    47    1
   150   130   129    2
   151    36    37    1
   152   109   108    1
   153    29    30    2
   154   120   119    2
   155    37    38    2
   156   110   108    1
   157   118   119    1
   158   118   117    1
   159   129   128    1
   160   108   107    1
   161   107   104    1
   162    47    46    1
   163    47    50    1
   164   106   105    2
   165   131   128    1
   166   131   132    1
   167   117   113   am
   168   105   104    1
   169   128   127    1
   170    50    51    1
   171   104   103    1
   172   132   134   ar
   173   132   133   ar
   174   134   136   ar
   175   113   114    2
   176   113   112    1
   177    51    52    1
   178   103    94   am
   179   133   135   ar
   180   136   137   ar
   181   115   112    1
   182   115   116    1
   183    52    53    1
   184   112   111    1
   185    94    95    2
   186    94    93    1
   187   135   137   ar
   188   137   138    1
   189    53    54    1
   190    92    93    1
   191    93    96    1
   192    96    97    1
   193    97    98    1
   194    99    98    1
   195    99   100    2
   196   102   100    1
   197   100   101    1
