@<TRIPOS>MOLECULE
tmp/3zhxA00.pdb
 150 141 0 0 0
SMALL
GASTEIGER

@<TRIPOS>ATOM
      1  N         17.5550   21.3220   -4.4830 N.3   118  LYS118     -0.1245
      2  CA        18.0560   19.9460   -4.5560 C.3   118  LYS118      0.1561
      3  C         18.4740   19.3900   -3.1990 C.2   118  LYS118      0.2260
      4  O         18.2480   18.2180   -2.9080 O.2   118  LYS118     -0.2867
      5  CB        19.2190   19.8380   -5.5440 C.3   118  LYS118      0.0271
      6  CG        18.7900   19.9600   -6.9930 C.3   118  LYS118      0.0035
      7  CD        19.8560   19.4430   -7.9590 C.3   118  LYS118      0.0206
      8  CE        19.4130   19.6470   -9.4060 C.3   118  LYS118      0.1093
      9  NZ        18.0340   19.1220   -9.6630 N.3   118  LYS118     -0.1314
     10  N         12.6340   20.7310  -11.3680 N.3   141  ASP141     -0.1225
     11  CA        13.7360   20.5010  -12.2920 C.3   141  ASP141      0.1805
     12  C         13.2180   19.9640  -13.6280 C.2   141  ASP141      0.2598
     13  O         12.2960   19.1420  -13.6580 O.2   141  ASP141     -0.2718
     14  CB        14.7690   19.5420  -11.6920 C.3   141  ASP141      0.1424
     15  CG        16.1520   19.7380  -12.2910 C.2   141  ASP141      0.3668
     16  OD1       16.4010   20.8200  -12.8510 O.co2 141  ASP141     -0.2456
     17  OD2       16.9940   18.8240  -12.2080 O.co2 141  ASP141     -0.2456
     18  N         13.8010   20.4330  -14.7280 N.am  142  SER142     -0.1938
     19  CA        13.3520   20.0090  -16.0540 C.3   142  SER142      0.2055
     20  C         13.2880   18.4740  -16.2150 C.2   142  SER142      0.2642
     21  O         12.3210   17.9550  -16.7760 O.2   142  SER142     -0.2714
     22  CB        14.2240   20.6320  -17.1400 C.3   142  SER142      0.2130
     23  OG        15.5580   20.1800  -17.0230 O.3   142  SER142     -0.2179
     24  N         14.3040   17.7600  -15.7230 N.am  143  GLU143     -0.1976
     25  CA        14.3690   16.2980  -15.8950 C.3   143  GLU143      0.1602
     26  C         13.2430   15.5900  -15.1590 C.2   143  GLU143      0.2287
     27  O         12.6080   14.6940  -15.7170 O.2   143  GLU143     -0.2864
     28  CB        15.7080   15.7110  -15.4490 C.3   143  GLU143      0.0415
     29  CG        16.9030   16.1170  -16.3040 C.3   143  GLU143      0.1163
     30  CD        17.4140   17.4940  -15.9480 C.2   143  GLU143      0.3649
     31  OE1       16.8540   18.0970  -15.0070 O.co2 143  GLU143     -0.2457
     32  OE2       18.3620   17.9740  -16.6040 O.co2 143  GLU143     -0.2457
     33  N         18.2690   12.6520  -19.3090 N.3   165  THR165     -0.1203
     34  CA        19.2150   13.1970  -20.2620 C.3   165  THR165      0.1994
     35  C         20.1880   14.1270  -19.5310 C.2   165  THR165      0.2618
     36  O         19.8170   14.8010  -18.5700 O.2   165  THR165     -0.2717
     37  CB        18.5070   13.9530  -21.3970 C.3   165  THR165      0.1784
     38  OG1       17.5760   14.8890  -20.8380 O.3   165  THR165     -0.2211
     39  CG2       17.7640   12.9680  -22.3090 C.3   165  THR165      0.0376
     40  N         21.4370   14.1390  -19.9790 N.am  166  ALA166     -0.1965
     41  CA        22.4510   15.0350  -19.4230 C.3   166  ALA166      0.1728
     42  C         23.0840   15.7920  -20.5710 C.2   166  ALA166      0.2617
     43  O         23.3810   15.1920  -21.6030 O.2   166  ALA166     -0.2715
     44  CB        23.5240   14.2320  -18.6680 C.3   166  ALA166      0.0334
     45  N         23.3080   17.0920  -20.3920 N.am  167  SER167     -0.1936
     46  CA        23.9640   17.8940  -21.4350 C.3   167  SER167      0.2055
     47  C         25.3340   17.3240  -21.7950 C.2   167  SER167      0.2643
     48  O         25.7330   17.3490  -22.9580 O.2   167  SER167     -0.2714
     49  CB        24.0990   19.3570  -21.0140 C.3   167  SER167      0.2130
     50  OG        25.1620   19.5250  -20.0840 O.3   167  SER167     -0.2179
     51  N         26.0270   16.7800  -20.7950 N.am  168  GLY168     -0.1954
     52  CA        27.4110   16.3580  -20.9530 C.3   168  GLY168      0.1869
     53  C         28.4060   17.4400  -20.5470 C.2   168  GLY168      0.2309
     54  O         29.6090   17.1860  -20.4550 O.2   168  GLY168     -0.2863
     55  N         25.6270   25.4720   -9.8440 N.3   192  ASN192     -0.1240
     56  CA        24.9220   24.6040  -10.7910 C.3   192  ASN192      0.1653
     57  C         25.7210   24.3570  -12.0860 C.2   192  ASN192      0.2266
     58  O         25.7150   23.2470  -12.6160 O.2   192  ASN192     -0.2867
     59  CB        23.4820   25.0880  -11.0670 C.3   192  ASN192      0.1155
     60  CG        23.4180   26.3490  -11.9330 C.2   192  ASN192      0.2627
     61  OD1       22.6270   26.4220  -12.8760 O.2   192  ASN192     -0.2716
     62  ND2       24.2390   27.3450  -11.6110 N.am  192  ASN192     -0.0877
     63  N         27.0990   20.9150  -13.4540 N.3   196  SER196     -0.1217
     64  CA        26.7490   20.4880  -14.8060 C.3   196  SER196      0.1889
     65  C         27.9930   19.9630  -15.5190 C.2   196  SER196      0.2288
     66  O         27.9530   18.8890  -16.1290 O.2   196  SER196     -0.2866
     67  CB        26.1150   21.6390  -15.6020 C.3   196  SER196      0.2089
     68  OG        25.8650   21.2490  -16.9410 O.3   196  SER196     -0.2183
     69  N         29.4160   16.6530  -13.9970 N.3   199  LEU199     -0.1245
     70  CA        28.3770   15.6070  -14.0050 C.3   199  LEU199      0.1561
     71  C         27.8180   15.2850  -12.6240 C.2   199  LEU199      0.2260
     72  O         26.9750   14.3900  -12.4810 O.2   199  LEU199     -0.2867
     73  CB        28.8190   14.3310  -14.7390 C.3   199  LEU199      0.0270
     74  CG        28.5350   14.2450  -16.2490 C.3   199  LEU199      0.0019
     75  CD1       27.0230   14.1750  -16.5610 C.3   199  LEU199      0.0001
     76  CD2       29.2140   15.3810  -17.0410 C.3   199  LEU199      0.0001
     77  N         25.8500   17.2540  -11.0580 N.3   201  ASN201     -0.1225
     78  CA        24.4400   17.6040  -11.1240 C.3   201  ASN201      0.1785
     79  C         23.5710   16.4100  -11.5040 C.2   201  ASN201      0.2597
     80  O         22.5110   16.1910  -10.9120 O.2   201  ASN201     -0.2718
     81  CB        24.1530   18.7820  -12.0550 C.3   201  ASN201      0.1169
     82  CG        22.6800   19.1320  -12.0800 C.2   201  ASN201      0.2627
     83  OD1       22.1120   19.5690  -11.0670 O.2   201  ASN201     -0.2716
     84  ND2       22.0340   18.9020  -13.2220 N.am  201  ASN201     -0.0877
     85  N         24.0190   15.6380  -12.4860 N.am  202  LYS202     -0.1980
     86  CA        23.2630   14.4630  -12.8930 C.3   202  LYS202      0.1596
     87  C         23.2160   13.4400  -11.7660 C.2   202  LYS202      0.2287
     88  O         22.1690   12.8630  -11.5010 O.2   202  LYS202     -0.2864
     89  CB        23.8390   13.8390  -14.1550 C.3   202  LYS202      0.0298
     90  CG        22.7710   13.1710  -15.0310 C.3   202  LYS202      0.0038
     91  CD        21.5540   14.0860  -15.3040 C.3   202  LYS202      0.0206
     92  CE        21.9480   15.4510  -15.8800 C.3   202  LYS202      0.1093
     93  NZ        20.7580   16.2820  -16.2610 N.3   202  LYS202     -0.1314
     94  N         20.6640   14.4910   -9.4950 N.3   205  GLU205     -0.1245
     95  CA        19.3440   14.2890  -10.0930 C.3   205  GLU205      0.1567
     96  C         18.9150   12.8250  -10.0980 C.2   205  GLU205      0.2260
     97  O         17.7330   12.5390  -10.0210 O.2   205  GLU205     -0.2867
     98  CB        19.3000   14.8600  -11.5060 C.3   205  GLU205      0.0388
     99  CG        19.0610   16.3440  -11.5050 C.3   205  GLU205      0.1160
    100  CD        19.3170   17.0070  -12.8460 C.2   205  GLU205      0.3649
    101  OE1       19.5180   16.3140  -13.8710 O.co2 205  GLU205     -0.2457
    102  OE2       19.3240   18.2480  -12.8570 O.co2 205  GLU205     -0.2457
    103  N         21.9020   18.7290  -26.9690 N.3   227  GLN227     -0.1231
    104  CA        20.9140   19.7590  -27.3060 C.3   227  GLN227      0.1698
    105  C         20.0370   20.1290  -26.1260 C.2   227  GLN227      0.2592
    106  O         19.4540   21.2180  -26.1130 O.2   227  GLN227     -0.2718
    107  CB        20.0180   19.3090  -28.4670 C.3   227  GLN227      0.0381
    108  CG        20.7130   19.2580  -29.8220 C.3   227  GLN227      0.0905
    109  CD        21.6260   18.0660  -29.9440 C.2   227  GLN227      0.2608
    110  OE1       21.3360   16.9890  -29.4180 O.2   227  GLN227     -0.2717
    111  NE2       22.7470   18.2480  -30.6340 N.am  227  GLN227     -0.0878
    112  N         19.9230   19.2140  -25.1550 N.am  228  SER228     -0.1952
    113  CA        19.0400   19.3840  -23.9920 C.3   228  SER228      0.1924
    114  C         17.6130   19.7720  -24.3980 C.2   228  SER228      0.2314
    115  O         17.0110   20.6380  -23.7820 O.2   228  SER228     -0.2863
    116  CB        19.6030   20.4360  -23.0180 C.3   228  SER228      0.2116
    117  OG        20.9460   20.1410  -22.6590 O.3   228  SER228     -0.2180
    118  N         14.2090   16.2190  -22.3600 N.3   231  HIS231     -0.1241
    119  CA        14.5350   16.4890  -20.9490 C.3   231  HIS231      0.1621
    120  C         14.5540   15.2510  -20.0490 C.2   231  HIS231      0.2264
    121  O         15.0240   15.2960  -18.9140 O.2   231  HIS231     -0.2867
    122  CB        13.6120   17.5780  -20.3990 C.3   231  HIS231      0.0745
    123  CG        13.7340   18.8680  -21.1430 C.ar  231  HIS231      0.0817
    124  ND1       14.8850   19.6280  -21.1210 N.ar  231  HIS231     -0.2268
    125  CD2       12.8750   19.5060  -21.9720 C.ar  231  HIS231      0.1154
    126  CE1       14.7240   20.6860  -21.8970 C.ar  231  HIS231      0.1986
    127  NE2       13.5150   20.6320  -22.4290 N.ar  231  HIS231     -0.2212
    128  N         14.8940   24.3890  -24.2350 N.3   248  PRO248     -0.2102
    129  CA        15.1870   24.5960  -22.8140 C.3   248  PRO248      0.1504
    130  C         14.5560   25.9030  -22.3080 C.2   248  PRO248      0.2576
    131  O         14.8030   26.9690  -22.8670 O.2   248  PRO248     -0.2718
    132  CB        16.7230   24.6870  -22.7760 C.3   248  PRO248      0.0282
    133  CG        17.1960   24.0770  -24.0210 C.3   248  PRO248      0.0208
    134  CD        16.1200   24.2530  -25.0480 C.3   248  PRO248      0.0893
    135  N         13.7080   25.8140  -21.2950 N.am  249  ASP249     -0.1960
    136  CA        13.0230   26.9790  -20.7450 C.3   249  ASP249      0.1840
    137  C         12.3530   26.5260  -19.4670 C.2   249  ASP249      0.2621
    138  O         11.3740   25.7790  -19.5130 O.2   249  ASP249     -0.2715
    139  CB        11.9640   27.5150  -21.7230 C.3   249  ASP249      0.1450
    140  CG        11.2480   28.7550  -21.2050 C.2   249  ASP249      0.3671
    141  OD1       11.2950   29.0270  -19.9890 O.co2 249  ASP249     -0.2456
    142  OD2       10.6100   29.4500  -22.0120 O.co2 249  ASP249     -0.2456
    143  N         12.8800   26.9860  -18.3360 N.am  250  MET250     -0.1977
    144  CA        12.3740   26.5830  -17.0280 C.3   250  MET250      0.1605
    145  C         10.9210   26.9670  -16.7570 C.2   250  MET250      0.2287
    146  O         10.3030   26.3880  -15.8680 O.2   250  MET250     -0.2864
    147  CB        13.2800   27.0880  -15.8960 C.3   250  MET250      0.0413
    148  CG        14.5890   26.3340  -15.7540 C.3   250  MET250      0.0598
    149  SD        14.4110   24.5290  -15.6680 S.3   250  MET250     -0.1393
    150  CE        13.6160   24.3270  -14.0820 C.3   250  MET250      0.0692
@<TRIPOS>BOND
     1   111   109   am
     2   109   108    1
     3   109   110    2
     4   108   107    1
     5   107   104    1
     6   104   103    1
     7   104   105    1
     8   105   106    2
     9   105   112   am
    10   112   113    1
    11   134   128    1
    12   134   133    1
    13   114   113    1
    14   114   115    2
    15   128   129    1
    16   133   132    1
    17   113   116    1
    18   116   117    1
    19    48    47    2
    20   131   130    2
    21   129   132    1
    22   129   130    1
    23   127   125   ar
    24   127   126   ar
    25   118   119    1
    26    39    37    1
    27   130   135   am
    28   142   140   ar
    29   125   123   ar
    30   126   124   ar
    31    47    46    1
    32    47    51   am
    33   139   140    1
    34   139   136    1
    35    43    42    2
    36    46    49    1
    37    46    45    1
    38    37    38    1
    39    37    34    1
    40   135   136    1
    41   140   141   ar
    42   123   124   ar
    43   123   122    1
    44    49    50    1
    45    52    51    1
    46    52    53    1
    47   119   122    1
    48   119   120    1
    49   136   137    1
    50    42    45   am
    51    42    41    1
    52    53    54    2
    53    34    35    1
    54    34    33    1
    55   120   121    2
    56    40    35   am
    57    40    41    1
    58    35    36    2
    59   138   137    2
    60   137   143   am
    61    41    44    1
    62   143   144    1
    63    22    23    1
    64    22    19    1
    65    76    74    1
    66   144   145    1
    67   144   147    1
    68    68    67    1
    69    21    20    2
    70   145   146    2
    71    32    30   ar
    72    75    74    1
    73    29    30    1
    74    29    28    1
    75    93    92    1
    76    74    73    1
    77    20    19    1
    78    20    24   am
    79    66    65    2
    80    19    18    1
    81    30    31   ar
    82   147   148    1
    83    25    24    1
    84    25    28    1
    85    25    26    1
    86    92    91    1
    87   148   149    1
    88    27    26    2
    89   149   150    1
    90    67    64    1
    91    65    64    1
    92    91    90    1
    93    90    89    1
    94    64    63    1
    95    73    70    1
    96    18    12   am
    97    89    86    1
    98    70    69    1
    99    70    71    1
   100   101   100   ar
   101    13    12    2
   102    12    11    1
   103    84    82   am
   104    86    85    1
   105    86    87    1
   106    61    60    2
   107   102   100   ar
   108    16    15   ar
   109   100    99    1
   110    71    72    2
   111    58    57    2
   112    85    79   am
   113    11    14    1
   114    11    10    1
   115    15    17   ar
   116    15    14    1
   117    57    56    1
   118    82    81    1
   119    82    83    2
   120    81    78    1
   121    60    62   am
   122    60    59    1
   123    87    88    2
   124    98    99    1
   125    98    95    1
   126    79    78    1
   127    79    80    2
   128    78    77    1
   129    59    56    1
   130    56    55    1
   131    96    95    1
   132    96    97    2
   133    95    94    1
   134     9     8    1
   135     8     7    1
   136     7     6    1
   137     6     5    1
   138     5     2    1
   139     2     1    1
   140     2     3    1
   141     3     4    2
