@<TRIPOS>MOLECULE
tmp/3zhzA00.pdb
 169 158 0 0 0
SMALL
GASTEIGER

@<TRIPOS>ATOM
      1  N         17.2170   33.0390  -10.8160 N.3    13  SER13      -0.1202
      2  CA        16.6850   32.7930  -12.1430 C.3    13  SER13       0.2020
      3  C         15.3200   32.0730  -12.0940 C.2    13  SER13       0.2618
      4  O         14.3690   32.4760  -12.7660 O.2    13  SER13      -0.2717
      5  CB        17.7000   31.9830  -12.9670 C.3    13  SER13       0.2103
      6  OG        17.3200   31.9360  -14.3340 O.3    13  SER13      -0.2182
      7  N         15.2390   31.0090  -11.2990 N.am   14  ILE14      -0.1979
      8  CA        13.9940   30.2460  -11.1380 C.3    14  ILE14       0.1595
      9  C         12.9220   31.1570  -10.5410 C.2    14  ILE14       0.2287
     10  O         11.8330   31.3240  -11.1120 O.2    14  ILE14      -0.2864
     11  CB        14.2110   28.9660  -10.2830 C.3    14  ILE14       0.0276
     12  CG1       15.2730   28.0420  -10.9170 C.3    14  ILE14       0.0022
     13  CG2       12.8850   28.2250  -10.0220 C.3    14  ILE14       0.0022
     14  CD1       14.9290   27.4970  -12.3070 C.3    14  ILE14       0.0001
     15  N         18.9910   28.1950   -2.8540 N.3    88  VAL88      -0.1245
     16  CA        20.1490   27.4260   -3.3070 C.3    88  VAL88       0.1561
     17  C         20.8160   26.6710   -2.1410 C.2    88  VAL88       0.2260
     18  O         20.8840   27.1660   -1.0120 O.2    88  VAL88      -0.2867
     19  CB        21.1410   28.3140   -4.1340 C.3    88  VAL88       0.0252
     20  CG1       22.5370   27.6690   -4.2610 C.3    88  VAL88       0.0019
     21  CG2       20.5550   28.6200   -5.5270 C.3    88  VAL88       0.0019
     22  N         16.8460   20.7660   -5.2890 N.3   111  LYS111     -0.1245
     23  CA        16.9360   19.2980   -5.2030 C.3   111  LYS111      0.1561
     24  C         17.8700   18.8050   -4.0880 C.2   111  LYS111      0.2260
     25  O         17.8070   17.6370   -3.6820 O.2   111  LYS111     -0.2867
     26  CB        17.2810   18.6630   -6.5700 C.3   111  LYS111      0.0271
     27  CG        18.7530   18.7370   -6.9980 C.3   111  LYS111      0.0035
     28  CD        18.9160   18.5230   -8.5110 C.3   111  LYS111      0.0206
     29  CE        18.9550   19.8590   -9.2650 C.3   111  LYS111      0.1093
     30  NZ        18.7290   19.6960  -10.7330 N.3   111  LYS111     -0.1314
     31  N         12.8380   20.9390  -11.7210 N.3   134  ASP134     -0.1225
     32  CA        13.8320   20.7300  -12.7580 C.3   134  ASP134      0.1805
     33  C         13.2030   20.1070  -14.0090 C.2   134  ASP134      0.2598
     34  O         12.1900   19.4250  -13.9410 O.2   134  ASP134     -0.2718
     35  CB        14.9790   19.8420  -12.2450 C.3   134  ASP134      0.1424
     36  CG        14.4940   18.4800  -11.7830 C.2   134  ASP134      0.3668
     37  OD1       13.7440   18.4060  -10.7770 O.co2 134  ASP134     -0.2456
     38  OD2       14.8570   17.4770  -12.4340 O.co2 134  ASP134     -0.2456
     39  N         13.8420   20.3180  -15.1460 N.am  135  SER135     -0.1938
     40  CA        13.2700   19.9180  -16.4100 C.3   135  SER135      0.2055
     41  C         13.2170   18.3770  -16.5880 C.2   135  SER135      0.2642
     42  O         12.2530   17.8370  -17.1420 O.2   135  SER135     -0.2714
     43  CB        14.0400   20.6030  -17.5310 C.3   135  SER135      0.2130
     44  OG        15.2900   19.9540  -17.6570 O.3   135  SER135     -0.2179
     45  N         14.2380   17.6820  -16.0820 N.am  136  GLU136     -0.1976
     46  CA        14.3370   16.2330  -16.2000 C.3   136  GLU136      0.1602
     47  C         13.2150   15.5160  -15.4440 C.2   136  GLU136      0.2287
     48  O         12.5920   14.5840  -15.9750 O.2   136  GLU136     -0.2864
     49  CB        15.7030   15.7310  -15.7110 C.3   136  GLU136      0.0415
     50  CG        16.9140   16.2900  -16.4650 C.3   136  GLU136      0.1163
     51  CD        17.5040   17.5360  -15.7860 C.2   136  GLU136      0.3649
     52  OE1       16.7550   18.4950  -15.4820 O.co2 136  GLU136     -0.2457
     53  OE2       18.7310   17.5560  -15.5460 O.co2 136  GLU136     -0.2457
     54  N         18.3990   12.5510  -19.4570 N.3   158  THR158     -0.1203
     55  CA        19.3350   13.1340  -20.4100 C.3   158  THR158      0.1994
     56  C         20.2570   14.1240  -19.7070 C.2   158  THR158      0.2618
     57  O         19.8650   14.8180  -18.7760 O.2   158  THR158     -0.2717
     58  CB        18.6380   13.8540  -21.5870 C.3   158  THR158      0.1784
     59  OG1       17.7070   14.8140  -21.0740 O.3   158  THR158     -0.2211
     60  CG2       17.9240   12.8740  -22.4940 C.3   158  THR158      0.0376
     61  N         21.4960   14.1700  -20.1630 N.am  159  ALA159     -0.1965
     62  CA        22.4830   15.0750  -19.6140 C.3   159  ALA159      0.1728
     63  C         23.0370   15.8910  -20.7610 C.2   159  ALA159      0.2617
     64  O         23.3440   15.3490  -21.8300 O.2   159  ALA159     -0.2715
     65  CB        23.5940   14.2920  -18.9440 C.3   159  ALA159      0.0334
     66  N         23.1730   17.1900  -20.5470 N.am  160  SER160     -0.1936
     67  CA        23.7450   18.0330  -21.5750 C.3   160  SER160      0.2055
     68  C         25.1690   17.5250  -21.9010 C.2   160  SER160      0.2643
     69  O         25.5860   17.5220  -23.0540 O.2   160  SER160     -0.2714
     70  CB        23.7580   19.4850  -21.1110 C.3   160  SER160      0.2130
     71  OG        24.8620   19.6770  -20.2630 O.3   160  SER160     -0.2179
     72  N         25.8710   17.0380  -20.8730 N.am  161  GLY161     -0.1954
     73  CA        27.2660   16.6790  -21.0050 C.3   161  GLY161      0.1869
     74  C         28.2510   17.7750  -20.6220 C.2   161  GLY161      0.2309
     75  O         29.4430   17.5080  -20.4920 O.2   161  GLY161     -0.2863
     76  N         25.2340   24.9130   -9.8780 N.3   185  ASN185     -0.1225
     77  CA        24.2600   24.5090  -10.9140 C.3   185  ASN185      0.1785
     78  C         24.9150   24.3800  -12.3050 C.2   185  ASN185      0.2597
     79  O         24.7590   23.3560  -12.9770 O.2   185  ASN185     -0.2718
     80  CB        23.0150   25.4200  -10.9520 C.3   185  ASN185      0.1169
     81  CG        21.8900   24.9650   -9.9730 C.2   185  ASN185      0.2627
     82  OD1       21.5820   25.6540   -8.9850 O.2   185  ASN185     -0.2716
     83  ND2       21.2810   23.8060  -10.2500 N.am  185  ASN185     -0.0877
     84  N         25.6740   25.4010  -12.6990 N.am  186  THR186     -0.1953
     85  CA        26.4450   25.3900  -13.9410 C.3   186  THR186      0.1897
     86  C         27.7510   24.5850  -13.8390 C.2   186  THR186      0.2313
     87  O         28.1080   23.8430  -14.7580 O.2   186  THR186     -0.2863
     88  CB        26.7640   26.8220  -14.3960 C.3   186  THR186      0.1794
     89  OG1       25.6230   27.6540  -14.1550 O.3   186  THR186     -0.2208
     90  CG2       27.1080   26.8660  -15.8790 C.3   186  THR186      0.0378
     91  N         26.7070   20.9100  -13.6460 N.3   189  SER189     -0.1217
     92  CA        26.5100   20.4530  -15.0200 C.3   189  SER189      0.1889
     93  C         27.8320   20.0230  -15.6760 C.2   189  SER189      0.2288
     94  O         27.9130   18.9330  -16.2560 O.2   189  SER189     -0.2866
     95  CB        25.7920   21.5120  -15.8620 C.3   189  SER189      0.2089
     96  OG        25.6380   21.0800  -17.2060 O.3   189  SER189     -0.2183
     97  N         29.1990   16.8090  -14.0650 N.3   192  LEU192     -0.1245
     98  CA        28.2130   15.7220  -14.0650 C.3   192  LEU192      0.1561
     99  C         27.6220   15.3980  -12.6820 C.2   192  LEU192      0.2260
    100  O         26.8230   14.4530  -12.5570 O.2   192  LEU192     -0.2867
    101  CB        28.7550   14.4590  -14.7410 C.3   192  LEU192      0.0270
    102  CG        28.5240   14.3400  -16.2560 C.3   192  LEU192      0.0019
    103  CD1       27.0620   14.0770  -16.5810 C.3   192  LEU192      0.0001
    104  CD2       29.0690   15.5600  -17.0470 C.3   192  LEU192      0.0001
    105  N         25.4700   17.2890  -11.2130 N.3   194  ASN194     -0.1225
    106  CA        24.0430   17.5710  -11.3040 C.3   194  ASN194      0.1785
    107  C         23.2670   16.3100  -11.6780 C.2   194  ASN194      0.2597
    108  O         22.2410   15.9740  -11.0570 O.2   194  ASN194     -0.2718
    109  CB        23.7250   18.7200  -12.2490 C.3   194  ASN194      0.1169
    110  CG        22.2480   19.0030  -12.3130 C.2   194  ASN194      0.2627
    111  OD1       21.6540   19.4920  -11.3430 O.2   194  ASN194     -0.2716
    112  ND2       21.6230   18.6450  -13.4410 N.am  194  ASN194     -0.0877
    113  N         23.7880   15.5790  -12.6580 N.am  195  LYS195     -0.1980
    114  CA        23.1450   14.3370  -13.0680 C.3   195  LYS195      0.1596
    115  C         23.0810   13.3260  -11.9190 C.2   195  LYS195      0.2287
    116  O         22.0540   12.6860  -11.7180 O.2   195  LYS195     -0.2864
    117  CB        23.8510   13.7440  -14.2860 C.3   195  LYS195      0.0298
    118  CG        22.9230   13.0690  -15.2870 C.3   195  LYS195      0.0038
    119  CD        21.5690   13.7870  -15.4910 C.3   195  LYS195      0.0206
    120  CE        21.7340   15.1760  -16.0300 C.3   195  LYS195      0.1093
    121  NZ        20.4110   15.7810  -16.3060 N.3   195  LYS195     -0.1314
    122  N         20.5350   14.2170   -9.6780 N.3   198  GLU198     -0.1245
    123  CA        19.2780   13.8530  -10.3210 C.3   198  GLU198      0.1567
    124  C         18.9590   12.3680  -10.3290 C.2   198  GLU198      0.2260
    125  O         17.8020   11.9990  -10.1390 O.2   198  GLU198     -0.2867
    126  CB        19.1670   14.5040  -11.6990 C.3   198  GLU198      0.0388
    127  CG        18.9380   15.9860  -11.5120 C.3   198  GLU198      0.1160
    128  CD        18.7510   16.7470  -12.7770 C.2   198  GLU198      0.3649
    129  OE1       19.3340   16.3490  -13.8240 O.co2 198  GLU198     -0.2457
    130  OE2       18.0150   17.7630  -12.7190 O.co2 198  GLU198     -0.2457
    131  N         19.9850   19.5390  -25.3540 N.3   221  SER221     -0.1217
    132  CA        19.0860   19.7520  -24.2050 C.3   221  SER221      0.1889
    133  C         17.6520   20.0530  -24.6410 C.2   221  SER221      0.2288
    134  O         17.0390   20.9590  -24.1230 O.2   221  SER221     -0.2866
    135  CB        19.6040   20.8910  -23.3080 C.3   221  SER221      0.2089
    136  OG        20.9020   20.5890  -22.8230 O.3   221  SER221     -0.2183
    137  N         14.3380   16.2520  -22.5800 N.3   224  HIS224     -0.1241
    138  CA        14.6560   16.5320  -21.1770 C.3   224  HIS224      0.1621
    139  C         14.7040   15.3020  -20.2710 C.2   224  HIS224      0.2264
    140  O         15.3090   15.3480  -19.2180 O.2   224  HIS224     -0.2867
    141  CB        13.6920   17.5770  -20.6450 C.3   224  HIS224      0.0745
    142  CG        13.7780   18.8780  -21.3810 C.ar  224  HIS224      0.0817
    143  ND1       14.9590   19.5830  -21.5060 N.ar  224  HIS224     -0.2268
    144  CD2       12.8440   19.5830  -22.0570 C.ar  224  HIS224      0.1154
    145  CE1       14.7480   20.6610  -22.2340 C.ar  224  HIS224      0.1986
    146  NE2       13.4730   20.6870  -22.5750 N.ar  224  HIS224     -0.2212
    147  N         15.0400   24.6790  -24.4490 N.3   241  PRO241     -0.2102
    148  CA        15.3070   24.8850  -23.0220 C.3   241  PRO241      0.1504
    149  C         14.6830   26.2000  -22.5060 C.2   241  PRO241      0.2576
    150  O         15.0400   27.2810  -22.9850 O.2   241  PRO241     -0.2718
    151  CB        16.8390   24.9440  -22.9420 C.3   241  PRO241      0.0282
    152  CG        17.3450   24.4260  -24.2450 C.3   241  PRO241      0.0208
    153  CD        16.2570   24.4710  -25.2530 C.3   241  PRO241      0.0893
    154  N         13.7620   26.1050  -21.5470 N.am  242  ASP242     -0.1960
    155  CA        13.0740   27.2740  -21.0000 C.3   242  ASP242      0.1840
    156  C         12.4030   26.8330  -19.7180 C.2   242  ASP242      0.2621
    157  O         11.4020   26.1110  -19.7390 O.2   242  ASP242     -0.2715
    158  CB        12.0430   27.8120  -22.0050 C.3   242  ASP242      0.1450
    159  CG        11.3430   29.0890  -21.5340 C.2   242  ASP242      0.3671
    160  OD1       11.4300   29.4390  -20.3470 O.co2 242  ASP242     -0.2456
    161  OD2       10.6660   29.7430  -22.3530 O.co2 242  ASP242     -0.2456
    162  N         12.9630   27.2690  -18.6020 N.am  243  MET243     -0.1977
    163  CA        12.5030   26.8820  -17.2690 C.3   243  MET243      0.1605
    164  C         11.0350   27.1690  -16.9540 C.2   243  MET243      0.2287
    165  O         10.4430   26.4560  -16.1500 O.2   243  MET243     -0.2864
    166  CB        13.4110   27.4800  -16.1820 C.3   243  MET243      0.0413
    167  CG        14.8300   26.9170  -16.2080 C.3   243  MET243      0.0598
    168  SD        14.8660   25.1050  -16.3470 S.3   243  MET243     -0.1393
    169  CE        14.1820   24.5410  -14.7630 C.3   243  MET243      0.0692
@<TRIPOS>BOND
     1   131   132    1
     2   153   147    1
     3   153   152    1
     4   133   132    1
     5   133   134    2
     6   147   148    1
     7   152   151    1
     8   132   135    1
     9   135   136    1
    10    69    68    2
    11   148   151    1
    12   148   149    1
    13   150   149    2
    14   137   138    1
    15   146   145   ar
    16   146   144   ar
    17   149   154   am
    18    60    58    1
    19   161   159   ar
    20   145   143   ar
    21   144   142   ar
    22   158   159    1
    23   158   155    1
    24    68    67    1
    25    68    72   am
    26    64    63    2
    27    58    59    1
    28    58    55    1
    29    67    70    1
    30    67    66    1
    31   154   155    1
    32   159   160   ar
    33   143   142   ar
    34   142   141    1
    35   138   141    1
    36   138   139    1
    37    70    71    1
    38    73    72    1
    39    73    74    1
    40   155   156    1
    41    63    66   am
    42    63    62    1
    43    74    75    2
    44    55    56    1
    45    55    54    1
    46   139   140    2
    47    61    56   am
    48    61    62    1
    49   157   156    2
    50   156   162   am
    51    56    57    2
    52    62    65    1
    53   162   163    1
    54    44    43    1
    55    43    40    1
    56   163   164    1
    57   163   166    1
    58    96    95    1
    59    42    41    2
    60   104   102    1
    61   164   165    2
    62    41    40    1
    63    41    45   am
    64   103   102    1
    65    50    51    1
    66    50    49    1
    67    40    39    1
    68   168   167    1
    69   168   169    1
    70   121   120    1
    71   102   101    1
    72    94    93    2
    73   167   166    1
    74    46    45    1
    75    46    49    1
    76    46    47    1
    77   120   119    1
    78    48    47    2
    79    90    88    1
    80    95    92    1
    81    51    53   ar
    82    51    52   ar
    83    93    92    1
    84   119   118    1
    85   118   117    1
    86    39    33   am
    87    92    91    1
    88    87    86    2
    89   101    98    1
    90    88    89    1
    91    88    85    1
    92     6     5    1
    93   117   114    1
    94    97    98    1
    95    98    99    1
    96    33    34    2
    97    33    32    1
    98    85    86    1
    99    85    84    1
   100   129   128   ar
   101   112   110   am
   102   114   113    1
   103   114   115    1
   104    79    78    2
   105     5     2    1
   106   128   130   ar
   107   128   127    1
   108     4     3    2
   109    32    35    1
   110    32    31    1
   111    84    78   am
   112    99   100    2
   113   113   107   am
   114    38    36   ar
   115   110   109    1
   116   110   111    2
   117    14    12    1
   118    78    77    1
   119   109   106    1
   120    35    36    1
   121     2     3    1
   122     2     1    1
   123     3     7   am
   124   115   116    2
   125    36    37   ar
   126   126   127    1
   127   126   123    1
   128   107   106    1
   129   107   108    2
   130   106   105    1
   131     7     8    1
   132     8     9    1
   133     8    11    1
   134    10     9    2
   135    80    77    1
   136    80    81    1
   137    12    11    1
   138    77    76    1
   139    30    29    1
   140   124   123    1
   141   124   125    2
   142   123   122    1
   143    11    13    1
   144    83    81   am
   145    81    82    2
   146    29    28    1
   147    28    27    1
   148    27    26    1
   149    26    23    1
   150    21    19    1
   151    22    23    1
   152    23    24    1
   153    20    19    1
   154    19    16    1
   155    24    25    2
   156    16    15    1
   157    16    17    1
   158    17    18    2
