@<TRIPOS>MOLECULE
tmp/3zi0A00.pdb
 130 123 0 0 0
SMALL
GASTEIGER

@<TRIPOS>ATOM
      1  N         33.7870   20.8070   30.3840 N.3   129  ASP129     -0.1225
      2  CA        34.8650   20.3980   29.4890 C.3   129  ASP129      0.1805
      3  C         34.2900   19.8560   28.1870 C.2   129  ASP129      0.2598
      4  O         33.3740   19.0430   28.2130 O.2   129  ASP129     -0.2718
      5  CB        35.6940   19.2890   30.1370 C.3   129  ASP129      0.1424
      6  CG        37.0840   19.7450   30.5320 C.2   129  ASP129      0.3668
      7  OD1       37.7810   20.3460   29.6790 O.co2 129  ASP129     -0.2456
      8  OD2       37.4910   19.4820   31.6880 O.co2 129  ASP129     -0.2456
      9  N         34.8330   20.3020   27.0610 N.am  130  SER130     -0.1938
     10  CA        34.3600   19.8510   25.7520 C.3   130  SER130      0.2055
     11  C         34.3650   18.3170   25.6060 C.2   130  SER130      0.2642
     12  O         33.4470   17.7490   25.0140 O.2   130  SER130     -0.2714
     13  CB        35.1780   20.5090   24.6400 C.3   130  SER130      0.2130
     14  OG        36.5200   20.0710   24.7020 O.3   130  SER130     -0.2179
     15  N         35.3800   17.6520   26.1570 N.am  131  GLU131     -0.1976
     16  CA        35.4750   16.1910   26.0770 C.3   131  GLU131      0.1602
     17  C         34.3330   15.5040   26.8310 C.2   131  GLU131      0.2287
     18  O         33.7060   14.5920   26.2980 O.2   131  GLU131     -0.2864
     19  CB        36.8360   15.6770   26.5640 C.3   131  GLU131      0.0415
     20  CG        38.0240   16.1330   25.7230 C.3   131  GLU131      0.1163
     21  CD        38.4540   17.5730   26.0030 C.2   131  GLU131      0.3649
     22  OE1       37.9720   18.1790   26.9910 O.co2 131  GLU131     -0.2457
     23  OE2       39.2750   18.1100   25.2160 O.co2 131  GLU131     -0.2457
     24  N         39.3930   12.0360   22.7060 N.3   153  THR153     -0.1203
     25  CA        40.3920   12.5130   21.7610 C.3   153  THR153      0.1994
     26  C         41.3630   13.4670   22.4590 C.2   153  THR153      0.2618
     27  O         40.9820   14.2060   23.3770 O.2   153  THR153     -0.2717
     28  CB        39.7610   13.2290   20.5470 C.3   153  THR153      0.1784
     29  OG1       38.8810   14.2650   21.0130 O.3   153  THR153     -0.2211
     30  CG2       38.9670   12.2290   19.6870 C.3   153  THR153      0.0376
     31  N         42.6160   13.4400   22.0100 N.am  154  ALA154     -0.1965
     32  CA        43.6360   14.3710   22.4960 C.3   154  ALA154      0.1728
     33  C         44.2830   15.0630   21.3050 C.2   154  ALA154      0.2617
     34  O         44.5390   14.4240   20.2790 O.2   154  ALA154     -0.2715
     35  CB        44.6830   13.6320   23.3100 C.3   154  ALA154      0.0334
     36  N         44.5260   16.3600   21.4150 N.am  155  SER155     -0.1936
     37  CA        45.2230   17.0690   20.3250 C.3   155  SER155      0.2055
     38  C         46.5950   16.4470   20.0970 C.2   155  SER155      0.2643
     39  O         47.0750   16.3780   18.9610 O.2   155  SER155     -0.2714
     40  CB        45.3610   18.5580   20.6090 C.3   155  SER155      0.2130
     41  OG        46.3340   18.8130   21.6090 O.3   155  SER155     -0.2179
     42  N         47.2010   15.9590   21.1840 N.am  156  GLY156     -0.1954
     43  CA        48.5530   15.4050   21.1360 C.3   156  GLY156      0.1869
     44  C         49.6300   16.4390   21.4320 C.2   156  GLY156      0.2309
     45  O         50.8020   16.0860   21.5560 O.2   156  GLY156     -0.2863
     46  N         47.6320   25.0960   31.8290 N.3   179  ASN179     -0.1225
     47  CA        46.6100   24.4250   31.0290 C.3   179  ASN179      0.1785
     48  C         47.1540   24.0080   29.6620 C.2   179  ASN179      0.2597
     49  O         46.9240   22.8890   29.1960 O.2   179  ASN179     -0.2718
     50  CB        45.4020   25.3470   30.8610 C.3   179  ASN179      0.1169
     51  CG        44.2600   24.6830   30.1260 C.2   179  ASN179      0.2627
     52  OD1       44.0090   23.4870   30.2880 O.2   179  ASN179     -0.2716
     53  ND2       43.5530   25.4610   29.3120 N.am  179  ASN179     -0.0877
     54  N         47.8830   24.9240   29.0350 N.am  180  THR180     -0.1953
     55  CA        48.5780   24.6740   27.7770 C.3   180  THR180      0.1897
     56  C         49.6680   23.6110   27.9590 C.2   180  THR180      0.2313
     57  O         49.8040   22.6880   27.1440 O.2   180  THR180     -0.2863
     58  CB        49.1760   25.9920   27.2500 C.3   180  THR180      0.1794
     59  OG1       48.1130   26.9300   27.0420 O.3   180  THR180     -0.2208
     60  CG2       49.9130   25.7830   25.9460 C.3   180  THR180      0.0378
     61  N         48.2760   20.1630   28.2780 N.3   183  SER183     -0.1217
     62  CA        47.9760   19.6410   26.9380 C.3   183  SER183      0.1889
     63  C         49.2340   19.0760   26.2750 C.2   183  SER183      0.2288
     64  O         49.1940   17.9990   25.6630 O.2   183  SER183     -0.2866
     65  CB        47.3490   20.7440   26.0640 C.3   183  SER183      0.2089
     66  OG        47.3430   20.3670   24.6850 O.3   183  SER183     -0.2183
     67  N         50.2120   15.7650   28.0190 N.3   186  LEU186     -0.1245
     68  CA        49.1240   14.7710   28.0550 C.3   186  LEU186      0.1561
     69  C         48.5310   14.5430   29.4550 C.2   186  LEU186      0.2260
     70  O         47.6680   13.6760   29.6320 O.2   186  LEU186     -0.2867
     71  CB        49.5350   13.4390   27.3940 C.3   186  LEU186      0.0270
     72  CG        49.3340   13.2750   25.8670 C.3   186  LEU186      0.0019
     73  CD1       47.8530   13.2120   25.4890 C.3   186  LEU186      0.0001
     74  CD2       50.0620   14.3400   25.0580 C.3   186  LEU186      0.0001
     75  N         46.6260   16.7950   30.9110 N.3   188  ASN188     -0.1225
     76  CA        45.2390   17.2290   30.7330 C.3   188  ASN188      0.1785
     77  C         44.3020   16.0530   30.4420 C.2   188  ASN188      0.2597
     78  O         43.2340   15.9330   31.0630 O.2   188  ASN188     -0.2718
     79  CB        45.1070   18.2800   29.6290 C.3   188  ASN188      0.1169
     80  CG        43.6850   18.7970   29.4880 C.2   188  ASN188      0.2627
     81  OD1       43.1350   19.3980   30.4160 O.2   188  ASN188     -0.2716
     82  ND2       43.0860   18.5740   28.3210 N.am  188  ASN188     -0.0877
     83  N         44.7110   15.1850   29.5160 N.am  189  LYS189     -0.1980
     84  CA        43.9060   14.0200   29.1460 C.3   189  LYS189      0.1596
     85  C         43.8500   13.0050   30.2830 C.2   189  LYS189      0.2287
     86  O         42.8250   12.3580   30.4990 O.2   189  LYS189     -0.2864
     87  CB        44.4630   13.3540   27.8860 C.3   189  LYS189      0.0298
     88  CG        43.4030   12.7450   26.9680 C.3   189  LYS189      0.0038
     89  CD        42.2660   13.6970   26.6080 C.3   189  LYS189      0.0206
     90  CE        42.7530   15.0120   26.0210 C.3   189  LYS189      0.1093
     91  NZ        41.6320   15.9120   25.6390 N.3   189  LYS189     -0.1314
     92  N         41.3660   18.3400   16.5760 N.3   215  SER215     -0.1217
     93  CA        40.4770   18.7130   17.6920 C.3   215  SER215      0.1889
     94  C         39.0580   19.0630   17.2310 C.2   215  SER215      0.2288
     95  O         38.4160   19.9820   17.7670 O.2   215  SER215     -0.2866
     96  CB        41.0730   19.8600   18.5330 C.3   215  SER215      0.2089
     97  OG        42.2630   19.4420   19.1770 O.3   215  SER215     -0.2183
     98  N         35.5120   15.6990   19.6170 N.3   218  HIS218     -0.1241
     99  CA        35.8750   16.0020   21.0220 C.3   218  HIS218      0.1621
    100  C         35.7770   14.8470   21.9720 C.2   218  HIS218      0.2264
    101  O         36.2590   14.9300   23.1140 O.2   218  HIS218     -0.2867
    102  CB        35.0780   17.2010   21.5210 C.3   218  HIS218      0.0745
    103  CG        35.2820   18.4280   20.6760 C.ar  218  HIS218      0.0817
    104  ND1       36.4520   19.0870   20.6360 N.ar  218  HIS218     -0.2268
    105  CD2       34.4310   19.0860   19.8010 C.ar  218  HIS218      0.1154
    106  CE1       36.3530   20.1190   19.7800 C.ar  218  HIS218      0.1986
    107  NE2       35.1230   20.1120   19.2610 N.ar  218  HIS218     -0.2212
    108  N         36.5790   23.9560   17.5030 N.3   235  PRO235     -0.2102
    109  CA        36.7850   24.2200   18.9340 C.3   235  PRO235      0.1504
    110  C         36.2560   25.5960   19.3250 C.2   235  PRO235      0.2576
    111  O         36.6040   26.5980   18.6940 O.2   235  PRO235     -0.2718
    112  CB        38.3030   24.1480   19.0920 C.3   235  PRO235      0.0282
    113  CG        38.7510   23.2470   17.9930 C.3   235  PRO235      0.0208
    114  CD        37.8150   23.4960   16.8390 C.3   235  PRO235      0.0893
    115  N         35.3700   25.6140   20.3150 N.am  236  ASP236     -0.1960
    116  CA        34.7540   26.8370   20.8290 C.3   236  ASP236      0.1840
    117  C         34.0750   26.4100   22.1170 C.2   236  ASP236      0.2621
    118  O         33.1100   25.6470   22.0790 O.2   236  ASP236     -0.2715
    119  CB        33.7120   27.3720   19.8390 C.3   236  ASP236      0.1450
    120  CG        33.0790   28.6920   20.2870 C.2   236  ASP236      0.3671
    121  OD1       33.0900   29.0370   21.4920 O.co2 236  ASP236     -0.2456
    122  OD2       32.5490   29.3960   19.4120 O.co2 236  ASP236     -0.2456
    123  N         34.5700   26.9050   23.2500 N.am  237  MET237     -0.1977
    124  CA        34.0710   26.4850   24.5640 C.3   237  MET237      0.1605
    125  C         32.6410   26.9290   24.8610 C.2   237  MET237      0.2287
    126  O         32.0000   26.3900   25.7600 O.2   237  MET237     -0.2864
    127  CB        35.0110   26.9460   25.6800 C.3   237  MET237      0.0413
    128  CG        36.2730   26.1090   25.7990 C.3   237  MET237      0.0598
    129  SD        35.9180   24.3610   26.0610 S.3   237  MET237     -0.1393
    130  CE        35.0840   24.4050   27.6490 C.3   237  MET237      0.0692
@<TRIPOS>BOND
     1    92    93    1
     2   114   108    1
     3   114   113    1
     4    94    93    1
     5    94    95    2
     6   108   109    1
     7    93    96    1
     8   113   112    1
     9    96    97    1
    10   111   110    2
    11   109   112    1
    12   109   110    1
    13    39    38    2
    14   107   106   ar
    15   107   105   ar
    16   110   115   am
    17   122   120   ar
    18    98    99    1
    19    30    28    1
    20   106   104   ar
    21   105   103   ar
    22   119   120    1
    23   119   116    1
    24    38    37    1
    25    38    42   am
    26    34    33    2
    27   120   121   ar
    28   115   116    1
    29    37    40    1
    30    37    36    1
    31    28    29    1
    32    28    25    1
    33    40    41    1
    34   104   103   ar
    35   103   102    1
    36   116   117    1
    37    99   102    1
    38    99   100    1
    39    43    42    1
    40    43    44    1
    41    33    36   am
    42    33    32    1
    43    44    45    2
    44    25    26    1
    45    25    24    1
    46   100   101    2
    47    31    26   am
    48    31    32    1
    49   118   117    2
    50   117   123   am
    51    26    27    2
    52    32    35    1
    53   123   124    1
    54   124   125    1
    55   124   127    1
    56    13    14    1
    57    13    10    1
    58    66    65    1
    59   125   126    2
    60    12    11    2
    61    74    72    1
    62    23    21   ar
    63    73    72    1
    64    11    10    1
    65    11    15   am
    66    91    90    1
    67    64    63    2
    68   127   128    1
    69    20    21    1
    70    20    19    1
    71    10     9    1
    72   128   129    1
    73    72    71    1
    74    60    58    1
    75    21    22   ar
    76    90    89    1
    77   129   130    1
    78    65    62    1
    79    16    15    1
    80    16    19    1
    81    16    17    1
    82    63    62    1
    83    18    17    2
    84    89    88    1
    85    62    61    1
    86    88    87    1
    87    59    58    1
    88     9     3   am
    89    57    56    2
    90    58    55    1
    91    71    68    1
    92    55    56    1
    93    55    54    1
    94    87    84    1
    95    67    68    1
    96    68    69    1
    97     3     4    2
    98     3     2    1
    99    82    80   am
   100    54    48   am
   101    84    83    1
   102    84    85    1
   103    49    48    2
   104    53    51   am
   105    69    70    2
   106    80    79    1
   107    80    81    2
   108     2     5    1
   109     2     1    1
   110    83    77   am
   111    79    76    1
   112    48    47    1
   113     7     6   ar
   114    51    52    2
   115    51    50    1
   116     5     6    1
   117    85    86    2
   118    77    76    1
   119    77    78    2
   120     6     8   ar
   121    76    75    1
   122    50    47    1
   123    47    46    1
