@<TRIPOS>MOLECULE
tmp/3zi8A01.pdb
 99 96 0 0 0
SMALL
GASTEIGER

@<TRIPOS>ATOM
      1  N         31.5290   27.3150  -22.9450 N.3    10  TRP10      -0.1241
      2  CA        31.2030   26.7290  -24.2140 C.3    10  TRP10       0.1605
      3  C         31.0070   27.7850  -25.2700 C.2    10  TRP10       0.2264
      4  O         30.7830   28.9460  -24.9410 O.2    10  TRP10      -0.2867
      5  CB        29.8990   25.9320  -24.1300 C.3    10  TRP10       0.0550
      6  CG        28.6990   26.7730  -23.7830 C.ar   10  TRP10       0.0003
      7  CD1       27.8250   27.3580  -24.6600 C.ar   10  TRP10       0.0946
      8  CD2       28.2300   27.0940  -22.4730 C.ar   10  TRP10       0.0152
      9  NE1       26.8760   28.0400  -23.9710 N.ar   10  TRP10      -0.2442
     10  CE2       27.0900   27.8900  -22.6280 C.ar   10  TRP10       0.0810
     11  CE3       28.6660   26.7700  -21.1820 C.ar   10  TRP10       0.0012
     12  CZ2       26.3820   28.3910  -21.5400 C.ar   10  TRP10       0.0191
     13  CZ3       27.9630   27.2580  -20.1060 C.ar   10  TRP10       0.0001
     14  CH2       26.8420   28.0800  -20.2930 C.ar   10  TRP10       0.0015
     15  N         29.4210   29.3230  -17.2350 N.3    17  ALA17      -0.1245
     16  CA        28.5350   29.1410  -16.0970 C.3    17  ALA17       0.1562
     17  C         29.3690   28.7630  -14.9040 C.2    17  ALA17       0.2260
     18  O         30.1640   27.8410  -14.9810 O.2    17  ALA17      -0.2867
     19  CB        27.4970   28.0790  -16.3980 C.3    17  ALA17       0.0290
     20  N         23.7620   29.6430   -9.5500 N.3    28  GLU28      -0.1245
     21  CA        24.3820   29.7070  -10.8570 C.3    28  GLU28       0.1567
     22  C         24.5290   31.1340  -11.3260 C.2    28  GLU28       0.2260
     23  O         23.5890   31.9210  -11.2300 O.2    28  GLU28      -0.2867
     24  CB        23.5150   28.9280  -11.8260 C.3    28  GLU28       0.0388
     25  CG        23.9510   28.9390  -13.2730 C.3    28  GLU28       0.1160
     26  CD        22.9070   28.3250  -14.1790 C.2    28  GLU28       0.3649
     27  OE1       21.7100   28.4920  -13.8980 O.co2  28  GLU28      -0.2457
     28  OE2       23.2450   27.6640  -15.1590 O.co2  28  GLU28      -0.2457
     29  N         26.0500   33.2680  -14.8300 N.3    30  CYS30      -0.1235
     30  CA        26.3190   33.0400  -16.2110 C.3    30  CYS30       0.1677
     31  C         26.8570   34.2910  -16.8660 C.2    30  CYS30       0.2270
     32  O         26.4200   35.3940  -16.5610 O.2    30  CYS30      -0.2867
     33  CB        25.0130   32.7200  -16.9170 C.3    30  CYS30       0.0956
     34  SG        24.0560   31.3650  -16.2680 S.3    30  CYS30      -0.0801
     35  N         24.9210   37.3210  -15.0580 N.3    37  TYR37      -0.1241
     36  CA        23.5480   37.2690  -14.5550 C.3    37  TYR37       0.1605
     37  C         23.3040   35.9810  -13.7790 C.2    37  TYR37       0.2264
     38  O         24.0840   35.0550  -13.8520 O.2    37  TYR37      -0.2867
     39  CB        22.5050   37.4160  -15.6820 C.3    37  TYR37       0.0534
     40  CG        22.5320   36.3420  -16.7000 C.ar   37  TYR37      -0.0201
     41  CD1       23.3410   36.4410  -17.8210 C.ar   37  TYR37      -0.0009
     42  CD2       21.7130   35.2330  -16.5850 C.ar   37  TYR37      -0.0009
     43  CE1       23.3470   35.4520  -18.7840 C.ar   37  TYR37       0.0417
     44  CE2       21.7350   34.2370  -17.5280 C.ar   37  TYR37       0.0417
     45  CZ        22.5660   34.3650  -18.6240 C.ar   37  TYR37       0.1957
     46  OH        22.6140   33.3960  -19.5840 O.3    37  TYR37      -0.2866
     47  N         21.4710   32.6150  -13.0890 N.3    39  GLY39      -0.1210
     48  CA        20.7910   31.5700  -13.7870 C.3    39  GLY39       0.1956
     49  C         19.6430   31.0240  -12.9870 C.2    39  GLY39       0.2611
     50  O         19.4510   31.3900  -11.8280 O.2    39  GLY39      -0.2717
     51  N         18.8700   30.1490  -13.6220 N.am   40  ALA40      -0.1979
     52  CA        17.7180   29.5540  -12.9780 C.3    40  ALA40       0.1597
     53  C         18.0510   28.4670  -11.9670 C.2    40  ALA40       0.2287
     54  O         17.1920   28.1130  -11.1530 O.2    40  ALA40      -0.2864
     55  CB        16.7930   28.9490  -14.0270 C.3    40  ALA40       0.0319
     56  N         23.3240   23.9790  -25.2870 N.3    59  ILE59      -0.1245
     57  CA        24.3350   23.5160  -24.3320 C.3    59  ILE59       0.1561
     58  C         23.6630   22.4810  -23.4380 C.2    59  ILE59       0.2260
     59  O         22.5050   22.6080  -23.0680 O.2    59  ILE59      -0.2867
     60  CB        24.9600   24.6770  -23.5120 C.3    59  ILE59       0.0252
     61  CG1       26.1470   24.2190  -22.6500 C.3    59  ILE59       0.0019
     62  CG2       23.9080   25.3080  -22.6210 C.3    59  ILE59       0.0019
     63  CD1       27.3270   23.6990  -23.4240 C.3    59  ILE59       0.0001
     64  N         24.3160   20.6850  -19.9020 N.3    61  ILE61      -0.1245
     65  CA        25.0970   20.8660  -18.6610 C.3    61  ILE61       0.1561
     66  C         24.7020   19.7690  -17.7060 C.2    61  ILE61       0.2260
     67  O         23.5110   19.4320  -17.5740 O.2    61  ILE61      -0.2867
     68  CB        24.8860   22.2430  -17.9950 C.3    61  ILE61       0.0252
     69  CG1       25.1750   23.3490  -19.0240 C.3    61  ILE61       0.0019
     70  CG2       25.8140   22.4250  -16.7810 C.3    61  ILE61       0.0019
     71  CD1       24.8130   24.7470  -18.6090 C.3    61  ILE61       0.0001
     72  N         20.7020   20.0250  -17.6280 N.3    76  TRP76      -0.1241
     73  CA        20.1570   21.0630  -18.5210 C.3    76  TRP76       0.1605
     74  C         20.3300   20.5720  -19.9340 C.2    76  TRP76       0.2264
     75  O         21.4320   20.2370  -20.3120 O.2    76  TRP76      -0.2867
     76  CB        20.9060   22.3820  -18.3570 C.3    76  TRP76       0.0550
     77  CG        20.4560   23.4660  -19.2910 C.ar   76  TRP76       0.0003
     78  CD1       20.9820   23.7500  -20.4890 C.ar   76  TRP76       0.0946
     79  CD2       19.3340   24.3480  -19.1200 C.ar   76  TRP76       0.0152
     80  NE1       20.2980   24.7820  -21.0990 N.ar   76  TRP76      -0.2442
     81  CE2       19.2810   25.1620  -20.2520 C.ar   76  TRP76       0.0810
     82  CE3       18.4260   24.5670  -18.0900 C.ar   76  TRP76       0.0012
     83  CZ2       18.3330   26.1880  -20.3990 C.ar   76  TRP76       0.0191
     84  CZ3       17.4850   25.6020  -18.2380 C.ar   76  TRP76       0.0001
     85  CH2       17.4490   26.3770  -19.3720 C.ar   76  TRP76       0.0015
     86  N         15.9310   22.3200  -16.6440 N.3    81  TRP81      -0.1241
     87  CA        16.6270   21.4330  -15.6870 C.3    81  TRP81       0.1605
     88  C         15.7570   20.2710  -15.2900 C.2    81  TRP81       0.2264
     89  O         14.5870   20.4660  -14.9070 O.2    81  TRP81      -0.2867
     90  CB        17.0420   22.1830  -14.4100 C.3    81  TRP81       0.0550
     91  CG        18.0760   23.2030  -14.5980 C.ar   81  TRP81       0.0003
     92  CD1       17.8950   24.5800  -14.7180 C.ar   81  TRP81       0.0946
     93  CD2       19.4920   22.9940  -14.7020 C.ar   81  TRP81       0.0152
     94  NE1       19.0970   25.1910  -14.8980 N.ar   81  TRP81      -0.2442
     95  CE2       20.0940   24.2440  -14.8740 C.ar   81  TRP81       0.0810
     96  CE3       20.3130   21.8550  -14.6600 C.ar   81  TRP81       0.0012
     97  CZ2       21.4510   24.3970  -15.0060 C.ar   81  TRP81       0.0191
     98  CZ3       21.6790   22.0140  -14.7870 C.ar   81  TRP81       0.0001
     99  CH2       22.2380   23.2500  -14.9530 C.ar   81  TRP81       0.0015
@<TRIPOS>BOND
     1    56    57    1
     2     3     4    2
     3     3     2    1
     4     7     9   ar
     5     7     6   ar
     6    57    60    1
     7    57    58    1
     8     2     5    1
     9     2     1    1
    10     5     6    1
    11     9    10   ar
    12     6     8   ar
    13    60    61    1
    14    60    62    1
    15    58    59    2
    16    63    61    1
    17    10     8   ar
    18    10    12   ar
    19     8    11   ar
    20    12    14   ar
    21    11    13   ar
    22    80    78   ar
    23    80    81   ar
    24    78    77   ar
    25    83    81   ar
    26    83    85   ar
    27    75    74    2
    28    14    13   ar
    29    81    79   ar
    30    74    73    1
    31    64    65    1
    32    46    45    1
    33    85    84   ar
    34    77    79   ar
    35    77    76    1
    36    79    82   ar
    37    69    71    1
    38    69    68    1
    39    43    45   ar
    40    43    41   ar
    41    65    68    1
    42    65    66    1
    43    45    44   ar
    44    73    76    1
    45    73    72    1
    46    84    82   ar
    47    68    70    1
    48    41    40   ar
    49    66    67    2
    50    44    42   ar
    51    15    16    1
    52    33    34    1
    53    33    30    1
    54    31    32    2
    55    31    30    1
    56    40    42   ar
    57    40    39    1
    58    86    87    1
    59    19    16    1
    60    30    29    1
    61    16    17    1
    62    87    88    1
    63    87    90    1
    64    39    36    1
    65    88    89    2
    66    28    26   ar
    67    35    36    1
    68    97    99   ar
    69    97    95   ar
    70    18    17    2
    71    99    98   ar
    72    94    95   ar
    73    94    92   ar
    74    95    93   ar
    75    98    96   ar
    76    92    91   ar
    77    93    96   ar
    78    93    91   ar
    79    91    90    1
    80    36    37    1
    81    26    27   ar
    82    26    25    1
    83    55    52    1
    84    38    37    2
    85    48    47    1
    86    48    49    1
    87    51    49   am
    88    51    52    1
    89    25    24    1
    90    49    50    2
    91    52    53    1
    92    53    54    2
    93    24    21    1
    94    22    23    2
    95    22    21    1
    96    21    20    1
