@<TRIPOS>MOLECULE
tmp/3ziaC00.pdb
 152 147 0 0 0
SMALL
GASTEIGER

@<TRIPOS>ATOM
      1  N        128.2200   44.5240  167.1970 N.3   127  LEU127     -0.1245
      2  CA       127.0770   45.1240  167.8680 C.3   127  LEU127      0.1561
      3  C        127.2460   45.0030  169.3660 C.2   127  LEU127      0.2260
      4  O        127.3480   43.8960  169.9110 O.2   127  LEU127     -0.2867
      5  CB       125.7570   44.4690  167.4220 C.3   127  LEU127      0.0270
      6  CG       125.4110   44.5680  165.9290 C.3   127  LEU127      0.0019
      7  CD1      124.2350   43.6570  165.5800 C.3   127  LEU127      0.0001
      8  CD2      125.1350   46.0120  165.5160 C.3   127  LEU127      0.0001
      9  N        107.8440   41.5890  161.1670 N.3   148  ARG148     -0.1231
     10  CA       108.5050   42.2200  160.0370 C.3   148  ARG148      0.1694
     11  C        108.9880   43.6130  160.4220 C.2   148  ARG148      0.2592
     12  O        108.3570   44.2850  161.2470 O.2   148  ARG148     -0.2718
     13  CB       107.6140   42.2650  158.7890 C.3   148  ARG148      0.0321
     14  CG       108.4030   42.6580  157.5050 C.3   148  ARG148      0.0489
     15  CD       107.5700   42.7110  156.2110 C.3   148  ARG148      0.2205
     16  NE       108.4350   42.8510  155.0300 N.pl3 148  ARG148     -0.0865
     17  CZ       108.6160   43.9790  154.3360 C.cat 148  ARG148      0.5346
     18  NH1      107.9780   45.1060  154.6740 N.pl3 148  ARG148      0.1354
     19  NH2      109.4260   43.9770  153.2830 N.pl3 148  ARG148      0.1354
     20  N        110.1070   44.0300  159.8280 N.am  149  GLN149     -0.1966
     21  CA       110.6840   45.3720  160.0480 C.3   149  GLN149      0.1733
     22  C        111.0690   45.6300  161.5220 C.2   149  GLN149      0.2617
     23  O        110.8400   46.7160  162.0300 O.2   149  GLN149     -0.2715
     24  CB       109.7270   46.4740  159.5530 C.3   149  GLN149      0.0408
     25  CG       109.1820   46.2940  158.1430 C.3   149  GLN149      0.0908
     26  CD       109.9460   47.0730  157.0810 C.2   149  GLN149      0.2608
     27  OE1      111.1550   46.8780  156.8850 O.2   149  GLN149     -0.2717
     28  NE2      109.2300   47.9470  156.3670 N.am  149  GLN149     -0.0878
     29  N        111.6240   44.6260  162.2030 N.am  150  THR150     -0.1937
     30  CA       112.1000   44.7900  163.5690 C.3   150  THR150      0.2028
     31  C        113.6330   44.8440  163.6570 C.2   150  THR150      0.2643
     32  O        114.1810   45.0240  164.7400 O.2   150  THR150     -0.2714
     33  CB       111.5610   43.7080  164.5160 C.3   150  THR150      0.1808
     34  OG1      111.8550   42.4080  163.9870 O.3   150  THR150     -0.2208
     35  CG2      110.0410   43.8500  164.7290 C.3   150  THR150      0.0379
     36  N        114.3170   44.6910  162.5250 N.am  151  GLY151     -0.1939
     37  CA       115.7660   44.8220  162.4580 C.3   151  GLY151      0.2014
     38  C        116.5230   43.5290  162.1790 C.2   151  GLY151      0.2639
     39  O        117.7530   43.4720  162.3380 O.2   151  GLY151     -0.2714
     40  N        115.8090   42.4950  161.7410 N.am  152  LYS152     -0.1963
     41  CA       116.3960   41.1650  161.6030 C.3   152  LYS152      0.1728
     42  C        117.4840   41.1060  160.5360 C.2   152  LYS152      0.2617
     43  O        118.6050   40.6720  160.8040 O.2   152  LYS152     -0.2715
     44  CB       115.3200   40.1180  161.3670 C.3   152  LYS152      0.0311
     45  CG       114.2340   40.1010  162.4480 C.3   152  LYS152      0.0038
     46  CD       113.2470   38.9410  162.2770 C.3   152  LYS152      0.0206
     47  CE       112.6160   38.9210  160.8800 C.3   152  LYS152      0.1093
     48  NZ       111.6600   40.0260  160.6520 N.3   152  LYS152     -0.1314
     49  N        117.1780   41.5550  159.3310 N.am  153  THR153     -0.1937
     50  CA       118.2070   41.6190  158.3100 C.3   153  THR153      0.2028
     51  C        119.3620   42.5440  158.7430 C.2   153  THR153      0.2642
     52  O        120.5200   42.2110  158.5400 O.2   153  THR153     -0.2714
     53  CB       117.6190   41.9910  156.9530 C.3   153  THR153      0.1808
     54  OG1      116.7250   40.9530  156.5740 O.3   153  THR153     -0.2208
     55  CG2      118.6820   42.0520  155.8980 C.3   153  THR153      0.0379
     56  N        119.0370   43.6750  159.3700 N.am  154  ALA154     -0.1977
     57  CA       120.0440   44.6430  159.8410 C.3   154  ALA154      0.1597
     58  C        121.0940   44.0100  160.7530 C.2   154  ALA154      0.2287
     59  O        122.2950   44.1530  160.4910 O.2   154  ALA154     -0.2864
     60  CB       119.3910   45.8170  160.5290 C.3   154  ALA154      0.0319
     61  N        125.0310   43.9280  159.4880 N.3   158  ASP158     -0.1239
     62  CA       126.1060   44.5310  160.2580 C.3   158  ASP158      0.1674
     63  C        127.2100   43.5050  160.5450 C.2   158  ASP158      0.2266
     64  O        128.3880   43.7740  160.2910 O.2   158  ASP158     -0.2867
     65  CB       125.5630   45.1410  161.5460 C.3   158  ASP158      0.1410
     66  CG       124.8100   46.4550  161.3010 C.2   158  ASP158      0.3668
     67  OD1      124.9960   47.0680  160.2230 O.co2 158  ASP158     -0.2456
     68  OD2      124.0250   46.8680  162.1850 O.co2 158  ASP158     -0.2456
     69  N        117.6790   33.9700  155.1290 N.3   246  ASP246     -0.1239
     70  CA       116.7760   35.0910  155.2990 C.3   246  ASP246      0.1674
     71  C        115.6160   35.0060  154.2930 C.2   246  ASP246      0.2266
     72  O        115.7180   35.5390  153.1940 O.2   246  ASP246     -0.2867
     73  CB       117.5780   36.3930  155.1350 C.3   246  ASP246      0.1410
     74  CG       116.8730   37.6160  155.7280 C.2   246  ASP246      0.3668
     75  OD1      115.7800   37.4800  156.3430 O.co2 246  ASP246     -0.2456
     76  OD2      117.4220   38.7320  155.5460 O.co2 246  ASP246     -0.2456
     77  N        110.4510   34.9550  160.7710 N.3   305  GLU305     -0.1245
     78  CA       109.5440   36.0940  160.8490 C.3   305  GLU305      0.1567
     79  C        108.2490   35.7010  161.5310 C.2   305  GLU305      0.2260
     80  O        107.5020   34.8780  161.0370 O.2   305  GLU305     -0.2867
     81  CB       109.2560   36.6320  159.4630 C.3   305  GLU305      0.0388
     82  CG       108.3530   37.8510  159.4450 C.3   305  GLU305      0.1160
     83  CD       108.6730   38.7920  158.2870 C.2   305  GLU305      0.3649
     84  OE1      109.6910   39.5530  158.3780 O.co2 305  GLU305     -0.2457
     85  OE2      107.9010   38.7470  157.2870 O.co2 305  GLU305     -0.2457
     86  N        111.7420   48.4910  169.1420 N.3   334  PHE334     -0.1241
     87  CA       112.1100   49.1020  167.8540 C.3   334  PHE334      0.1605
     88  C        111.3600   50.4040  167.5470 C.2   334  PHE334      0.2264
     89  O        111.8750   51.2640  166.8200 O.2   334  PHE334     -0.2867
     90  CB       111.8920   48.0840  166.7350 C.3   334  PHE334      0.0534
     91  CG       112.1810   48.5990  165.3370 C.ar  334  PHE334     -0.0203
     92  CD1      111.1700   49.2210  164.5790 C.ar  334  PHE334     -0.0042
     93  CD2      113.4350   48.4110  164.7540 C.ar  334  PHE334     -0.0042
     94  CE1      111.4190   49.6840  163.2820 C.ar  334  PHE334     -0.0003
     95  CE2      113.6930   48.8600  163.4520 C.ar  334  PHE334     -0.0003
     96  CZ       112.6820   49.5030  162.7160 C.ar  334  PHE334     -0.0000
     97  N        117.5270   50.5990  169.2660 N.3   339  ARG339     -0.1231
     98  CA       117.9160   49.7200  168.1810 C.3   339  ARG339      0.1679
     99  C        119.3990   49.3950  168.2970 C.2   339  ARG339      0.2434
    100  O        120.2150   50.3040  168.4980 O.2   339  ARG339     -0.2733
    101  CB       117.5630   50.3420  166.8230 C.3   339  ARG339      0.0321
    102  CG       116.0820   50.7620  166.6940 C.3   339  ARG339      0.0489
    103  CD       115.7080   51.2390  165.2830 C.3   339  ARG339      0.2205
    104  NE       114.3230   51.7190  165.2080 N.pl3 339  ARG339     -0.0865
    105  CZ       113.7780   52.3020  164.1370 C.cat 339  ARG339      0.5346
    106  NH1      114.4790   52.4790  163.0120 N.pl3 339  ARG339      0.1354
    107  NH2      112.5180   52.7110  164.1850 N.pl3 339  ARG339      0.1354
    108  N        119.7580   48.1000  168.1690 N.am  340  PRO340     -0.2729
    109  CA       118.8710   46.9840  167.8360 C.3   340  PRO340      0.1401
    110  C        117.8340   46.7140  168.9170 C.2   340  PRO340      0.2269
    111  O        118.0730   46.9710  170.0920 O.2   340  PRO340     -0.2865
    112  CB       119.8320   45.8000  167.7140 C.3   340  PRO340      0.0296
    113  CG       121.1830   46.4120  167.5110 C.3   340  PRO340      0.0237
    114  CD       121.1520   47.6490  168.3260 C.3   340  PRO340      0.0939
    115  N        122.5960   51.6350  168.9750 N.3   407  GLN407     -0.1231
    116  CA       123.6280   51.6380  167.9590 C.3   407  GLN407      0.1698
    117  C        123.0070   51.8720  166.5930 C.2   407  GLN407      0.2592
    118  O        122.0390   51.2120  166.2210 O.2   407  GLN407     -0.2718
    119  CB       124.3690   50.2940  167.9860 C.3   407  GLN407      0.0381
    120  CG       125.6000   50.2040  167.0940 C.3   407  GLN407      0.0905
    121  CD       126.5030   49.0310  167.4550 C.2   407  GLN407      0.2608
    122  OE1      126.2680   48.3210  168.4430 O.2   407  GLN407     -0.2717
    123  NE2      127.5480   48.8270  166.6560 N.am  407  GLN407     -0.0878
    124  N        123.5600   52.8160  165.8460 N.am  408  ASN408     -0.1960
    125  CA       123.1180   53.0430  164.4820 C.3   408  ASN408      0.1819
    126  C        123.4040   51.8330  163.5850 C.2   408  ASN408      0.2621
    127  O        124.1960   50.9520  163.9260 O.2   408  ASN408     -0.2715
    128  CB       123.7800   54.2970  163.8980 C.3   408  ASN408      0.1195
    129  CG       123.4950   55.5500  164.7070 C.2   408  ASN408      0.2630
    130  OD1      122.6680   55.5500  165.6260 O.2   408  ASN408     -0.2716
    131  ND2      124.1880   56.6310  164.3670 N.am  408  ASN408     -0.0877
    132  N        122.7490   51.8050  162.4350 N.am  409  GLN409     -0.1963
    133  CA       122.9270   50.7450  161.4650 C.3   409  GLN409      0.1733
    134  C        124.1760   50.9990  160.6200 C.2   409  GLN409      0.2616
    135  O        124.5890   52.1420  160.4400 O.2   409  GLN409     -0.2715
    136  CB       121.6910   50.6810  160.5720 C.3   409  GLN409      0.0408
    137  CG       121.4330   49.3420  159.9240 C.3   409  GLN409      0.0908
    138  CD       120.1530   49.3340  159.1290 C.2   409  GLN409      0.2608
    139  OE1      119.2940   50.1900  159.3140 O.2   409  GLN409     -0.2717
    140  NE2      120.0160   48.3640  158.2350 N.am  409  GLN409     -0.0878
    141  N        124.7620   49.9220  160.1030 N.am  410  TYR410     -0.1974
    142  CA       125.9520   49.9720  159.2420 C.3   410  TYR410      0.1639
    143  C        127.1770   50.5510  159.9550 C.2   410  TYR410      0.2290
    144  O        128.1040   51.0630  159.3100 O.2   410  TYR410     -0.2864
    145  CB       125.6840   50.7240  157.9240 C.3   410  TYR410      0.0560
    146  CG       124.3290   50.4760  157.2880 C.ar  410  TYR410     -0.0198
    147  CD1      124.0250   49.2520  156.6860 C.ar  410  TYR410     -0.0009
    148  CD2      123.3580   51.4800  157.2680 C.ar  410  TYR410     -0.0009
    149  CE1      122.7780   49.0300  156.0960 C.ar  410  TYR410      0.0417
    150  CE2      122.1140   51.2720  156.6800 C.ar  410  TYR410      0.0417
    151  CZ       121.8270   50.0440  156.0960 C.ar  410  TYR410      0.1957
    152  OH       120.5920   49.8320  155.5150 O.3   410  TYR410     -0.2866
@<TRIPOS>BOND
     1    72    71    2
     2    19    17    1
     3    71    70    1
     4    17    18    1
     5    17    16    2
     6    16    15    1
     7    69    70    1
     8    73    70    1
     9    73    74    1
    10   152   151    1
    11    76    74   ar
    12    74    75   ar
    13    55    53    1
    14   151   149   ar
    15   151   150   ar
    16   149   147   ar
    17    15    14    1
    18    28    26   am
    19    54    53    1
    20   150   148   ar
    21   147   146   ar
    22    27    26    2
    23    53    50    1
    24    26    25    1
    25   148   146   ar
    26    85    83   ar
    27   146   145    1
    28    14    13    1
    29   145   142    1
    30    25    24    1
    31   140   138   am
    32    83    84   ar
    33    83    82    1
    34    50    51    1
    35    50    49    1
    36    52    51    2
    37    51    56   am
    38    13    10    1
    39   138   139    2
    40   138   137    1
    41   142   143    1
    42   142   141    1
    43   144   143    2
    44    49    42   am
    45    56    57    1
    46    82    81    1
    47    81    78    1
    48    61    62    1
    49    24    21    1
    50    20    21    1
    51    20    11   am
    52    57    60    1
    53    57    58    1
    54   137   136    1
    55    10    11    1
    56    10     9    1
    57    21    22    1
    58   141   134   am
    59    67    66   ar
    60    62    63    1
    61    62    65    1
    62    64    63    2
    63    11    12    2
    64   135   134    2
    65    59    58    2
    66    42    43    2
    67    42    41    1
    68   136   133    1
    69   134   133    1
    70    48    47    1
    71    77    78    1
    72    78    79    1
    73    47    46    1
    74    80    79    2
    75    66    65    1
    76    66    68   ar
    77    44    41    1
    78    44    45    1
    79   133   132    1
    80    22    23    2
    81    22    29   am
    82    41    40    1
    83    40    38   am
    84    38    39    2
    85    38    37    1
    86    29    30    1
    87    46    45    1
    88   132   126   am
    89    37    36    1
    90    36    31   am
    91    96    94   ar
    92    96    95   ar
    93   106   105    1
    94    94    92   ar
    95    95    93   ar
    96    30    31    1
    97    30    33    1
    98   126   127    2
    99   126   125    1
   100    31    32    2
   101   128   125    1
   102   128   129    1
   103    34    33    1
   104   105   107    1
   105   105   104    2
   106   131   129   am
   107   125   124    1
   108    33    35    1
   109    92    91   ar
   110   129   130    2
   111    93    91   ar
   112   104   103    1
   113   103   102    1
   114    91    90    1
   115     8     6    1
   116     7     6    1
   117   124   117   am
   118     6     5    1
   119   118   117    2
   120   117   116    1
   121   123   121   am
   122   102   101    1
   123    90    87    1
   124    89    88    2
   125   101    98    1
   126   120   121    1
   127   120   119    1
   128     1     2    1
   129     5     2    1
   130   121   122    2
   131   113   112    1
   132   113   114    1
   133    88    87    1
   134   112   109    1
   135   109   108    1
   136   109   110    1
   137    87    86    1
   138     2     3    1
   139   116   119    1
   140   116   115    1
   141   108    99   am
   142   108   114    1
   143    98    99    1
   144    98    97    1
   145    99   100    2
   146   110   111    2
   147     3     4    2
