@<TRIPOS>MOLECULE
tmp/3zidA00.pdb
 190 181 0 0 0
SMALL
GASTEIGER

@<TRIPOS>ATOM
      1  N         11.7820  -12.6810   -9.1660 N.3     9  VAL9       -0.1231
      2  CA        11.1720  -13.0680  -10.4480 C.3     9  VAL9        0.1692
      3  C         12.2100  -13.6380  -11.4030 C.2     9  VAL9        0.2593
      4  O         13.2460  -13.0190  -11.6610 O.2     9  VAL9       -0.2718
      5  CB        10.4960  -11.8490  -11.0870 C.3     9  VAL9        0.0266
      6  CG1        9.7120  -12.2270  -12.3390 C.3     9  VAL9        0.0020
      7  CG2        9.5990  -11.1660  -10.0500 C.3     9  VAL9        0.0020
      8  N         11.9500  -14.8350  -11.9140 N.am   10  GLY10      -0.1942
      9  CA        12.9240  -15.4940  -12.7730 C.3    10  GLY10       0.2014
     10  C         13.9640  -16.2040  -11.9280 C.2    10  GLY10       0.2639
     11  O         13.9600  -16.0820  -10.7010 O.2    10  GLY10      -0.2714
     12  N         14.8600  -16.9460  -12.5630 N.am   11  GLN11      -0.1963
     13  CA        15.8460  -17.7200  -11.8050 C.3    11  GLN11       0.1733
     14  C         16.7410  -16.8760  -10.8770 C.2    11  GLN11       0.2616
     15  O         16.9220  -17.1970   -9.6900 O.2    11  GLN11      -0.2715
     16  CB        16.7260  -18.5370  -12.7510 C.3    11  GLN11       0.0408
     17  CG        17.8820  -19.2120  -12.0360 C.3    11  GLN11       0.0908
     18  CD        18.3960  -20.4010  -12.7900 C.2    11  GLN11       0.2608
     19  OE1       18.2210  -21.5470  -12.3680 O.2    11  GLN11      -0.2717
     20  NE2       19.0440  -20.1410  -13.9150 N.am   11  GLN11      -0.0878
     21  N         17.3130  -15.8100  -11.4320 N.am   12  CYS12      -0.1954
     22  CA        18.1880  -14.9390  -10.6620 C.3    12  CYS12       0.1843
     23  C         17.4130  -14.3200   -9.4890 C.2    12  CYS12       0.2626
     24  O         17.8440  -14.4110   -8.3400 O.2    12  CYS12      -0.2714
     25  CB        18.7950  -13.8680  -11.5600 C.3    12  CYS12       0.0997
     26  SG        19.7300  -12.6070  -10.6930 S.3    12  CYS12      -0.0797
     27  N         16.2610  -13.7250   -9.7880 N.am   13  GLY13      -0.1954
     28  CA        15.3900  -13.1780   -8.7680 C.3    13  GLY13       0.1869
     29  C         15.0180  -14.2240   -7.7220 C.2    13  GLY13       0.2309
     30  O         15.0500  -13.9280   -6.5380 O.2    13  GLY13      -0.2863
     31  N         16.7480  -16.9160   -6.7980 N.3    15  ARG15      -0.1231
     32  CA        17.9110  -17.2740   -6.0100 C.3    15  ARG15       0.1694
     33  C         18.2980  -16.1590   -5.0430 C.2    15  ARG15       0.2591
     34  O         18.7570  -16.4220   -3.9440 O.2    15  ARG15      -0.2718
     35  CB        19.0810  -17.6670   -6.8990 C.3    15  ARG15       0.0321
     36  CG        18.9840  -19.0730   -7.5040 C.3    15  ARG15       0.0489
     37  CD        20.1080  -19.2230   -8.5030 C.3    15  ARG15       0.2205
     38  NE        20.1350  -20.4790   -9.2170 N.pl3  15  ARG15      -0.0865
     39  CZ        20.7150  -20.6260  -10.4020 C.cat  15  ARG15       0.5346
     40  NH1       21.2940  -19.5830  -10.9870 N.pl3  15  ARG15       0.1354
     41  NH2       20.7040  -21.8080  -11.0010 N.pl3  15  ARG15       0.1354
     42  N         18.1040  -14.9120   -5.4420 N.am   16  ILE16      -0.1980
     43  CA        18.3660  -13.8150   -4.5230 C.3    16  ILE16       0.1595
     44  C         17.3590  -13.8310   -3.3790 C.2    16  ILE16       0.2287
     45  O         17.7220  -13.6610   -2.2320 O.2    16  ILE16      -0.2864
     46  CB        18.3500  -12.4630   -5.2300 C.3    16  ILE16       0.0276
     47  CG1       19.5660  -12.3590   -6.1460 C.3    16  ILE16       0.0022
     48  CG2       18.3900  -11.3220   -4.2040 C.3    16  ILE16       0.0022
     49  CD1       19.5120  -11.1590   -7.0910 C.3    16  ILE16       0.0001
     50  N          8.2680  -17.8070  -10.9540 N.3    41  ASN41      -0.1240
     51  CA         8.9820  -18.3740  -12.0960 C.3    41  ASN41       0.1653
     52  C          8.0780  -19.1780  -13.0300 C.2    41  ASN41       0.2266
     53  O          7.0710  -19.7390  -12.6090 O.2    41  ASN41      -0.2867
     54  CB        10.1280  -19.2680  -11.6150 C.3    41  ASN41       0.1155
     55  CG        11.3210  -19.2460  -12.5490 C.2    41  ASN41       0.2627
     56  OD1       11.1750  -19.1760  -13.7770 O.2    41  ASN41      -0.2716
     57  ND2       12.5200  -19.2780  -11.9710 N.am   41  ASN41      -0.0877
     58  N         13.4290  -24.4620  -11.3900 N.3    46  ASP46      -0.1239
     59  CA        14.0420  -23.3820  -10.6260 C.3    46  ASP46       0.1674
     60  C         13.4260  -23.2580   -9.2390 C.2    46  ASP46       0.2266
     61  O         14.1440  -23.1010   -8.2600 O.2    46  ASP46      -0.2867
     62  CB        13.9100  -22.0390  -11.3480 C.3    46  ASP46       0.1410
     63  CG        14.5370  -22.0410  -12.7290 C.2    46  ASP46       0.3668
     64  OD1       15.1440  -23.0590  -13.1090 O.co2  46  ASP46      -0.2456
     65  OD2       14.4210  -21.0120  -13.4300 O.co2  46  ASP46      -0.2456
     66  N         12.3880  -19.2490  -22.0880 N.3    66  GLY66      -0.1225
     67  CA        13.7930  -19.1220  -22.4020 C.3    66  GLY66       0.1811
     68  C         14.2850  -17.7000  -22.2150 C.2    66  GLY66       0.2280
     69  O         13.9990  -17.0700  -21.2100 O.2    66  GLY66      -0.2866
     70  N         17.0010  -10.4430  -12.7710 N.3   101  SER101     -0.1217
     71  CA        18.0100  -10.0590  -13.7570 C.3   101  SER101      0.1889
     72  C         17.3130   -9.3400  -14.9110 C.2   101  SER101      0.2288
     73  O         16.1120   -9.5180  -15.1420 O.2   101  SER101     -0.2866
     74  CB        18.7700  -11.2780  -14.2960 C.3   101  SER101      0.2089
     75  OG        17.9610  -12.0710  -15.1400 O.3   101  SER101     -0.2183
     76  N         18.4650   -9.6870  -18.0090 N.3   103  SER103     -0.1202
     77  CA        18.9380  -10.4010  -19.2080 C.3   103  SER103      0.2020
     78  C         18.1830  -11.6700  -19.5990 C.2   103  SER103      0.2619
     79  O         18.2700  -12.1190  -20.7390 O.2   103  SER103     -0.2717
     80  CB        20.4250  -10.7380  -19.0840 C.3   103  SER103      0.2103
     81  OG        21.2180   -9.5770  -19.2200 O.3   103  SER103     -0.2182
     82  N         17.4550  -12.2620  -18.6690 N.am  104  GLY104     -0.1942
     83  CA        16.7220  -13.4650  -18.9960 C.3   104  GLY104      0.2014
     84  C         15.4140  -13.1290  -19.7070 C.2   104  GLY104      0.2639
     85  O         15.1760  -11.9930  -20.1350 O.2   104  GLY104     -0.2714
     86  N         14.5560  -14.1280  -19.8260 N.am  105  GLY105     -0.1939
     87  CA        13.2900  -13.9640  -20.5150 C.3   105  GLY105      0.2014
     88  C         12.1380  -13.7460  -19.5570 C.2   105  GLY105      0.2640
     89  O         11.2150  -12.9870  -19.8420 O.2   105  GLY105     -0.2714
     90  N         12.1850  -14.4160  -18.4130 N.am  106  THR106     -0.1936
     91  CA        11.0730  -14.3400  -17.4760 C.3   106  THR106      0.2028
     92  C         11.1540  -13.1130  -16.5830 C.2   106  THR106      0.2642
     93  O         10.2570  -12.2510  -16.5960 O.2   106  THR106     -0.2714
     94  CB        10.9320  -15.6210  -16.6200 C.3   106  THR106      0.1808
     95  OG1       10.5620  -16.7230  -17.4530 O.3   106  THR106     -0.2208
     96  CG2        9.8730  -15.4310  -15.5470 C.3   106  THR106      0.0379
     97  N         12.2160  -13.0400  -15.7890 N.am  107  GLY107     -0.1954
     98  CA        12.3650  -11.9290  -14.8750 C.3   107  GLY107      0.1869
     99  C         12.2900  -10.5830  -15.5670 C.2   107  GLY107      0.2309
    100  O         11.5190   -9.7040  -15.1820 O.2   107  GLY107     -0.2863
    101  N         19.6170   -6.9800  -11.8350 N.3   132  VAL132     -0.1231
    102  CA        20.9210   -7.6290  -11.9650 C.3   132  VAL132      0.1692
    103  C         21.4270   -7.6410  -13.4190 C.2   132  VAL132      0.2592
    104  O         20.7670   -8.1890  -14.3010 O.2   132  VAL132     -0.2718
    105  CB        20.8790   -9.0590  -11.4250 C.3   132  VAL132      0.0266
    106  CG1       22.2130   -9.7320  -11.6280 C.3   132  VAL132      0.0020
    107  CG2       20.4550   -9.0600   -9.9270 C.3   132  VAL132      0.0020
    108  N         22.5830   -7.0190  -13.6540 N.am  133  LEU133     -0.1966
    109  CA        23.1560   -6.8750  -15.0050 C.3   133  LEU133      0.1713
    110  C         23.9830   -8.0760  -15.4020 C.2   133  LEU133      0.2458
    111  O         24.5670   -8.7230  -14.5310 O.2   133  LEU133     -0.2730
    112  CB        24.0540   -5.6340  -15.0700 C.3   133  LEU133      0.0310
    113  CG        23.4210   -4.3720  -14.5070 C.3   133  LEU133      0.0022
    114  CD1       24.4090   -3.2300  -14.5370 C.3   133  LEU133      0.0001
    115  CD2       22.1590   -4.0360  -15.2830 C.3   133  LEU133      0.0001
    116  N         24.0790   -8.3600  -16.7180 N.am  134  PRO134     -0.2716
    117  CA        24.7670   -9.5630  -17.1970 C.3   134  PRO134      0.1536
    118  C         26.2800   -9.5120  -17.0270 C.2   134  PRO134      0.2598
    119  O         26.8400   -8.4450  -16.8080 O.2   134  PRO134     -0.2715
    120  CB        24.4060   -9.6070  -18.6960 C.3   134  PRO134      0.0310
    121  CG        24.1700   -8.1890  -19.0600 C.3   134  PRO134      0.0237
    122  CD        23.5340   -7.5640  -17.8340 C.3   134  PRO134      0.0939
    123  N         26.9240  -10.6760  -17.0700 N.am  135  PHE135     -0.1974
    124  CA        28.3770  -10.7430  -17.2550 C.3   135  PHE135      0.1639
    125  C         28.7200  -10.1290  -18.6090 C.2   135  PHE135      0.2290
    126  O         27.9560  -10.2670  -19.5440 O.2   135  PHE135     -0.2864
    127  CB        28.8610  -12.1830  -17.2370 C.3   135  PHE135      0.0560
    128  CG        28.6620  -12.8730  -15.9380 C.ar  135  PHE135     -0.0200
    129  CD1       29.3510  -12.4670  -14.8110 C.ar  135  PHE135     -0.0042
    130  CD2       27.7920  -13.9580  -15.8460 C.ar  135  PHE135     -0.0042
    131  CE1       29.1770  -13.1140  -13.6060 C.ar  135  PHE135     -0.0003
    132  CE2       27.6170  -14.6200  -14.6540 C.ar  135  PHE135     -0.0003
    133  CZ        28.3130  -14.1940  -13.5210 C.ar  135  PHE135     -0.0000
    134  N         28.7130  -12.4550  -21.5520 N.3   138  GLU138     -0.1245
    135  CA        27.5180  -13.2320  -21.8190 C.3   138  GLU138      0.1567
    136  C         27.0560  -12.8840  -23.2200 C.2   138  GLU138      0.2260
    137  O         27.4200  -11.8360  -23.7670 O.2   138  GLU138     -0.2867
    138  CB        26.4240  -13.0120  -20.7740 C.3   138  GLU138      0.0388
    139  CG        26.5440  -13.9900  -19.6100 C.3   138  GLU138      0.1160
    140  CD        25.5060  -13.7710  -18.5270 C.2   138  GLU138      0.3649
    141  OE1       25.1010  -12.6110  -18.2970 O.co2 138  GLU138     -0.2457
    142  OE2       25.0960  -14.7750  -17.9040 O.co2 138  GLU138     -0.2457
    143  N         21.5030  -11.9430  -24.1990 N.3   142  TYR142     -0.1241
    144  CA        21.5660  -11.4250  -22.8450 C.3   142  TYR142      0.1605
    145  C         21.7720   -9.9040  -22.8540 C.2   142  TYR142      0.2264
    146  O         21.0810   -9.1640  -22.1330 O.2   142  TYR142     -0.2867
    147  CB        22.6710  -12.1410  -22.0730 C.3   142  TYR142      0.0534
    148  CG        22.2320  -13.4880  -21.5360 C.ar  142  TYR142     -0.0201
    149  CD1       20.9060  -13.9070  -21.6440 C.ar  142  TYR142     -0.0009
    150  CD2       23.1450  -14.3600  -20.9570 C.ar  142  TYR142     -0.0009
    151  CE1       20.4970  -15.1470  -21.1580 C.ar  142  TYR142      0.0417
    152  CE2       22.7470  -15.6030  -20.4720 C.ar  142  TYR142      0.0417
    153  CZ        21.4230  -15.9900  -20.5800 C.ar  142  TYR142      0.1957
    154  OH        21.0330  -17.2220  -20.1000 O.3   142  TYR142     -0.2866
    155  N         26.7750   -8.0120  -12.2510 N.3   166  ASN166     -0.1240
    156  CA        27.3980   -9.3330  -12.1570 C.3   166  ASN166      0.1653
    157  C         28.8700   -9.2970  -12.5690 C.2   166  ASN166      0.2266
    158  O         29.6990   -9.9940  -11.9940 O.2   166  ASN166     -0.2867
    159  CB        26.6580  -10.3660  -13.0210 C.3   166  ASN166      0.1155
    160  CG        25.5260  -11.0730  -12.2850 C.2   166  ASN166      0.2627
    161  OD1       25.2710  -10.8260  -11.1000 O.2   166  ASN166     -0.2716
    162  ND2       24.8240  -11.9590  -13.0030 N.am  166  ASN166     -0.0877
    163  N         27.5300  -16.7440   -8.4410 N.3   180  TYR180     -0.1241
    164  CA        26.1550  -16.4120   -8.1180 C.3   180  TYR180      0.1605
    165  C         25.9470  -16.3700   -6.6140 C.2   180  TYR180      0.2264
    166  O         25.3310  -15.4440   -6.1150 O.2   180  TYR180     -0.2867
    167  CB        25.1740  -17.4130   -8.7240 C.3   180  TYR180      0.0534
    168  CG        25.0190  -17.2980  -10.2200 C.ar  180  TYR180     -0.0201
    169  CD1       25.3320  -16.1210  -10.8810 C.ar  180  TYR180     -0.0009
    170  CD2       24.5170  -18.3520  -10.9670 C.ar  180  TYR180     -0.0009
    171  CE1       25.1780  -16.0120  -12.2450 C.ar  180  TYR180      0.0417
    172  CE2       24.3530  -18.2400  -12.3410 C.ar  180  TYR180      0.0417
    173  CZ        24.6810  -17.0680  -12.9650 C.ar  180  TYR180      0.1957
    174  OH        24.5320  -16.9450  -14.3310 O.3   180  TYR180     -0.2866
    175  N         27.5090  -13.2160   -5.1100 N.3   183  ILE183     -0.1231
    176  CA        26.7310  -12.0430   -5.4590 C.3   183  ILE183      0.1692
    177  C         25.4040  -12.0200   -4.7140 C.2   183  ILE183      0.2592
    178  O         25.0580  -11.0120   -4.1040 O.2   183  ILE183     -0.2718
    179  CB        26.4740  -11.9670   -6.9650 C.3   183  ILE183      0.0266
    180  CG1       27.7970  -11.7200   -7.7100 C.3   183  ILE183      0.0019
    181  CG2       25.4520  -10.8820   -7.2630 C.3   183  ILE183      0.0020
    182  CD1       27.7470  -11.9880   -9.2010 C.3   183  ILE183      0.0001
    183  N         24.6740  -13.1360   -4.7680 N.am  184  ASN184     -0.1974
    184  CA        23.3560  -13.2320   -4.1600 C.3   184  ASN184      0.1688
    185  C         23.4520  -12.9720   -2.6490 C.2   184  ASN184      0.2292
    186  O         22.6040  -12.2990   -2.0670 O.2   184  ASN184     -0.2864
    187  CB        22.7120  -14.6080   -4.4110 C.3   184  ASN184      0.1181
    188  CG        22.4540  -14.8970   -5.8730 C.2   184  ASN184      0.2629
    189  OD1       22.6090  -14.0350   -6.7420 O.2   184  ASN184     -0.2716
    190  ND2       22.0790  -16.1430   -6.1580 N.am  184  ASN184     -0.0877
@<TRIPOS>BOND
     1   143   144    1
     2   137   136    2
     3   136   135    1
     4   145   144    1
     5   145   146    2
     6   144   147    1
     7    67    68    1
     8    67    66    1
     9    68    69    2
    10   147   148    1
    11   135   134    1
    12   135   138    1
    13   149   148   ar
    14   149   151   ar
    15   148   150   ar
    16   151   153   ar
    17   150   152   ar
    18   138   139    1
    19    79    78    2
    20   153   152   ar
    21   153   154    1
    22    87    86    1
    23    87    88    1
    24    85    84    2
    25    89    88    2
    26    86    84   am
    27    84    83    1
    28   139   140    1
    29    78    77    1
    30    78    82   am
    31    88    90   am
    32   126   125    2
    33    81    80    1
    34    77    80    1
    35    77    76    1
    36   121   120    1
    37   121   122    1
    38    83    82    1
    39   120   117    1
    40   125   124    1
    41   140   141   ar
    42   140   142   ar
    43    90    91    1
    44   122   116    1
    45    91    94    1
    46    91    92    1
    47    95    94    1
    48   124   127    1
    49   124   123    1
    50   127   128    1
    51   117   118    1
    52   117   116    1
    53   123   118   am
    54   118   119    2
    55   116   110   am
    56    94    96    1
    57    93    92    2
    58    92    97   am
    59   128   130   ar
    60   128   129   ar
    61   130   132   ar
    62    97    98    1
    63    99   100    2
    64    99    98    1
    65   110   109    1
    66   110   111    2
    67   115   113    1
    68    73    72    2
    69    75    74    1
    70   112   109    1
    71   112   113    1
    72   109   108    1
    73    72    71    1
    74   129   131   ar
    75   132   133   ar
    76   114   113    1
    77   174   173    1
    78   104   103    2
    79    74    71    1
    80    20    18   am
    81    56    55    2
    82    71    70    1
    83   108   103   am
    84   131   133   ar
    85    65    63   ar
    86   103   102    1
    87    64    63   ar
    88    52    53    2
    89    52    51    1
    90   159   160    1
    91   159   156    1
    92   162   160   am
    93   173   172   ar
    94   173   171   ar
    95    18    19    2
    96    18    17    1
    97     9    10    1
    98     9     8    1
    99    16    17    1
   100    16    13    1
   101    63    62    1
   102   157   156    1
   103   157   158    2
   104    12    10   am
   105    12    13    1
   106    55    57   am
   107    55    54    1
   108   172   170   ar
   109     6     5    1
   110   160   161    2
   111   155   156    1
   112   171   169   ar
   113    51    54    1
   114    51    50    1
   115   102   101    1
   116   102   105    1
   117    10    11    2
   118     8     3   am
   119    13    14    1
   120     4     3    2
   121   106   105    1
   122    25    26    1
   123    25    22    1
   124    21    14   am
   125    21    22    1
   126   105   107    1
   127     3     2    1
   128    58    59    1
   129    62    59    1
   130     5     2    1
   131     5     7    1
   132    41    39    1
   133    40    39    1
   134   170   168   ar
   135   169   168   ar
   136    14    15    2
   137    22    23    1
   138    59    60    1
   139     2     1    1
   140    39    38    2
   141   168   167    1
   142    27    23   am
   143    27    28    1
   144    23    24    2
   145    60    61    2
   146    38    37    1
   147   182   180    1
   148    28    29    1
   149   167   164    1
   150    37    36    1
   151   163   164    1
   152   164   165    1
   153    29    30    2
   154   180   179    1
   155    36    35    1
   156   181   179    1
   157    49    47    1
   158   179   176    1
   159    35    32    1
   160    31    32    1
   161   189   188    2
   162   165   166    2
   163   190   188   am
   164    47    46    1
   165    32    33    1
   166   188   187    1
   167   176   175    1
   168   176   177    1
   169    42    33   am
   170    42    43    1
   171    46    43    1
   172    46    48    1
   173    33    34    2
   174   183   177   am
   175   183   184    1
   176   177   178    2
   177    43    44    1
   178   187   184    1
   179   184   185    1
   180    44    45    2
   181   185   186    2
