@<TRIPOS>MOLECULE
tmp/3zimA00.pdb
 230 214 0 0 0
SMALL
GASTEIGER

@<TRIPOS>ATOM
      1  N        -19.6940    6.3320   40.4370 N.3   624  ARG624     -0.1245
      2  CA       -20.9150    5.7490   39.8520 C.3   624  ARG624      0.1563
      3  C        -20.6730    4.7830   38.6850 C.2   624  ARG624      0.2260
      4  O        -19.6310    4.8330   38.0330 O.2   624  ARG624     -0.2867
      5  CB       -21.9230    6.8480   39.4550 C.3   624  ARG624      0.0307
      6  CG       -21.4350    7.8630   38.4320 C.3   624  ARG624      0.0489
      7  CD       -22.5090    8.8940   38.1090 C.3   624  ARG624      0.2205
      8  NE       -22.2280    9.6380   36.8740 N.pl3 624  ARG624     -0.0865
      9  CZ       -21.4090   10.6900   36.7580 C.cat 624  ARG624      0.5346
     10  NH1      -20.7360   11.1770   37.8080 N.pl3 624  ARG624      0.1354
     11  NH2      -21.2540   11.2650   35.5650 N.pl3 624  ARG624      0.1354
     12  N        -21.8470    3.8980   35.0550 N.3   626  MET626     -0.1230
     13  CA       -22.3970    4.7250   33.9810 C.3   626  MET626      0.1702
     14  C        -23.3510    3.9470   33.0720 C.2   626  MET626      0.2593
     15  O        -23.3870    2.7110   33.0830 O.2   626  MET626     -0.2718
     16  CB       -21.2690    5.3210   33.1500 C.3   626  MET626      0.0401
     17  CG       -20.2930    6.1680   33.9380 C.3   626  MET626      0.0596
     18  SD       -18.9410    6.7400   32.9000 S.3   626  MET626     -0.1393
     19  CE       -19.7670    8.0830   32.0640 C.3   626  MET626      0.0692
     20  N        -24.1050    4.6970   32.2710 N.am  627  SER627     -0.1938
     21  CA       -25.1980    4.1500   31.4640 C.3   627  SER627      0.2055
     22  C        -24.7710    3.3670   30.2110 C.2   627  SER627      0.2643
     23  O        -25.5820    2.6240   29.6560 O.2   627  SER627     -0.2714
     24  CB       -26.1550    5.2740   31.0540 C.3   627  SER627      0.2130
     25  OG       -26.5850    6.0090   32.1890 O.3   627  SER627     -0.2179
     26  N        -23.5280    3.5380   29.7540 N.am  628  SER628     -0.1949
     27  CA       -23.0200    2.7740   28.6030 C.3   628  SER628      0.1924
     28  C        -23.0540    1.2740   28.9220 C.2   628  SER628      0.2314
     29  O        -22.5960    0.8700   29.9910 O.2   628  SER628     -0.2863
     30  CB       -21.5990    3.2100   28.2310 C.3   628  SER628      0.2116
     31  OG       -21.5720    4.5380   27.7700 O.3   628  SER628     -0.2180
     32  N        -17.3540    5.4480   36.7270 N.3   634  TRP634     -0.1241
     33  CA       -16.9010    6.8170   36.9360 C.3   634  TRP634      0.1605
     34  C        -16.3630    6.8340   38.3300 C.2   634  TRP634      0.2264
     35  O        -17.1010    6.5440   39.2660 O.2   634  TRP634     -0.2867
     36  CB       -18.0850    7.7670   36.7920 C.3   634  TRP634      0.0550
     37  CG       -17.8000    9.2340   37.0140 C.ar  634  TRP634      0.0003
     38  CD1      -17.4360    9.8680   38.1990 C.ar  634  TRP634      0.0946
     39  CD2      -17.9030   10.3100   36.0310 C.ar  634  TRP634      0.0152
     40  NE1      -17.2950   11.2190   38.0120 N.ar  634  TRP634     -0.2442
     41  CE2      -17.5580   11.5510   36.7390 C.ar  634  TRP634      0.0810
     42  CE3      -18.2190   10.3710   34.6800 C.ar  634  TRP634      0.0012
     43  CZ2      -17.5480   12.7850   36.1010 C.ar  634  TRP634      0.0191
     44  CZ3      -18.2120   11.6210   34.0470 C.ar  634  TRP634      0.0001
     45  CH2      -17.8850   12.7990   34.7410 C.ar  634  TRP634      0.0015
     46  N        -12.7810    8.0100   34.2110 N.3   654  ILE654     -0.1245
     47  CA       -13.6760    6.9500   33.7360 C.3   654  ILE654      0.1561
     48  C        -12.8350    5.7050   33.4510 C.2   654  ILE654      0.2260
     49  O        -11.9150    5.7610   32.6360 O.2   654  ILE654     -0.2867
     50  CB       -14.4340    7.3730   32.4570 C.3   654  ILE654      0.0252
     51  CG1      -15.3380    8.5730   32.7400 C.3   654  ILE654      0.0019
     52  CG2      -15.2740    6.2250   31.9120 C.3   654  ILE654      0.0019
     53  CD1      -15.8450    9.2610   31.5000 C.3   654  ILE654      0.0001
     54  N        -12.9680    1.9650   31.9120 N.3   656  LYS656     -0.1245
     55  CA       -13.7980    1.2060   30.9720 C.3   656  LYS656      0.1561
     56  C        -13.2010   -0.1710   30.6880 C.2   656  LYS656      0.2260
     57  O        -12.0200   -0.2720   30.3600 O.2   656  LYS656     -0.2867
     58  CB       -13.9670    1.9910   29.6750 C.3   656  LYS656      0.0271
     59  CG       -15.1250    1.5100   28.8140 C.3   656  LYS656      0.0035
     60  CD       -15.3780    2.4630   27.6590 C.3   656  LYS656      0.0206
     61  CE       -16.5180    1.9800   26.7830 C.3   656  LYS656      0.1093
     62  NZ       -16.3620    2.4820   25.3920 N.3   656  LYS656     -0.1314
     63  N         -9.7480    0.9550   23.4710 N.3   661  LEU661     -0.1245
     64  CA        -9.4890    2.4060   23.5570 C.3   661  LEU661      0.1561
     65  C         -8.2230    2.8720   22.8170 C.2   661  LEU661      0.2260
     66  O         -7.8330    4.0400   22.9220 O.2   661  LEU661     -0.2867
     67  CB        -9.4600    2.8460   25.0270 C.3   661  LEU661      0.0270
     68  CG       -10.8570    2.8660   25.6560 C.3   661  LEU661      0.0019
     69  CD1      -10.7710    2.8540   27.1760 C.3   661  LEU661      0.0001
     70  CD2      -11.6520    4.0710   25.1670 C.3   661  LEU661      0.0001
     71  N         -9.2150    5.7120   20.1320 N.3   664  ASP664     -0.1239
     72  CA        -9.3740    6.9790   20.8640 C.3   664  ASP664      0.1674
     73  C         -8.0340    7.5710   21.3030 C.2   664  ASP664      0.2266
     74  O         -7.8040    8.7780   21.1690 O.2   664  ASP664     -0.2867
     75  CB       -10.2790    6.7820   22.0860 C.3   664  ASP664      0.1410
     76  CG       -11.7400    6.9290   21.7480 C.2   664  ASP664      0.3668
     77  OD1      -12.1710    8.0880   21.6030 O.co2 664  ASP664     -0.2456
     78  OD2      -12.4510    5.9050   21.6280 O.co2 664  ASP664     -0.2456
     79  N         -6.5000   11.1800   19.8870 N.3   668  LEU668     -0.1245
     80  CA        -6.2080   12.2460   20.8570 C.3   668  LEU668      0.1561
     81  C         -4.7520   12.6920   20.7850 C.2   668  LEU668      0.2260
     82  O         -4.4630   13.8790   20.9680 O.2   668  LEU668     -0.2867
     83  CB        -6.5470   11.7940   22.2780 C.3   668  LEU668      0.0270
     84  CG        -8.0400   11.6250   22.5760 C.3   668  LEU668      0.0019
     85  CD1       -8.2440   10.6500   23.7250 C.3   668  LEU668      0.0001
     86  CD2       -8.6860   12.9680   22.8880 C.3   668  LEU668      0.0001
     87  N         -7.6840   15.5010   25.9960 N.3   690  TYR690     -0.1241
     88  CA        -7.7280   14.9140   27.3410 C.3   690  TYR690      0.1605
     89  C         -7.0090   13.5650   27.3840 C.2   690  TYR690      0.2264
     90  O         -6.7520   12.9530   26.3490 O.2   690  TYR690     -0.2867
     91  CB        -9.1840   14.7660   27.8420 C.3   690  TYR690      0.0534
     92  CG       -10.0860   13.9640   26.9230 C.ar  690  TYR690     -0.0201
     93  CD1      -10.0580   12.5710   26.9260 C.ar  690  TYR690     -0.0009
     94  CD2      -10.9620   14.5980   26.0450 C.ar  690  TYR690     -0.0009
     95  CE1      -10.8720   11.8300   26.0840 C.ar  690  TYR690      0.0417
     96  CE2      -11.7810   13.8650   25.1960 C.ar  690  TYR690      0.0417
     97  CZ       -11.7280   12.4810   25.2200 C.ar  690  TYR690      0.1957
     98  OH       -12.5210   11.7400   24.3820 O.3   690  TYR690     -0.2866
     99  N         -6.1290    9.7380   27.6880 N.3   692  CYS692     -0.1235
    100  CA        -6.7020    8.4190   27.4260 C.3   692  CYS692      0.1677
    101  C         -5.5850    7.3980   27.3420 C.2   692  CYS692      0.2270
    102  O         -4.6260    7.6110   26.6030 O.2   692  CYS692     -0.2867
    103  CB        -7.4770    8.4180   26.1160 C.3   692  CYS692      0.0956
    104  SG        -8.1770    6.8060   25.7010 S.3   692  CYS692     -0.0801
    105  N         -9.9890    7.0240   30.9930 N.3   702  ILE702     -0.1231
    106  CA       -10.2630    8.2870   30.2980 C.3   702  ILE702      0.1692
    107  C        -10.2900    9.4170   31.3210 C.2   702  ILE702      0.2592
    108  O        -10.9320    9.2960   32.3590 O.2   702  ILE702     -0.2718
    109  CB       -11.6320    8.2570   29.5770 C.3   702  ILE702      0.0266
    110  CG1      -11.7260    7.0810   28.5910 C.3   702  ILE702      0.0019
    111  CG2      -11.8850    9.5730   28.8500 C.3   702  ILE702      0.0020
    112  CD1      -13.1510    6.7450   28.2030 C.3   702  ILE702      0.0001
    113  N         -9.6000   10.5120   31.0330 N.am  703  GLU703     -0.1966
    114  CA        -9.6480   11.6970   31.8930 C.3   703  GLU703      0.1733
    115  C        -11.0300   12.3040   31.8050 C.2   703  GLU703      0.2616
    116  O        -11.5970   12.3660   30.7240 O.2   703  GLU703     -0.2715
    117  CB        -8.6030   12.7320   31.4500 C.3   703  GLU703      0.0429
    118  CG        -8.7440   14.1210   32.0710 C.3   703  GLU703      0.1163
    119  CD        -7.6230   15.0690   31.6810 C.2   703  GLU703      0.3649
    120  OE1       -6.8760   14.7770   30.7260 O.co2 703  GLU703     -0.2457
    121  OE2       -7.4980   16.1280   32.3280 O.co2 703  GLU703     -0.2457
    122  N        -11.5740   12.7410   32.9320 N.am  704  VAL704     -0.1963
    123  CA       -12.7840   13.5560   32.9130 C.3   704  VAL704      0.1727
    124  C        -12.3570   15.0190   32.8760 C.2   704  VAL704      0.2616
    125  O        -11.5250   15.4420   33.6690 O.2   704  VAL704     -0.2715
    126  CB       -13.6960   13.2970   34.1240 C.3   704  VAL704      0.0290
    127  CG1      -14.9520   14.1530   34.0340 C.3   704  VAL704      0.0023
    128  CG2      -14.0630   11.8190   34.1990 C.3   704  VAL704      0.0023
    129  N        -12.9070   15.7720   31.9290 N.am  705  VAL705     -0.1977
    130  CA       -12.7100   17.2160   31.8590 C.3   705  VAL705      0.1596
    131  C        -13.7590   17.8230   32.7840 C.2   705  VAL705      0.2287
    132  O        -14.9560   17.6600   32.5540 O.2   705  VAL705     -0.2864
    133  CB       -12.8850   17.7510   30.4130 C.3   705  VAL705      0.0276
    134  CG1      -12.6480   19.2550   30.3510 C.3   705  VAL705      0.0022
    135  CG2      -11.9450   17.0320   29.4560 C.3   705  VAL705      0.0022
    136  N        -17.9190   20.1030   32.2300 N.3   708  SER708     -0.1217
    137  CA       -18.2610   19.8040   30.8350 C.3   708  SER708      0.1889
    138  C        -19.5330   18.9520   30.7400 C.2   708  SER708      0.2288
    139  O        -19.7730   18.0860   31.5820 O.2   708  SER708     -0.2866
    140  CB       -17.1010   19.0770   30.1520 C.3   708  SER708      0.2089
    141  OG       -16.8870   17.7940   30.7160 O.3   708  SER708     -0.2183
    142  N        -22.4480   17.1510   27.6710 N.3   710  THR710     -0.1218
    143  CA       -22.7840   16.8810   26.2640 C.3   710  THR710      0.1862
    144  C        -23.8600   17.8650   25.8110 C.2   710  THR710      0.2287
    145  O        -24.4020   18.6120   26.6260 O.2   710  THR710     -0.2866
    146  CB       -23.2730   15.4310   26.0010 C.3   710  THR710      0.1770
    147  OG1      -24.5810   15.2340   26.5590 O.3   710  THR710     -0.2211
    148  CG2      -22.2920   14.3900   26.5530 C.3   710  THR710      0.0375
    149  N        -26.8740   17.1050   24.5130 N.3   712  MET712     -0.1230
    150  CA       -28.1570   16.6160   25.0510 C.3   712  MET712      0.1702
    151  C        -28.3440   16.9710   26.5230 C.2   712  MET712      0.2592
    152  O        -29.4640   17.2760   26.9430 O.2   712  MET712     -0.2718
    153  CB       -28.3120   15.0970   24.8880 C.3   712  MET712      0.0401
    154  CG       -28.8400   14.6490   23.5340 C.3   712  MET712      0.0596
    155  SD       -29.8900   13.1850   23.6530 S.3   712  MET712     -0.1393
    156  CE       -28.8970   12.0860   24.6630 C.3   712  MET712      0.0692
    157  N        -27.2590   16.9130   27.2970 N.am  713  GLN713     -0.1979
    158  CA       -27.2820   17.3680   28.6900 C.3   713  GLN713      0.1601
    159  C        -27.7130   18.8280   28.8080 C.2   713  GLN713      0.2287
    160  O        -28.5160   19.1590   29.6760 O.2   713  GLN713     -0.2864
    161  CB       -25.9220   17.1980   29.3580 C.3   713  GLN713      0.0394
    162  CG       -25.5920   15.7800   29.7730 C.3   713  GLN713      0.0908
    163  CD       -24.3880   15.7430   30.6820 C.2   713  GLN713      0.2608
    164  OE1      -23.2950   15.3320   30.2820 O.2   713  GLN713     -0.2717
    165  NE2      -24.5730   16.2100   31.9100 N.am  713  GLN713     -0.0878
    166  N        -31.6250   18.8540   27.5880 N.3   716  CYS716     -0.1221
    167  CA       -32.5150   18.3290   28.6370 C.3   716  CYS716      0.1808
    168  C        -32.5460   19.2500   29.8600 C.2   716  CYS716      0.2601
    169  O        -33.6110   19.7190   30.2540 O.2   716  CYS716     -0.2717
    170  CB       -32.0950   16.9210   29.0670 C.3   716  CYS716      0.0970
    171  SG       -32.3450   15.6280   27.8250 S.3   716  CYS716     -0.0800
    172  N        -31.3770   19.5060   30.4510 N.am  717  LYS717     -0.1979
    173  CA       -31.2480   20.4670   31.5620 C.3   717  LYS717      0.1596
    174  C        -31.4300   21.8880   31.0100 C.2   717  LYS717      0.2287
    175  O        -30.4720   22.6490   30.8470 O.2   717  LYS717     -0.2864
    176  CB       -29.9040   20.3110   32.2940 C.3   717  LYS717      0.0298
    177  CG       -29.6950   18.9440   32.9270 C.3   717  LYS717      0.0038
    178  CD       -28.3680   18.8770   33.6640 C.3   717  LYS717      0.0206
    179  CE       -28.1320   17.5010   34.2640 C.3   717  LYS717      0.1093
    180  NZ       -26.8260   17.4160   34.9740 N.3   717  LYS717     -0.1314
    181  N        -37.3740   17.7650   23.0160 N.3   725  GLN725     -0.1245
    182  CA       -35.9970   18.2690   23.2100 C.3   725  GLN725      0.1566
    183  C        -35.4460   19.1000   22.0330 C.2   725  GLN725      0.2260
    184  O        -34.3980   19.7320   22.1700 O.2   725  GLN725     -0.2867
    185  CB       -35.0390   17.1110   23.5080 C.3   725  GLN725      0.0367
    186  CG       -34.7310   16.1320   22.4250 C.3   725  GLN725      0.0905
    187  CD       -33.7790   15.0220   22.8450 C.2   725  GLN725      0.2608
    188  OE1      -33.3360   14.9560   23.9940 O.2   725  GLN725     -0.2717
    189  NE2      -33.4580   14.1400   21.9050 N.am  725  GLN725     -0.0878
    190  N        -24.8520   13.5870   21.8970 N.3   773  SER773     -0.1217
    191  CA       -24.1490   12.8900   22.9870 C.3   773  SER773      0.1889
    192  C        -22.6140   12.7830   22.8280 C.2   773  SER773      0.2288
    193  O        -21.9180   12.5570   23.8130 O.2   773  SER773     -0.2866
    194  CB       -24.7480   11.4880   23.1850 C.3   773  SER773      0.2089
    195  OG       -24.4520   10.6340   22.0940 O.3   773  SER773     -0.2183
    196  N        -19.2050   17.8720   23.2740 N.3   776  MET776     -0.1245
    197  CA       -19.2790   18.4830   24.6020 C.3   776  MET776      0.1570
    198  C        -18.8230   19.9310   24.5640 C.2   776  MET776      0.2261
    199  O        -18.2420   20.3850   23.5830 O.2   776  MET776     -0.2867
    200  CB       -18.4540   17.6790   25.6020 C.3   776  MET776      0.0387
    201  CG       -18.8290   16.2050   25.6310 C.3   776  MET776      0.0595
    202  SD       -18.3000   15.3320   27.1160 S.3   776  MET776     -0.1393
    203  CE       -19.3910   16.0370   28.3480 C.3   776  MET776      0.0692
    204  N        -15.6010   20.5060   22.3730 N.3   784  PHE784     -0.1241
    205  CA       -14.7270   19.3550   22.0880 C.3   784  PHE784      0.1605
    206  C        -15.5170   18.0620   21.9150 C.2   784  PHE784      0.2264
    207  O        -16.7040   18.0060   22.2360 O.2   784  PHE784     -0.2867
    208  CB       -13.6380   19.1820   23.1640 C.3   784  PHE784      0.0534
    209  CG       -14.1490   18.7600   24.5230 C.ar  784  PHE784     -0.0203
    210  CD1      -14.6060   19.7070   25.4390 C.ar  784  PHE784     -0.0042
    211  CD2      -14.1290   17.4190   24.9090 C.ar  784  PHE784     -0.0042
    212  CE1      -15.0530   19.3250   26.7030 C.ar  784  PHE784     -0.0003
    213  CE2      -14.5800   17.0320   26.1700 C.ar  784  PHE784     -0.0003
    214  CZ       -15.0390   17.9860   27.0680 C.ar  784  PHE784     -0.0000
    215  N        -15.8050   13.6320   22.1930 N.3   786  ILE786     -0.1231
    216  CA       -15.4170   12.5540   23.1270 C.3   786  ILE786      0.1692
    217  C        -15.2370   11.1520   22.5440 C.2   786  ILE786      0.2592
    218  O        -14.1150   10.6430   22.5500 O.2   786  ILE786     -0.2718
    219  CB       -16.2610   12.5060   24.4290 C.3   786  ILE786      0.0266
    220  CG1      -17.7660   12.5980   24.1830 C.3   786  ILE786      0.0019
    221  CG2      -15.8430   13.6420   25.3500 C.3   786  ILE786      0.0020
    222  CD1      -18.5770   12.0960   25.3580 C.3   786  ILE786      0.0001
    223  N        -16.2960   10.5140   22.0620 N.am  787  ASP787     -0.1974
    224  CA       -16.2090    9.0910   21.7210 C.3   787  ASP787      0.1709
    225  C        -15.7570    8.9640   20.2730 C.2   787  ASP787      0.2293
    226  O        -16.5800    8.8740   19.3600 O.2   787  ASP787     -0.2864
    227  CB       -17.5470    8.3680   21.9790 C.3   787  ASP787      0.1436
    228  CG       -17.3980    6.8440   22.0810 C.2   787  ASP787      0.3671
    229  OD1      -16.3690    6.2830   21.6450 O.co2 787  ASP787     -0.2456
    230  OD2      -18.3220    6.1970   22.6150 O.co2 787  ASP787     -0.2456
@<TRIPOS>BOND
     1   226   225    2
     2    79    80    1
     3    71    72    1
     4   225   224    1
     5    81    80    1
     6    81    82    2
     7    80    83    1
     8    72    73    1
     9    72    75    1
    10    74    73    2
    11    77    76   ar
    12    78    76   ar
    13   229   228   ar
    14   224   227    1
    15   224   223    1
    16    76    75    1
    17   190   191    1
    18   189   187   am
    19   206   205    1
    20   206   207    2
    21   227   228    1
    22   183   184    2
    23   183   182    1
    24   223   217   am
    25   228   230   ar
    26   205   204    1
    27   205   208    1
    28   195   194    1
    29   215   216    1
    30    83    84    1
    31   186   187    1
    32   186   185    1
    33   217   218    2
    34   217   216    1
    35    84    86    1
    36    84    85    1
    37    65    66    2
    38    65    64    1
    39   192   191    1
    40   192   193    2
    41   187   188    2
    42   191   194    1
    43   181   182    1
    44   216   219    1
    45   208   209    1
    46   182   185    1
    47   196   197    1
    48    63    64    1
    49   154   155    1
    50   154   153    1
    51    64    67    1
    52   199   198    2
    53   155   156    1
    54   220   219    1
    55   220   222    1
    56    98    97    1
    57   219   221    1
    58   149   150    1
    59   209   211   ar
    60   209   210   ar
    61   198   197    1
    62   197   200    1
    63   153   150    1
    64   211   213   ar
    65    67    68    1
    66   150   151    1
    67    70    68    1
    68    96    97   ar
    69    96    94   ar
    70    97    95   ar
    71    62    61    1
    72   210   212   ar
    73   200   201    1
    74   201   202    1
    75    68    69    1
    76   104   103    1
    77   144   143    1
    78   144   145    2
    79    87    88    1
    80   146   143    1
    81   146   148    1
    82   146   147    1
    83    94    92   ar
    84    95    93   ar
    85   103   100    1
    86   213   214   ar
    87   143   142    1
    88    90    89    2
    89   151   152    2
    90   151   157   am
    91   102   101    2
    92   212   214   ar
    93    61    60    1
    94    92    93   ar
    95    92    91    1
    96   202   203    1
    97   157   158    1
    98    88    89    1
    99    88    91    1
   100   101   100    1
   101   100    99    1
   102   166   167    1
   103    60    59    1
   104    31    30    1
   105   171   170    1
   106   112   110    1
   107    30    27    1
   108   110   109    1
   109    27    28    1
   110    27    26    1
   111   167   170    1
   112   167   168    1
   113   158   159    1
   114   158   161    1
   115   159   160    2
   116    59    58    1
   117   111   109    1
   118    28    29    2
   119   161   162    1
   120   135   133    1
   121   109   106    1
   122    23    22    2
   123    58    55    1
   124    26    22   am
   125   162   163    1
   126   168   169    2
   127   168   172   am
   128   140   141    1
   129   140   137    1
   130    22    21    1
   131   164   163    2
   132   106   105    1
   133   106   107    1
   134   134   133    1
   135    57    56    2
   136   133   130    1
   137   172   173    1
   138   163   165   am
   139    56    55    1
   140   116   115    2
   141   120   119   ar
   142   138   137    1
   143   138   139    2
   144   137   136    1
   145   175   174    2
   146    55    54    1
   147   174   173    1
   148   113   107   am
   149   113   114    1
   150    24    21    1
   151    24    25    1
   152   107   108    2
   153   117   114    1
   154   117   118    1
   155    21    20    1
   156    53    51    1
   157   173   176    1
   158   119   118    1
   159   119   121   ar
   160   115   114    1
   161   115   122   am
   162   130   129    1
   163   130   131    1
   164    52    50    1
   165   129   124   am
   166    19    18    1
   167    20    14   am
   168   176   177    1
   169    50    51    1
   170    50    47    1
   171   132   131    2
   172    49    48    2
   173   124   123    1
   174   124   125    2
   175    18    17    1
   176   123   122    1
   177   123   126    1
   178   177   178    1
   179    14    15    2
   180    14    13    1
   181    16    17    1
   182    16    13    1
   183    48    47    1
   184   178   179    1
   185    47    46    1
   186    13    12    1
   187   127   126    1
   188    44    42   ar
   189    44    45   ar
   190   126   128    1
   191   179   180    1
   192    42    39   ar
   193    45    43   ar
   194    11     9    1
   195    39    41   ar
   196    39    37   ar
   197    43    41   ar
   198    32    33    1
   199    41    40   ar
   200     9     8    2
   201     9    10    1
   202    36    33    1
   203    36    37    1
   204     8     7    1
   205    33    34    1
   206    37    38   ar
   207    40    38   ar
   208     4     3    2
   209     7     6    1
   210    34    35    2
   211     6     5    1
   212     3     2    1
   213     5     2    1
   214     2     1    1
