@<TRIPOS>MOLECULE
tmp/3zinA00.pdb
 223 213 0 0 0
SMALL
GASTEIGER

@<TRIPOS>ATOM
      1  N          0.0190   -8.1060   11.0140 N.3    33  LEU33      -0.1231
      2  CA        -0.3270   -6.8310   10.3950 C.3    33  LEU33       0.1693
      3  C          0.8750   -5.8690   10.3320 C.2    33  LEU33       0.2592
      4  O          0.8290   -4.8940    9.5760 O.2    33  LEU33      -0.2718
      5  CB        -1.5080   -6.1920   11.1560 C.3    33  LEU33       0.0284
      6  CG        -2.8770   -6.8680   10.9390 C.3    33  LEU33       0.0019
      7  CD1       -3.8740   -6.4610   12.0150 C.3    33  LEU33       0.0001
      8  CD2       -3.4390   -6.5680    9.5490 C.3    33  LEU33       0.0001
      9  N          1.9540   -6.1690   11.0920 N.am   34  SER34      -0.1952
     10  CA         3.1810   -5.3700   11.1820 C.3    34  SER34       0.1924
     11  C          4.2800   -5.8130   10.2090 C.2    34  SER34       0.2314
     12  O          5.2750   -5.0950   10.0750 O.2    34  SER34      -0.2863
     13  CB         3.7420   -5.4280   12.6010 C.3    34  SER34       0.2116
     14  OG         2.9130   -4.7270   13.5080 O.3    34  SER34      -0.2180
     15  N          6.5650   -6.4240    6.9490 N.3    36  GLU36      -0.1245
     16  CA         6.9520   -5.5400    5.8500 C.3    36  GLU36       0.1567
     17  C          6.2990   -5.9000    4.5110 C.2    36  GLU36       0.2260
     18  O          5.7830   -5.0070    3.8370 O.2    36  GLU36      -0.2867
     19  CB         8.4780   -5.5280    5.6770 C.3    36  GLU36       0.0388
     20  CG         9.2100   -4.6610    6.6870 C.3    36  GLU36       0.1160
     21  CD        10.6900   -4.4660    6.4120 C.2    36  GLU36       0.3649
     22  OE1       11.4000   -5.4750    6.1920 O.co2  36  GLU36      -0.2457
     23  OE2       11.1420   -3.2990    6.4210 O.co2  36  GLU36      -0.2457
     24  N         -3.5500   -2.0670   24.0410 N.3    67  PHE67      -0.1241
     25  CA        -2.3950   -1.6990   23.2320 C.3    67  PHE67       0.1605
     26  C         -2.3090   -2.5460   21.9560 C.2    67  PHE67       0.2264
     27  O         -2.1510   -1.9760   20.8780 O.2    67  PHE67      -0.2867
     28  CB        -1.0890   -1.8160   24.0410 C.3    67  PHE67       0.0534
     29  CG         0.1580   -1.5230   23.2310 C.ar   67  PHE67      -0.0203
     30  CD1        0.3520   -0.2750   22.6450 C.ar   67  PHE67      -0.0042
     31  CD2        1.1410   -2.4950   23.0610 C.ar   67  PHE67      -0.0042
     32  CE1        1.5060   -0.0030   21.9030 C.ar   67  PHE67      -0.0003
     33  CE2        2.2960   -2.2200   22.3220 C.ar   67  PHE67      -0.0003
     34  CZ         2.4770   -0.9710   21.7590 C.ar   67  PHE67      -0.0000
     35  N         -2.8240   -1.1560   18.1510 N.3    71  TRP71      -0.1241
     36  CA        -1.7550   -1.2890   17.1620 C.3    71  TRP71       0.1605
     37  C         -2.2900   -2.0310   15.9140 C.2    71  TRP71       0.2264
     38  O         -2.0750   -1.5570   14.7910 O.2    71  TRP71      -0.2867
     39  CB        -0.5460   -2.0030   17.7910 C.3    71  TRP71       0.0550
     40  CG         0.7280   -1.9900   16.9880 C.ar   71  TRP71       0.0003
     41  CD1        0.8750   -1.7290   15.6540 C.ar   71  TRP71       0.0946
     42  CD2        2.0300   -2.3400   17.4730 C.ar   71  TRP71       0.0152
     43  NE1        2.1890   -1.8970   15.2810 N.ar   71  TRP71      -0.2442
     44  CE2        2.9190   -2.2800   16.3760 C.ar   71  TRP71       0.0810
     45  CE3        2.5280   -2.7360   18.7280 C.ar   71  TRP71       0.0012
     46  CZ2        4.2890   -2.5470   16.5060 C.ar   71  TRP71       0.0191
     47  CZ3        3.8840   -3.0010   18.8540 C.ar   71  TRP71       0.0001
     48  CH2        4.7490   -2.8990   17.7530 C.ar   71  TRP71       0.0015
     49  N         -4.5090    0.3270   14.0300 N.3    74  THR74      -0.1203
     50  CA        -3.7210    1.4110   13.4150 C.3    74  THR74       0.1994
     51  C         -3.1310    0.9060   12.0960 C.2    74  THR74       0.2617
     52  O         -3.1320    1.6430   11.1100 O.2    74  THR74      -0.2717
     53  CB        -2.6160    1.9220   14.3670 C.3    74  THR74       0.1784
     54  OG1       -3.2170    2.4840   15.5320 O.3    74  THR74      -0.2211
     55  CG2       -1.7420    2.9840   13.7230 C.3    74  THR74       0.0376
     56  N         -2.6430   -0.3510   12.0840 N.am   75  ASN75      -0.1974
     57  CA        -2.0690   -0.9850   10.8880 C.3    75  ASN75       0.1688
     58  C         -3.1290   -1.1140    9.7960 C.2    75  ASN75       0.2292
     59  O         -2.8250   -0.8770    8.6310 O.2    75  ASN75      -0.2864
     60  CB        -1.4730   -2.3550   11.2160 C.3    75  ASN75       0.1181
     61  CG        -0.1220   -2.3310   11.8990 C.2    75  ASN75       0.2629
     62  OD1        0.6760   -1.4110   11.7340 O.2    75  ASN75      -0.2716
     63  ND2        0.1830   -3.3860   12.6450 N.am   75  ASN75      -0.0877
     64  N         -6.0450    0.8340    9.5880 N.3    77  ALA77      -0.1231
     65  CA        -6.4300    2.2280    9.2750 C.3    77  ALA77       0.1694
     66  C         -5.3940    2.9520    8.4060 C.2    77  ALA77       0.2593
     67  O         -5.7300    3.9250    7.7240 O.2    77  ALA77      -0.2718
     68  CB        -6.6460    3.0050   10.5610 C.3    77  ALA77       0.0304
     69  N         -4.1350    2.4910    8.4450 N.am   78  SER78      -0.1938
     70  CA        -3.0390    3.0460    7.6500 C.3    78  SER78       0.2055
     71  C         -3.0840    2.5860    6.1740 C.2    78  SER78       0.2644
     72  O         -2.3110    3.0920    5.3580 O.2    78  SER78      -0.2714
     73  CB        -1.7060    2.6360    8.2620 C.3    78  SER78       0.2130
     74  OG        -1.4490    1.2730    7.9680 O.3    78  SER78      -0.2179
     75  N         -3.9650    1.6400    5.8490 N.am   79  GLY79      -0.1939
     76  CA        -4.0840    1.0880    4.4990 C.3    79  GLY79       0.2014
     77  C         -4.8560    1.9340    3.5100 C.2    79  GLY79       0.2640
     78  O         -4.7390    3.1610    3.5070 O.2    79  GLY79      -0.2714
     79  N         -5.6380    1.2800    2.6390 N.am   80  THR80      -0.1936
     80  CA        -6.4460    1.9590    1.6190 C.3    80  THR80       0.2028
     81  C         -7.6360    2.6600    2.2750 C.2    80  THR80       0.2642
     82  O         -7.9060    2.4290    3.4550 O.2    80  THR80      -0.2714
     83  CB        -6.9320    0.9580    0.5590 C.3    80  THR80       0.1808
     84  OG1       -7.8620    0.0570    1.1620 O.3    80  THR80      -0.2208
     85  CG2       -5.7850    0.2060   -0.1330 C.3    80  THR80       0.0379
     86  N         -8.3690    3.4770    1.5110 N.am   81  SER81      -0.1949
     87  CA        -9.5650    4.1490    2.0210 C.3    81  SER81       0.1924
     88  C        -10.6120    3.1410    2.4800 C.2    81  SER81       0.2314
     89  O        -11.2660    3.3720    3.4900 O.2    81  SER81      -0.2863
     90  CB       -10.1650    5.0610    0.9540 C.3    81  SER81       0.2116
     91  OG        -9.4640    6.2860    0.9790 O.3    81  SER81      -0.2180
     92  N         -9.4740    1.8510    5.8420 N.3    84  THR84      -0.1218
     93  CA        -9.7000    2.8680    6.8870 C.3    84  THR84       0.1862
     94  C        -11.2030    2.9310    7.2190 C.2    84  THR84       0.2287
     95  O        -11.5620    3.0230    8.3920 O.2    84  THR84      -0.2866
     96  CB        -9.1660    4.2420    6.4640 C.3    84  THR84       0.1770
     97  OG1       -7.8130    4.1030    6.0470 O.3    84  THR84      -0.2211
     98  CG2       -9.2610    5.2670    7.5960 C.3    84  THR84       0.0375
     99  N         -0.4840    7.1560   22.7280 N.3   109  GLU109     -0.1231
    100  CA         0.2380    7.4180   21.4730 C.3   109  GLU109      0.1699
    101  C         -0.3550    6.6040   20.3000 C.2   109  GLU109      0.2592
    102  O         -0.4700    7.1060   19.1770 O.2   109  GLU109     -0.2718
    103  CB         1.7320    7.0950   21.6380 C.3   109  GLU109      0.0402
    104  CG         2.5680    7.3730   20.3990 C.3   109  GLU109      0.1161
    105  CD         4.0440    7.0540   20.5250 C.2   109  GLU109      0.3649
    106  OE1        4.3940    6.0780   21.2270 O.co2 109  GLU109     -0.2457
    107  OE2        4.8500    7.7550   19.8750 O.co2 109  GLU109     -0.2457
    108  N         -0.7110    5.3440   20.5630 N.am  110  GLN110     -0.1979
    109  CA        -1.3010    4.4790   19.5490 C.3   110  GLN110      0.1601
    110  C         -2.6570    5.0460   19.0930 C.2   110  GLN110      0.2287
    111  O         -2.9560    5.0360   17.8970 O.2   110  GLN110     -0.2864
    112  CB        -1.4420    3.0520   20.1020 C.3   110  GLN110      0.0394
    113  CG        -1.3400    1.9680   19.0550 C.3   110  GLN110      0.0908
    114  CD        -0.1610    2.1100   18.1390 C.2   110  GLN110      0.2608
    115  OE1        0.9910    2.1370   18.5580 O.2   110  GLN110     -0.2717
    116  NE2       -0.4400    2.2520   16.8670 N.am  110  GLN110     -0.0878
    117  N         -1.9830    8.0530   16.8530 N.3   113  TRP113     -0.1241
    118  CA        -1.5450    7.5010   15.5710 C.3   113  TRP113      0.1605
    119  C         -2.7480    7.0500   14.7350 C.2   113  TRP113      0.2264
    120  O         -2.8610    7.4290   13.5680 O.2   113  TRP113     -0.2867
    121  CB        -0.5800    6.3220   15.8150 C.3   113  TRP113      0.0550
    122  CG         0.3160    5.9520   14.6660 C.ar  113  TRP113      0.0003
    123  CD1        0.0140    5.9740   13.3330 C.ar  113  TRP113      0.0946
    124  CD2        1.6630    5.4610   14.7640 C.ar  113  TRP113      0.0152
    125  NE1        1.0680    5.4880   12.5970 N.ar  113  TRP113     -0.2442
    126  CE2        2.1170    5.2170   13.4460 C.ar  113  TRP113      0.0810
    127  CE3        2.5410    5.2190   15.8410 C.ar  113  TRP113      0.0012
    128  CZ2        3.4120    4.7470   13.1740 C.ar  113  TRP113      0.0191
    129  CZ3        3.8200    4.7520   15.5710 C.ar  113  TRP113      0.0001
    130  CH2        4.2500    4.5360   14.2510 C.ar  113  TRP113      0.0015
    131  N         -4.9190    9.9950   13.5040 N.3   116  GLY116     -0.1210
    132  CA        -4.2230   10.6960   12.4210 C.3   116  GLY116      0.1956
    133  C         -4.4410    9.9980   11.0890 C.2   116  GLY116      0.2611
    134  O         -4.6950   10.6520   10.0740 O.2   116  GLY116     -0.2717
    135  N         -4.3780    8.6530   11.0880 N.am  117  ASN117     -0.1974
    136  CA        -4.6400    7.8310    9.8840 C.3   117  ASN117      0.1688
    137  C         -6.0890    7.9690    9.4110 C.2   117  ASN117      0.2292
    138  O         -6.3400    8.0840    8.2140 O.2   117  ASN117     -0.2864
    139  CB        -4.3540    6.3550   10.1700 C.3   117  ASN117      0.1181
    140  CG        -2.9050    5.9770   10.0750 C.2   117  ASN117      0.2629
    141  OD1       -2.1620    6.5040    9.2530 O.2   117  ASN117     -0.2716
    142  ND2       -2.5040    4.9690   10.8420 N.am  117  ASN117     -0.0877
    143  N         -6.6440   11.5500    8.1800 N.3   120  GLY120     -0.1210
    144  CA        -5.8430   11.6820    6.9670 C.3   120  GLY120      0.1956
    145  C         -6.4610   11.0650    5.7230 C.2   120  GLY120      0.2611
    146  O         -5.9770   11.2960    4.6170 O.2   120  GLY120     -0.2717
    147  N         -7.5200   10.2590    5.8800 N.am  121  ASP121     -0.1973
    148  CA        -8.1710    9.6280    4.7350 C.3   121  ASP121      0.1709
    149  C         -8.8060   10.6640    3.7850 C.2   121  ASP121      0.2293
    150  O         -8.8270   10.4640    2.5720 O.2   121  ASP121     -0.2864
    151  CB        -9.2380    8.6400    5.2000 C.3   121  ASP121      0.1436
    152  CG        -9.9040    7.9310    4.0470 C.2   121  ASP121      0.3671
    153  OD1       -9.2360    7.1010    3.4080 O.co2 121  ASP121     -0.2456
    154  OD2      -11.0650    8.2760    3.7280 O.co2 121  ASP121     -0.2456
    155  N          6.1350   13.9650   17.9830 N.3   156  ARG156     -0.1231
    156  CA         6.1120   13.8350   16.5180 C.3   156  ARG156      0.1694
    157  C          4.7740   13.2750   16.0440 C.2   156  ARG156      0.2592
    158  O          4.2030   13.7900   15.0740 O.2   156  ARG156     -0.2718
    159  CB         7.2560   12.9290   16.0250 C.3   156  ARG156      0.0321
    160  CG         8.5990   13.6440   16.0130 C.3   156  ARG156      0.0489
    161  CD         9.7210   12.6640   15.7870 C.3   156  ARG156      0.2205
    162  NE        11.0240   13.3280   15.8030 N.pl3 156  ARG156     -0.0865
    163  CZ        12.1810   12.6950   15.6480 C.cat 156  ARG156      0.5346
    164  NH1       12.2080   11.3750   15.4920 N.pl3 156  ARG156      0.1354
    165  NH2       13.3220   13.3660   15.7010 N.pl3 156  ARG156      0.1354
    166  N          4.2570   12.2400   16.7410 N.am  157  ASN157     -0.1974
    167  CA         2.9650   11.6450   16.3940 C.3   157  ASN157      0.1688
    168  C          1.8190   12.6180   16.6190 C.2   157  ASN157      0.2292
    169  O          0.9400   12.7060   15.7620 O.2   157  ASN157     -0.2864
    170  CB         2.7230   10.3300   17.1440 C.3   157  ASN157      0.1181
    171  CG         3.3010    9.1510   16.3970 C.2   157  ASN157      0.2629
    172  OD1        3.0870    8.9830   15.1930 O.2   157  ASN157     -0.2716
    173  ND2        4.0740    8.3230   17.0800 N.am  157  ASN157     -0.0877
    174  N          1.9460   15.2900   13.7990 N.3   160  TRP160     -0.1241
    175  CA         1.5000   14.6900   12.5470 C.3   160  TRP160      0.1605
    176  C         -0.0370   14.5400   12.5260 C.2   160  TRP160      0.2264
    177  O         -0.6710   14.8860   11.5260 O.2   160  TRP160     -0.2867
    178  CB         2.1990   13.3400   12.3110 C.3   160  TRP160      0.0550
    179  CG         1.7180   12.6480   11.0740 C.ar  160  TRP160      0.0003
    180  CD1        2.0560   12.9420    9.7850 C.ar  160  TRP160      0.0946
    181  CD2        0.7800   11.5650   11.0080 C.ar  160  TRP160      0.0152
    182  NE1        1.4060   12.0880    8.9210 N.ar  160  TRP160     -0.2442
    183  CE2        0.6010   11.2480    9.6430 C.ar  160  TRP160      0.0810
    184  CE3        0.1070   10.7970   11.9760 C.ar  160  TRP160      0.0012
    185  CZ2       -0.2330   10.2070    9.2190 C.ar  160  TRP160      0.0191
    186  CZ3       -0.7420    9.7830   11.5500 C.ar  160  TRP160      0.0001
    187  CH2       -0.8950    9.4910   10.1890 C.ar  160  TRP160      0.0015
    188  N         -2.9580   16.4140   10.0670 N.3   164  ASN164     -0.1240
    189  CA        -4.0000   15.7380    9.2850 C.3   164  ASN164      0.1653
    190  C         -5.3710   16.3560    9.5530 C.2   164  ASN164      0.2266
    191  O         -6.2100   16.3890    8.6430 O.2   164  ASN164     -0.2867
    192  CB        -3.9820   14.2360    9.5370 C.3   164  ASN164      0.1155
    193  CG        -3.0780   13.5300    8.5560 C.2   164  ASN164      0.2627
    194  OD1       -2.5730   14.1260    7.6110 O.2   164  ASN164     -0.2716
    195  ND2       -2.8690   12.2480    8.7350 N.am  164  ASN164     -0.0877
    196  N         -5.5110   19.2290    7.1770 N.3   167  ARG167     -0.1245
    197  CA        -5.3670   18.8290    5.7880 C.3   167  ARG167      0.1563
    198  C         -6.7090   18.6580    5.0400 C.2   167  ARG167      0.2260
    199  O         -7.7410   18.4630    5.6590 O.2   167  ARG167     -0.2867
    200  CB        -4.5920   17.5050    5.7690 C.3   167  ARG167      0.0307
    201  CG        -3.9860   17.1530    4.4240 C.3   167  ARG167      0.0489
    202  CD        -3.0660   15.9550    4.5100 C.3   167  ARG167      0.2205
    203  NE        -2.6120   15.6030    3.1670 N.pl3 167  ARG167     -0.0865
    204  CZ        -1.4720   14.9820    2.8890 C.cat 167  ARG167      0.5346
    205  NH1       -0.6360   14.6490    3.8630 N.pl3 167  ARG167      0.1354
    206  NH2       -1.1520   14.7050    1.6330 N.pl3 167  ARG167      0.1354
    207  N         11.5090   17.0760   12.6620 N.3   195  GLU195     -0.1245
    208  CA        10.2890   16.3890   12.2120 C.3   195  GLU195      0.1567
    209  C          9.0280   17.1320   12.6580 C.2   195  GLU195      0.2260
    210  O          8.0910   17.2500   11.8700 O.2   195  GLU195     -0.2867
    211  CB        10.2600   14.9350   12.6750 C.3   195  GLU195      0.0388
    212  CG        11.2500   14.1010   11.8790 C.3   195  GLU195      0.1160
    213  CD        11.2020   12.6050   12.1100 C.2   195  GLU195      0.3649
    214  OE1       10.0970   12.0720   12.3610 O.co2 195  GLU195     -0.2457
    215  OE2       12.2720   11.9630   12.0250 O.co2 195  GLU195     -0.2457
    216  N          6.2950   18.8940   10.0060 N.3   199  ASP199     -0.1239
    217  CA         4.8510   18.6270   10.0330 C.3   199  ASP199      0.1674
    218  C          4.0370   19.8490   10.4570 C.2   199  ASP199      0.2266
    219  O          2.9150   20.0000    9.9710 O.2   199  ASP199     -0.2867
    220  CB         4.5080   17.4070   10.8960 C.3   199  ASP199      0.1410
    221  CG         4.8860   16.0950   10.2270 C.2   199  ASP199      0.3668
    222  OD1        5.0180   16.0770    8.9900 O.co2 199  ASP199     -0.2456
    223  OD2        5.1000   15.1110   10.9440 O.co2 199  ASP199     -0.2456
@<TRIPOS>BOND
     1    85    83    1
     2    83    84    1
     3    83    80    1
     4    90    91    1
     5    90    87    1
     6    86    87    1
     7    86    81   am
     8    80    81    1
     9    80    79    1
    10   206   204    1
    11    87    88    1
    12    81    82    2
    13    88    89    2
    14   150   149    2
    15    79    77   am
    16   204   203    2
    17   204   205    1
    18   203   202    1
    19   153   152   ar
    20    78    77    2
    21    77    76    1
    22   154   152   ar
    23   149   148    1
    24    18    17    2
    25   152   151    1
    26   201   202    1
    27   201   200    1
    28    76    75    1
    29    17    16    1
    30   146   145    2
    31   148   151    1
    32   148   147    1
    33   198   199    2
    34   198   197    1
    35    72    71    2
    36    19    16    1
    37    19    20    1
    38   145   147   am
    39   145   144    1
    40   200   197    1
    41   197   196    1
    42    92    93    1
    43    75    71   am
    44    16    15    1
    45    97    96    1
    46    71    70    1
    47    22    21   ar
    48    21    23   ar
    49    21    20    1
    50    96    93    1
    51    96    98    1
    52    93    94    1
    53   144   143    1
    54    94    95    2
    55   194   193    2
    56    70    73    1
    57    70    69    1
    58    67    66    2
    59    74    73    1
    60   138   137    2
    61    66    69   am
    62    66    65    1
    63   193   195   am
    64   193   192    1
    65    59    58    2
    66   191   190    2
    67   182   183   ar
    68   182   180   ar
    69   222   221   ar
    70   185   183   ar
    71   185   187   ar
    72   141   140    2
    73    65    64    1
    74    65    68    1
    75   189   192    1
    76   189   190    1
    77   189   188    1
    78   137   136    1
    79     8     6    1
    80     4     3    2
    81   183   181   ar
    82   180   179   ar
    83    58    57    1
    84   136   139    1
    85   136   135    1
    86   219   218    2
    87   216   217    1
    88   217   218    1
    89   217   220    1
    90   134   133    2
    91    12    11    2
    92   140   139    1
    93   140   142   am
    94   187   186   ar
    95    11    10    1
    96   221   220    1
    97   221   223   ar
    98     3     2    1
    99     3     9   am
   100     2     1    1
   101     2     5    1
   102    57    60    1
   103    57    56    1
   104     6     5    1
   105     6     7    1
   106   181   179   ar
   107   181   184   ar
   108   179   178    1
   109   135   133   am
   110   133   132    1
   111     9    10    1
   112    52    51    2
   113    10    13    1
   114    60    61    1
   115   177   176    2
   116   186   184   ar
   117    62    61    2
   118   210   209    2
   119   212   213    1
   120   212   211    1
   121    61    63   am
   122   215   213   ar
   123    56    51   am
   124    51    50    1
   125   213   214   ar
   126   208   209    1
   127   208   207    1
   128   208   211    1
   129   178   175    1
   130   132   131    1
   131   176   175    1
   132   175   174    1
   133   125   123   ar
   134   125   126   ar
   135    13    14    1
   136   128   126   ar
   137   128   130   ar
   138   123   122   ar
   139    50    49    1
   140    50    53    1
   141   126   124   ar
   142   120   119    2
   143    55    53    1
   144   130   129   ar
   145    53    54    1
   146   122   124   ar
   147   122   121    1
   148   119   118    1
   149   124   127   ar
   150    38    37    2
   151   158   157    2
   152   172   171    2
   153    43    41   ar
   154    43    44   ar
   155   164   163    1
   156   118   121    1
   157   118   117    1
   158   129   127   ar
   159   163   165    1
   160   163   162    2
   161    41    40   ar
   162   169   168    2
   163   161   162    1
   164   161   160    1
   165    37    36    1
   166   160   159    1
   167   159   156    1
   168   157   156    1
   169   157   166   am
   170    44    46   ar
   171    44    42   ar
   172   167   168    1
   173   167   166    1
   174   167   170    1
   175   171   173   am
   176   171   170    1
   177    46    48   ar
   178   156   155    1
   179   116   114   am
   180    40    42   ar
   181    40    39    1
   182    36    39    1
   183    36    35    1
   184    42    45   ar
   185    48    47   ar
   186   111   110    2
   187   114   115    2
   188   114   113    1
   189    45    47   ar
   190   113   112    1
   191   110   109    1
   192   102   101    2
   193   109   112    1
   194   109   108    1
   195   107   105   ar
   196   101   108   am
   197   101   100    1
   198   104   105    1
   199   104   103    1
   200   105   106   ar
   201    27    26    2
   202   100   103    1
   203   100    99    1
   204    34    32   ar
   205    34    33   ar
   206    32    30   ar
   207    26    25    1
   208    33    31   ar
   209    30    29   ar
   210    31    29   ar
   211    29    28    1
   212    25    28    1
   213    25    24    1
