@<TRIPOS>MOLECULE
tmp/3zioA01.pdb
 213 206 0 0 0
SMALL
GASTEIGER

@<TRIPOS>ATOM
      1  N          1.9220   -6.1700   11.0770 N.3    34  SER34      -0.1217
      2  CA         3.1610   -5.3900   11.1940 C.3    34  SER34       0.1889
      3  C          4.2750   -5.8420   10.2400 C.2    34  SER34       0.2288
      4  O          5.2790   -5.1310   10.1290 O.2    34  SER34      -0.2866
      5  CB         3.6930   -5.4570   12.6240 C.3    34  SER34       0.2089
      6  OG         2.8550   -4.7320   13.5030 O.3    34  SER34      -0.2183
      7  N          6.5810   -6.4460    6.9550 N.3    36  GLU36      -0.1245
      8  CA         6.9680   -5.5530    5.8590 C.3    36  GLU36       0.1567
      9  C          6.2810   -5.8960    4.5300 C.2    36  GLU36       0.2260
     10  O          5.7300   -4.9980    3.8870 O.2    36  GLU36      -0.2867
     11  CB         8.4940   -5.5570    5.6630 C.3    36  GLU36       0.0388
     12  CG         9.2440   -4.6800    6.6530 C.3    36  GLU36       0.1160
     13  CD        10.7140   -4.4710    6.3390 C.2    36  GLU36       0.3649
     14  OE1       11.4640   -5.4720    6.2770 O.co2  36  GLU36      -0.2457
     15  OE2       11.1170   -3.2980    6.1620 O.co2  36  GLU36      -0.2457
     16  N         -3.5120   -2.0240   23.9970 N.3    67  PHE67      -0.1241
     17  CA        -2.3740   -1.6400   23.1730 C.3    67  PHE67       0.1605
     18  C         -2.2860   -2.5020   21.9040 C.2    67  PHE67       0.2264
     19  O         -2.1280   -1.9510   20.8140 O.2    67  PHE67      -0.2867
     20  CB        -1.0580   -1.7170   23.9890 C.3    67  PHE67       0.0534
     21  CG         0.1910   -1.4150   23.1920 C.ar   67  PHE67      -0.0203
     22  CD1        0.3890   -0.1610   22.6210 C.ar   67  PHE67      -0.0042
     23  CD2        1.1670   -2.3870   23.0050 C.ar   67  PHE67      -0.0042
     24  CE1        1.5380    0.1140   21.8780 C.ar   67  PHE67      -0.0003
     25  CE2        2.3220   -2.1080   22.2700 C.ar   67  PHE67      -0.0003
     26  CZ         2.5030   -0.8560   21.7170 C.ar   67  PHE67      -0.0000
     27  N         -2.8610   -1.1450   18.1140 N.3    71  TRP71      -0.1241
     28  CA        -1.7840   -1.2870   17.1280 C.3    71  TRP71       0.1605
     29  C         -2.3280   -2.0260   15.8820 C.2    71  TRP71       0.2264
     30  O         -2.1220   -1.5500   14.7550 O.2    71  TRP71      -0.2867
     31  CB        -0.5650   -2.0090   17.7560 C.3    71  TRP71       0.0550
     32  CG         0.7010   -2.0350   16.9370 C.ar   71  TRP71       0.0003
     33  CD1        0.8300   -1.7980   15.5980 C.ar   71  TRP71       0.0946
     34  CD2        2.0140   -2.3920   17.4070 C.ar   71  TRP71       0.0152
     35  NE1        2.1310   -1.9960   15.2030 N.ar   71  TRP71      -0.2442
     36  CE2        2.8830   -2.3560   16.2930 C.ar   71  TRP71       0.0810
     37  CE3        2.5380   -2.7600   18.6600 C.ar   71  TRP71       0.0012
     38  CZ2        4.2570   -2.6230   16.4020 C.ar   71  TRP71       0.0191
     39  CZ3        3.8980   -3.0300   18.7650 C.ar   71  TRP71       0.0001
     40  CH2        4.7410   -2.9580   17.6470 C.ar   71  TRP71       0.0015
     41  N         -4.5670    0.3140   13.9960 N.3    74  THR74      -0.1203
     42  CA        -3.7730    1.4070   13.4090 C.3    74  THR74       0.1994
     43  C         -3.2190    0.9440   12.0580 C.2    74  THR74       0.2617
     44  O         -3.2580    1.7040   11.0940 O.2    74  THR74      -0.2717
     45  CB        -2.6510    1.8550   14.3680 C.3    74  THR74       0.1784
     46  OG1       -3.2310    2.3920   15.5540 O.3    74  THR74      -0.2211
     47  CG2       -1.7330    2.9020   13.7540 C.3    74  THR74       0.0376
     48  N         -2.7310   -0.3110   11.9980 N.am   75  ASN75      -0.1974
     49  CA        -2.1740   -0.9250   10.7900 C.3    75  ASN75       0.1688
     50  C         -3.2580   -1.1230    9.7340 C.2    75  ASN75       0.2292
     51  O         -2.9850   -0.8970    8.5610 O.2    75  ASN75      -0.2864
     52  CB        -1.4720   -2.2430   11.1110 C.3    75  ASN75       0.1181
     53  CG        -0.1110   -2.0760   11.7530 C.2    75  ASN75       0.2629
     54  OD1        0.5520   -1.0480   11.6130 O.2    75  ASN75      -0.2716
     55  ND2        0.3370   -3.0900   12.4760 N.am   75  ASN75      -0.0877
     56  N         -6.1580    0.7910    9.5720 N.3    77  ALA77      -0.1231
     57  CA        -6.5300    2.1850    9.2520 C.3    77  ALA77       0.1694
     58  C         -5.4980    2.9020    8.3560 C.2    77  ALA77       0.2593
     59  O         -5.8590    3.8440    7.6420 O.2    77  ALA77      -0.2718
     60  CB        -6.7320    2.9810   10.5340 C.3    77  ALA77       0.0304
     61  N         -4.2300    2.4480    8.3810 N.am   78  SER78      -0.1938
     62  CA        -3.1400    3.0010    7.5690 C.3    78  SER78       0.2055
     63  C         -3.2060    2.5580    6.0940 C.2    78  SER78       0.2644
     64  O         -2.4840    3.1120    5.2610 O.2    78  SER78      -0.2714
     65  CB        -1.7910    2.5950    8.1510 C.3    78  SER78       0.2130
     66  OG        -1.5470    1.2150    7.9520 O.3    78  SER78      -0.2179
     67  N         -4.0550    1.5780    5.7920 N.am   79  GLY79      -0.1939
     68  CA        -4.2180    1.0350    4.4480 C.3    79  GLY79       0.2014
     69  C         -5.0470    1.8870    3.5080 C.2    79  GLY79       0.2640
     70  O         -4.9870    3.1190    3.5550 O.2    79  GLY79      -0.2714
     71  N         -5.8300    1.2300    2.6380 N.am   80  THR80      -0.1936
     72  CA        -6.6860    1.9060    1.6570 C.3    80  THR80       0.2028
     73  C         -7.8780    2.5890    2.3510 C.2    80  THR80       0.2642
     74  O         -8.1330    2.3280    3.5270 O.2    80  THR80      -0.2714
     75  CB        -7.1620    0.9020    0.5910 C.3    80  THR80       0.1808
     76  OG1       -8.0220   -0.0600    1.2000 O.3    80  THR80      -0.2208
     77  CG2       -6.0070    0.1990   -0.1170 C.3    80  THR80       0.0379
     78  N         -8.6070    3.4500    1.6240 N.am   81  SER81      -0.1949
     79  CA        -9.8000    4.1360    2.1300 C.3    81  SER81       0.1924
     80  C        -10.8540    3.1410    2.6000 C.2    81  SER81       0.2314
     81  O        -11.4760    3.3620    3.6380 O.2    81  SER81      -0.2863
     82  CB       -10.3910    5.0500    1.0600 C.3    81  SER81       0.2116
     83  OG        -9.5100    6.1340    0.8380 O.3    81  SER81      -0.2180
     84  N         -9.6330    1.7540    5.9320 N.3    84  THR84      -0.1218
     85  CA        -9.8920    2.7560    6.9470 C.3    84  THR84       0.1862
     86  C        -11.3790    2.8040    7.2770 C.2    84  THR84       0.2287
     87  O        -11.7520    2.9050    8.4290 O.2    84  THR84      -0.2866
     88  CB        -9.4020    4.1480    6.5150 C.3    84  THR84       0.1770
     89  OG1       -8.0160    4.0860    6.1950 O.3    84  THR84      -0.2211
     90  CG2       -9.6100    5.1540    7.6250 C.3    84  THR84       0.0375
     91  N         -0.5530    7.1940   22.7340 N.3   109  GLU109     -0.1231
     92  CA         0.1910    7.4300   21.4910 C.3   109  GLU109      0.1699
     93  C         -0.3820    6.6050   20.3290 C.2   109  GLU109      0.2592
     94  O         -0.4660    7.0930   19.2010 O.2   109  GLU109     -0.2718
     95  CB         1.6710    7.0650   21.6960 C.3   109  GLU109      0.0402
     96  CG         2.5740    7.4500   20.5400 C.3   109  GLU109      0.1161
     97  CD         4.0310    7.0550   20.6840 C.2   109  GLU109      0.3649
     98  OE1        4.3360    6.1200   21.4610 O.co2 109  GLU109     -0.2457
     99  OE2        4.8670    7.6630   19.9800 O.co2 109  GLU109     -0.2457
    100  N         -0.7400    5.3480   20.6070 N.am  110  GLN110     -0.1979
    101  CA        -1.3240    4.4590   19.6120 C.3   110  GLN110      0.1601
    102  C         -2.6860    5.0020   19.1610 C.2   110  GLN110      0.2287
    103  O         -2.9900    4.9720   17.9700 O.2   110  GLN110     -0.2864
    104  CB        -1.4370    3.0290   20.1730 C.3   110  GLN110      0.0394
    105  CG        -1.3190    1.9440   19.1130 C.3   110  GLN110      0.0908
    106  CD        -0.1450    2.1290   18.1900 C.2   110  GLN110      0.2608
    107  OE1        1.0140    2.1130   18.6010 O.2   110  GLN110     -0.2717
    108  NE2       -0.4320    2.3450   16.9240 N.am  110  GLN110     -0.0878
    109  N         -1.9830    8.0290   16.8810 N.3   113  TRP113     -0.1241
    110  CA        -1.5740    7.4750   15.5880 C.3   113  TRP113      0.1605
    111  C         -2.7880    7.0040   14.7600 C.2   113  TRP113      0.2264
    112  O         -2.8890    7.3470   13.5790 O.2   113  TRP113     -0.2867
    113  CB        -0.6070    6.3040   15.8030 C.3   113  TRP113      0.0550
    114  CG         0.2480    5.9310   14.6200 C.ar  113  TRP113      0.0003
    115  CD1       -0.1220    5.8910   13.3060 C.ar  113  TRP113      0.0946
    116  CD2        1.5960    5.4440   14.6710 C.ar  113  TRP113      0.0152
    117  NE1        0.9090    5.4150   12.5350 N.ar  113  TRP113     -0.2442
    118  CE2        1.9850    5.1450   13.3440 C.ar  113  TRP113      0.0810
    119  CE3        2.5200    5.2330   15.7130 C.ar  113  TRP113      0.0012
    120  CZ2        3.2710    4.6830   13.0260 C.ar  113  TRP113      0.0191
    121  CZ3        3.7860    4.7580   15.3980 C.ar  113  TRP113      0.0001
    122  CH2        4.1570    4.5050   14.0670 C.ar  113  TRP113      0.0015
    123  N         -4.9490    9.9070   13.4830 N.3   116  GLY116     -0.1210
    124  CA        -4.2550   10.5950   12.3930 C.3   116  GLY116      0.1956
    125  C         -4.4760    9.9010   11.0550 C.2   116  GLY116      0.2611
    126  O         -4.7260   10.5630   10.0470 O.2   116  GLY116     -0.2717
    127  N         -4.4370    8.5520   11.0540 N.am  117  ASN117     -0.1974
    128  CA        -4.7020    7.6960    9.8830 C.3   117  ASN117      0.1688
    129  C         -6.1540    7.8310    9.4260 C.2   117  ASN117      0.2292
    130  O         -6.4050    7.9320    8.2260 O.2   117  ASN117     -0.2864
    131  CB        -4.4020    6.2210   10.2030 C.3   117  ASN117      0.1181
    132  CG        -2.9480    5.8460   10.1220 C.2   117  ASN117      0.2629
    133  OD1       -2.1520    6.4960    9.4460 O.2   117  ASN117     -0.2716
    134  ND2       -2.5840    4.7350   10.7630 N.am  117  ASN117     -0.0877
    135  N         -6.6770   11.4700    8.1950 N.3   120  GLY120     -0.1210
    136  CA        -5.9360   11.6110    6.9590 C.3   120  GLY120      0.1956
    137  C         -6.5430   10.9570    5.7300 C.2   120  GLY120      0.2611
    138  O         -6.0800   11.1630    4.6320 O.2   120  GLY120     -0.2717
    139  N         -7.5810   10.1650    5.9120 N.am  121  ASP121     -0.1973
    140  CA        -8.2380    9.5440    4.7830 C.3   121  ASP121      0.1709
    141  C         -8.9270   10.5650    3.8690 C.2   121  ASP121      0.2293
    142  O         -9.0110   10.3660    2.6740 O.2   121  ASP121     -0.2864
    143  CB        -9.2450    8.5130    5.2570 C.3   121  ASP121      0.1436
    144  CG        -9.9430    7.8360    4.1200 C.2   121  ASP121      0.3671
    145  OD1       -9.2950    7.0320    3.4430 O.co2 121  ASP121     -0.2456
    146  OD2      -11.1260    8.1230    3.8930 O.co2 121  ASP121     -0.2456
    147  N          1.9070   15.2650   13.7560 N.3   160  TRP160     -0.1241
    148  CA         1.4610   14.6450   12.5230 C.3   160  TRP160      0.1605
    149  C         -0.0710   14.4940   12.5020 C.2   160  TRP160      0.2264
    150  O         -0.6850   14.8470   11.4970 O.2   160  TRP160     -0.2867
    151  CB         2.1560   13.2920   12.2910 C.3   160  TRP160      0.0550
    152  CG         1.6090   12.5610   11.1060 C.ar  160  TRP160      0.0003
    153  CD1        1.8180   12.8620    9.7930 C.ar  160  TRP160      0.0946
    154  CD2        0.6900   11.4600   11.1250 C.ar  160  TRP160      0.0152
    155  NE1        1.1050   11.9990    8.9910 N.ar  160  TRP160     -0.2442
    156  CE2        0.3940   11.1370    9.7820 C.ar  160  TRP160      0.0810
    157  CE3        0.1010   10.6990   12.1500 C.ar  160  TRP160      0.0012
    158  CZ2       -0.4470   10.0740    9.4340 C.ar  160  TRP160      0.0191
    159  CZ3       -0.7480    9.6560   11.8040 C.ar  160  TRP160      0.0001
    160  CH2       -1.0110    9.3510   10.4620 C.ar  160  TRP160      0.0015
    161  N         -3.0600   16.3740    9.9960 N.3   164  ASN164     -0.1240
    162  CA        -4.0900   15.6860    9.2010 C.3   164  ASN164      0.1653
    163  C         -5.4730   16.2800    9.4740 C.2   164  ASN164      0.2266
    164  O         -6.3460   16.2110    8.6030 O.2   164  ASN164     -0.2867
    165  CB        -4.0820   14.1760    9.4480 C.3   164  ASN164      0.1155
    166  CG        -3.1130   13.4580    8.5430 C.2   164  ASN164      0.2627
    167  OD1       -2.5030   14.0410    7.6480 O.2   164  ASN164     -0.2716
    168  ND2       -2.9550   12.1730    8.7440 N.am  164  ASN164     -0.0877
    169  N         -5.5330   19.1910    7.1370 N.3   167  ARG167     -0.1245
    170  CA        -5.4270   18.7440    5.7590 C.3   167  ARG167      0.1563
    171  C         -6.7770   18.5760    5.0610 C.2   167  ARG167      0.2260
    172  O         -7.8010   18.4040    5.7080 O.2   167  ARG167     -0.2867
    173  CB        -4.6790   17.4030    5.7400 C.3   167  ARG167      0.0307
    174  CG        -4.0400   17.0590    4.4130 C.3   167  ARG167      0.0489
    175  CD        -3.1660   15.8350    4.5240 C.3   167  ARG167      0.2205
    176  NE        -2.6000   15.5000    3.2210 N.pl3 167  ARG167     -0.0865
    177  CZ        -1.5050   14.7740    3.0400 C.cat 167  ARG167      0.5346
    178  NH1       -0.8330   14.3010    4.0830 N.pl3 167  ARG167      0.1354
    179  NH2       -1.0670   14.5190    1.8150 N.pl3 167  ARG167      0.1354
    180  N          6.2420   18.8410    9.9550 N.3   199  ASP199     -0.1239
    181  CA         4.8050   18.5730   10.0210 C.3   199  ASP199      0.1674
    182  C          3.9930   19.7990   10.4500 C.2   199  ASP199      0.2266
    183  O          2.8420   19.9130   10.0330 O.2   199  ASP199     -0.2867
    184  CB         4.4900   17.3650   10.9150 C.3   199  ASP199      0.1410
    185  CG         4.8220   16.0330   10.2600 C.2   199  ASP199      0.3668
    186  OD1        4.9300   15.9920    9.0190 O.co2 199  ASP199     -0.2456
    187  OD2        4.9900   15.0400   10.9900 O.co2 199  ASP199     -0.2456
    188  N          3.7450   21.7400    7.2780 N.3   202  TRP202     -0.1241
    189  CA         2.7730   21.0850    6.4070 C.3   202  TRP202      0.1605
    190  C          1.3640   21.4880    6.8290 C.2   202  TRP202      0.2264
    191  O          0.5770   21.8520    5.9620 O.2   202  TRP202     -0.2867
    192  CB         2.9240   19.5470    6.3820 C.3   202  TRP202      0.0550
    193  CG         3.9900   19.0700    5.4410 C.ar  202  TRP202      0.0003
    194  CD1        5.1040   18.3540    5.7640 C.ar  202  TRP202      0.0946
    195  CD2        4.0550   19.2970    4.0210 C.ar  202  TRP202      0.0152
    196  NE1        5.8570   18.1120    4.6370 N.ar  202  TRP202     -0.2442
    197  CE2        5.2430   18.6890    3.5550 C.ar  202  TRP202      0.0810
    198  CE3        3.2240   19.9660    3.0940 C.ar  202  TRP202      0.0012
    199  CZ2        5.6260   18.7260    2.2040 C.ar  202  TRP202      0.0191
    200  CZ3        3.6070   20.0110    1.7610 C.ar  202  TRP202      0.0001
    201  CH2        4.8000   19.4060    1.3290 C.ar  202  TRP202      0.0015
    202  N         -1.3960   23.6180    4.5460 N.3   206  TYR206     -0.1241
    203  CA        -2.7750   23.1890    4.2830 C.3   206  TYR206      0.1605
    204  C         -3.7740   24.2960    4.6310 C.2   206  TYR206      0.2264
    205  O         -4.7150   24.5370    3.8720 O.2   206  TYR206     -0.2867
    206  CB        -3.1540   21.9180    5.0720 C.3   206  TYR206      0.0534
    207  CG        -2.2120   20.7340    4.9950 C.ar  206  TYR206     -0.0201
    208  CD1       -1.5330   20.4270    3.8160 C.ar  206  TYR206     -0.0009
    209  CD2       -2.0600   19.8710    6.0780 C.ar  206  TYR206     -0.0009
    210  CE1       -0.6780   19.3290    3.7400 C.ar  206  TYR206      0.0417
    211  CE2       -1.2090   18.7670    6.0110 C.ar  206  TYR206      0.0417
    212  CZ        -0.5270   18.4970    4.8380 C.ar  206  TYR206      0.1957
    213  OH         0.2780   17.3900    4.7640 O.3   206  TYR206     -0.2866
@<TRIPOS>BOND
     1    77    75    1
     2    75    76    1
     3    75    72    1
     4    83    82    1
     5    82    79    1
     6   201   200   ar
     7   201   199   ar
     8    78    79    1
     9    78    73   am
    10    72    73    1
    11    72    71    1
    12   200   198   ar
    13   179   177    1
    14    79    80    1
    15   199   197   ar
    16    73    74    2
    17    80    81    2
    18    71    69   am
    19   142   141    2
    20   177   176    2
    21   177   178    1
    22   198   195   ar
    23   176   175    1
    24   145   144   ar
    25    69    70    2
    26    69    68    1
    27   197   195   ar
    28   197   196   ar
    29   210   208   ar
    30   210   212   ar
    31   208   207   ar
    32   141   140    1
    33   205   204    2
    34    10     9    2
    35   146   144   ar
    36   195   193   ar
    37   144   143    1
    38   203   202    1
    39   203   204    1
    40   203   206    1
    41   174   175    1
    42   174   173    1
    43    68    67    1
    44     9     8    1
    45   138   137    2
    46   196   194   ar
    47   213   212    1
    48   140   143    1
    49   140   139    1
    50   212   211   ar
    51   207   206    1
    52   207   209   ar
    53   171   172    2
    54   171   170    1
    55    64    63    2
    56   193   194   ar
    57   193   192    1
    58    11     8    1
    59    11    12    1
    60   137   139   am
    61   137   136    1
    62   173   170    1
    63   170   169    1
    64    67    63   am
    65     8     7    1
    66    84    85    1
    67   191   190    2
    68   211   209   ar
    69    63    62    1
    70    15    13   ar
    71    89    88    1
    72    14    13   ar
    73    13    12    1
    74   192   189    1
    75   189   190    1
    76   189   188    1
    77    88    85    1
    78    88    90    1
    79    85    86    1
    80   136   135    1
    81    86    87    2
    82    62    65    1
    83    62    61    1
    84    59    58    2
    85   167   166    2
    86    66    65    1
    87   130   129    2
    88    58    61   am
    89    58    57    1
    90   166   168   am
    91   166   165    1
    92    51    50    2
    93   164   163    2
    94   155   156   ar
    95   155   153   ar
    96   186   185   ar
    97   162   165    1
    98   162   163    1
    99   162   161    1
   100    57    56    1
   101    57    60    1
   102   129   128    1
   103   158   156   ar
   104   158   160   ar
   105   133   132    2
   106    50    49    1
   107   156   154   ar
   108   153   152   ar
   109   128   131    1
   110   128   127    1
   111   180   181    1
   112   181   182    1
   113   181   184    1
   114   183   182    2
   115   126   125    2
   116   132   131    1
   117   132   134   am
   118     4     3    2
   119     3     2    1
   120   185   184    1
   121   185   187   ar
   122   160   159   ar
   123    49    52    1
   124    49    48    1
   125   127   125   am
   126   125   124    1
   127     1     2    1
   128    44    43    2
   129   152   154   ar
   130   152   151    1
   131    52    53    1
   132   154   157   ar
   133     2     5    1
   134   150   149    2
   135    54    53    2
   136    53    55   am
   137   159   157   ar
   138    48    43   am
   139    43    42    1
   140   151   148    1
   141   124   123    1
   142   149   148    1
   143   148   147    1
   144   117   115   ar
   145   117   118   ar
   146     5     6    1
   147   120   118   ar
   148   120   122   ar
   149   115   114   ar
   150   118   116   ar
   151    42    41    1
   152    42    45    1
   153   112   111    2
   154    47    45    1
   155   122   121   ar
   156    45    46    1
   157   114   116   ar
   158   114   113    1
   159   116   119   ar
   160    30    29    2
   161   111   110    1
   162    35    33   ar
   163    35    36   ar
   164   121   119   ar
   165   110   113    1
   166   110   109    1
   167    33    32   ar
   168    29    28    1
   169    36    38   ar
   170    36    34   ar
   171    38    40   ar
   172   108   106   am
   173    32    34   ar
   174    32    31    1
   175    28    31    1
   176    28    27    1
   177    34    37   ar
   178    40    39   ar
   179   103   102    2
   180   106   107    2
   181   106   105    1
   182    37    39   ar
   183   105   104    1
   184   102   101    1
   185    94    93    2
   186   101   104    1
   187   101   100    1
   188    99    97   ar
   189    93   100   am
   190    93    92    1
   191    96    97    1
   192    96    95    1
   193    97    98   ar
   194    19    18    2
   195    92    95    1
   196    92    91    1
   197    26    24   ar
   198    26    25   ar
   199    24    22   ar
   200    18    17    1
   201    25    23   ar
   202    22    21   ar
   203    23    21   ar
   204    17    20    1
   205    17    16    1
   206    21    20    1
