@<TRIPOS>MOLECULE
tmp/3zioA00.pdb
 194 181 0 0 0
SMALL
GASTEIGER

@<TRIPOS>ATOM
      1  N         -9.3660   19.5930    1.3820 N.3   169  LYS169     -0.1245
      2  CA       -10.2750   20.6410    0.9420 C.3   169  LYS169      0.1561
      3  C        -11.5690   20.0120    0.4300 C.2   169  LYS169      0.2260
      4  O        -11.7330   18.7940    0.5070 O.2   169  LYS169     -0.2867
      5  CB        -9.5930   21.5010   -0.1420 C.3   169  LYS169      0.0271
      6  CG        -8.4510   22.3870    0.3660 C.3   169  LYS169      0.0035
      7  CD        -7.6200   22.9960   -0.7760 C.3   169  LYS169      0.0206
      8  CE        -8.2870   24.1730   -1.4530 C.3   169  LYS169      0.1093
      9  NZ        -7.4020   24.8130   -2.4620 N.3   169  LYS169     -0.1314
     10  N         -3.7860   27.2060    2.0840 N.3   209  ASP209     -0.1239
     11  CA        -4.1910   26.8180    0.7430 C.3   209  ASP209      0.1674
     12  C         -5.7200   26.9770    0.6240 C.2   209  ASP209      0.2266
     13  O         -6.4690   26.0030    0.7250 O.2   209  ASP209     -0.2867
     14  CB        -3.7260   25.3780    0.4380 C.3   209  ASP209      0.1410
     15  CG        -4.0400   24.8550   -0.9550 C.2   209  ASP209      0.3668
     16  OD1       -4.2470   25.6820   -1.8760 O.co2 209  ASP209     -0.2456
     17  OD2       -4.0580   23.6200   -1.1310 O.co2 209  ASP209     -0.2456
     18  N          5.9550   26.1750    0.5300 N.3   244  ARG244     -0.1245
     19  CA         4.5600   25.9810    0.1310 C.3   244  ARG244      0.1563
     20  C          3.6520   26.9580    0.8950 C.2   244  ARG244      0.2260
     21  O          2.8010   27.6020    0.2750 O.2   244  ARG244     -0.2867
     22  CB         4.1060   24.5250    0.3720 C.3   244  ARG244      0.0307
     23  CG         2.6870   24.2300   -0.1210 C.3   244  ARG244      0.0489
     24  CD         2.6150   24.0320   -1.6280 C.3   244  ARG244      0.2205
     25  NE         3.5380   22.9850   -2.0840 N.pl3 244  ARG244     -0.0865
     26  CZ         3.2340   21.6950   -2.1750 C.cat 244  ARG244      0.5346
     27  NH1        2.0180   21.2680   -1.8570 N.pl3 244  ARG244      0.1354
     28  NH2        4.1400   20.8240   -2.5940 N.pl3 244  ARG244      0.1354
     29  N          1.6190   30.0370   -0.6450 N.3   248  ASN248     -0.1240
     30  CA         0.1670   30.1140   -0.4540 C.3   248  ASN248      0.1653
     31  C         -0.2570   31.4770    0.0970 C.2   248  ASN248      0.2266
     32  O         -1.2520   32.0280   -0.3670 O.2   248  ASN248     -0.2867
     33  CB        -0.3240   29.0110    0.4790 C.3   248  ASN248      0.1155
     34  CG        -0.3630   27.6310   -0.1190 C.2   248  ASN248      0.2627
     35  OD1       -0.3620   27.4350   -1.3390 O.2   248  ASN248     -0.2716
     36  ND2       -0.4510   26.6370    0.7420 N.am  248  ASN248     -0.0877
     37  N          1.2010   34.4150   -0.3310 N.3   250  VAL250     -0.1231
     38  CA         1.3580   35.4500   -1.3680 C.3   250  VAL250      0.1692
     39  C          0.2880   35.3090   -2.4990 C.2   250  VAL250      0.2593
     40  O          0.2480   36.1590   -3.3890 O.2   250  VAL250     -0.2718
     41  CB         2.8030   35.5970   -1.9290 C.3   250  VAL250      0.0266
     42  CG1        3.8010   35.8920   -0.8090 C.3   250  VAL250      0.0020
     43  CG2        3.2350   34.3870   -2.7480 C.3   250  VAL250      0.0020
     44  N         -0.6100   34.2930   -2.4270 N.am  251  THR251     -0.1939
     45  CA        -1.7410   34.1830   -3.3670 C.3   251  THR251      0.2028
     46  C         -2.8950   35.0650   -2.8470 C.2   251  THR251      0.2642
     47  O         -3.8740   35.2990   -3.5640 O.2   251  THR251     -0.2714
     48  CB        -2.2240   32.7300   -3.5680 C.3   251  THR251      0.1808
     49  OG1       -2.8690   32.2710   -2.3760 O.3   251  THR251     -0.2208
     50  CG2       -1.1260   31.7800   -4.0240 C.3   251  THR251      0.0379
     51  N         -2.7650   35.5170   -1.5930 N.am  252  GLY252     -0.1954
     52  CA        -3.7470   36.3460   -0.9040 C.3   252  GLY252      0.1869
     53  C         -3.7500   37.8050   -1.3120 C.2   252  GLY252      0.2309
     54  O         -3.4630   38.1320   -2.4650 O.2   252  GLY252     -0.2863
     55  N         -2.6890   42.0090   -1.1830 N.3   254  ASP254     -0.1239
     56  CA        -1.4340   42.7480   -1.2950 C.3   254  ASP254      0.1674
     57  C         -0.8400   42.9620    0.1000 C.2   254  ASP254      0.2266
     58  O          0.3790   42.9130    0.2570 O.2   254  ASP254     -0.2867
     59  CB        -1.6530   44.0890   -2.0250 C.3   254  ASP254      0.1410
     60  CG        -2.0530   43.9530   -3.4890 C.2   254  ASP254      0.3668
     61  OD1       -1.8220   42.8680   -4.0760 O.co2 254  ASP254     -0.2456
     62  OD2       -2.5670   44.9400   -4.0570 O.co2 254  ASP254     -0.2456
     63  N          0.6490   39.6370    1.3080 N.3   257  THR257     -0.1218
     64  CA         1.8950   39.4980    0.5430 C.3   257  THR257      0.1862
     65  C          2.9800   40.3980    1.1600 C.2   257  THR257      0.2287
     66  O          4.1430   39.9830    1.2180 O.2   257  THR257     -0.2866
     67  CB         1.6570   39.8170   -0.9520 C.3   257  THR257      0.1770
     68  OG1        0.7010   38.9000   -1.4740 O.3   257  THR257     -0.2211
     69  CG2        2.9380   39.7390   -1.8020 C.3   257  THR257      0.0375
     70  N         10.9400   25.4200   -8.7700 N.3   282  LYS282     -0.1231
     71  CA         9.6250   25.5750   -9.3820 C.3   282  LYS282      0.1693
     72  C          8.6660   26.3690   -8.4720 C.2   282  LYS282      0.2591
     73  O          8.0560   27.3370   -8.9350 O.2   282  LYS282     -0.2718
     74  CB         9.0470   24.1910   -9.7150 C.3   282  LYS282      0.0285
     75  CG         7.7110   24.2100  -10.4590 C.3   282  LYS282      0.0035
     76  CD         7.0800   22.8180  -10.5170 C.3   282  LYS282      0.0206
     77  CE         6.4210   22.3900   -9.2220 C.3   282  LYS282      0.1093
     78  NZ         6.2090   20.9180   -9.1850 N.3   282  LYS282     -0.1314
     79  N          8.5400   25.9590   -7.1880 N.am  283  GLU283     -0.1979
     80  CA         7.6270   26.5990   -6.2300 C.3   283  GLU283      0.1602
     81  C          8.1550   27.9540   -5.7860 C.2   283  GLU283      0.2287
     82  O          7.3490   28.8360   -5.5080 O.2   283  GLU283     -0.2864
     83  CB         7.3230   25.6900   -5.0400 C.3   283  GLU283      0.0415
     84  CG         6.4730   24.5060   -5.4790 C.3   283  GLU283      0.1163
     85  CD         5.9480   23.5690   -4.4110 C.2   283  GLU283      0.3649
     86  OE1        5.8360   23.9900   -3.2370 O.co2 283  GLU283     -0.2457
     87  OE2        5.6050   22.4190   -4.7660 O.co2 283  GLU283     -0.2457
     88  N          7.1210   30.1700   -8.6840 N.3   286  TRP286     -0.1241
     89  CA         5.6740   30.3660   -8.5790 C.3   286  TRP286      0.1605
     90  C          5.3860   31.4530   -7.5240 C.2   286  TRP286      0.2264
     91  O          4.5680   32.3350   -7.7620 O.2   286  TRP286     -0.2867
     92  CB         4.9930   29.0390   -8.2210 C.3   286  TRP286      0.0550
     93  CG         3.6120   29.1620   -7.6400 C.ar  286  TRP286      0.0003
     94  CD1        2.4950   29.6400   -8.2610 C.ar  286  TRP286      0.0946
     95  CD2        3.2010   28.7550   -6.3290 C.ar  286  TRP286      0.0152
     96  NE1        1.4080   29.5450   -7.4210 N.ar  286  TRP286     -0.2442
     97  CE2        1.8130   29.0030   -6.2280 C.ar  286  TRP286      0.0810
     98  CE3        3.8720   28.1850   -5.2300 C.ar  286  TRP286      0.0012
     99  CZ2        1.0840   28.7220   -5.0630 C.ar  286  TRP286      0.0191
    100  CZ3        3.1450   27.8930   -4.0830 C.ar  286  TRP286      0.0001
    101  CH2        1.7730   28.1730   -4.0010 C.ar  286  TRP286      0.0015
    102  N          6.2610   34.8150   -8.9580 N.3   289  SER289     -0.1202
    103  CA         5.2190   35.2000   -9.9070 C.3   289  SER289      0.2020
    104  C          4.0370   35.8830   -9.2060 C.2   289  SER289      0.2618
    105  O          3.4940   36.8430   -9.7470 O.2   289  SER289     -0.2717
    106  CB         4.7400   33.9920  -10.7100 C.3   289  SER289      0.2103
    107  OG         3.7140   33.2700  -10.0490 O.3   289  SER289     -0.2182
    108  N          3.6630   35.4070   -8.0050 N.am  290  ASN290     -0.1974
    109  CA         2.5660   35.9860   -7.2380 C.3   290  ASN290      0.1688
    110  C          2.9720   37.2900   -6.5480 C.2   290  ASN290      0.2292
    111  O          2.1060   38.1280   -6.2860 O.2   290  ASN290     -0.2864
    112  CB         1.9990   34.9840   -6.2560 C.3   290  ASN290      0.1181
    113  CG         1.1070   33.9920   -6.9480 C.2   290  ASN290      0.2629
    114  OD1        0.4380   34.3050   -7.9340 O.2   290  ASN290     -0.2716
    115  ND2        1.1050   32.7660   -6.4800 N.am  290  ASN290     -0.0877
    116  N          2.8960   39.9160   -9.2560 N.3   293  ALA293     -0.1231
    117  CA         1.4730   40.1520   -9.5240 C.3   293  ALA293      0.1694
    118  C          0.9120   41.1790   -8.5230 C.2   293  ALA293      0.2592
    119  O         -0.2700   41.4990   -8.5660 O.2   293  ALA293     -0.2718
    120  CB         0.6940   38.8430   -9.4310 C.3   293  ALA293      0.0304
    121  N          1.7710   41.6860   -7.6360 N.am  294  GLY294     -0.1957
    122  CA         1.3730   42.6610   -6.6290 C.3   294  GLY294      0.1869
    123  C          1.5610   44.1090   -7.0270 C.2   294  GLY294      0.2309
    124  O          1.6510   44.4340   -8.2170 O.2   294  GLY294     -0.2863
    125  N          8.8650   23.1840  -16.2420 N.3   321  LYS321     -0.1245
    126  CA         7.8280   23.6070  -15.2920 C.3   321  LYS321      0.1561
    127  C          8.2210   24.9180  -14.5820 C.2   321  LYS321      0.2260
    128  O          7.3700   25.7860  -14.3980 O.2   321  LYS321     -0.2867
    129  CB         7.5510   22.5030  -14.2640 C.3   321  LYS321      0.0271
    130  CG         6.8380   21.2820  -14.8350 C.3   321  LYS321      0.0035
    131  CD         6.5350   20.2710  -13.7350 C.3   321  LYS321      0.0206
    132  CE         5.8780   19.0100  -14.2510 C.3   321  LYS321      0.1093
    133  NZ         4.4150   19.1810  -14.4590 N.3   321  LYS321     -0.1314
    134  N          8.0820   27.8190  -17.1670 N.3   324  LYS324     -0.1231
    135  CA         6.6930   28.2490  -17.3750 C.3   324  LYS324      0.1693
    136  C          6.2900   29.2450  -16.2710 C.2   324  LYS324      0.2591
    137  O          5.6530   30.2580  -16.5620 O.2   324  LYS324     -0.2718
    138  CB         5.7400   27.0360  -17.4210 C.3   324  LYS324      0.0285
    139  CG         4.2980   27.3850  -17.8180 C.3   324  LYS324      0.0035
    140  CD         3.6340   26.3170  -18.6870 C.3   324  LYS324      0.0206
    141  CE         2.8640   25.2910  -17.8920 C.3   324  LYS324      0.1093
    142  NZ         1.9390   24.5130  -18.7540 N.3   324  LYS324     -0.1314
    143  N          6.7090   28.9780  -15.0190 N.am  325  GLU325     -0.1979
    144  CA         6.4460   29.8500  -13.8660 C.3   325  GLU325      0.1602
    145  C          7.2490   31.1510  -13.9830 C.2   325  GLU325      0.2287
    146  O          6.7720   32.2020  -13.5460 O.2   325  GLU325     -0.2864
    147  CB         6.7610   29.1240  -12.5400 C.3   325  GLU325      0.0415
    148  CG         5.7130   28.0870  -12.1580 C.3   325  GLU325      0.1163
    149  CD         4.2980   28.6310  -12.0820 C.2   325  GLU325      0.3649
    150  OE1        4.0810   29.6140  -11.3420 O.co2 325  GLU325     -0.2457
    151  OE2        3.4320   28.1440  -12.8410 O.co2 325  GLU325     -0.2457
    152  N          5.4160   33.3450  -16.3820 N.3   328  TRP328     -0.1241
    153  CA         4.3170   33.9380  -15.6140 C.3   328  TRP328      0.1605
    154  C          4.8130   35.1080  -14.7510 C.2   328  TRP328      0.2264
    155  O          4.1650   36.1470  -14.7320 O.2   328  TRP328     -0.2867
    156  CB         3.6260   32.8960  -14.7230 C.3   328  TRP328      0.0550
    157  CG         2.5100   32.1490  -15.3830 C.ar  328  TRP328      0.0003
    158  CD1        2.5020   30.8310  -15.7290 C.ar  328  TRP328      0.0946
    159  CD2        1.2110   32.6610  -15.7180 C.ar  328  TRP328      0.0152
    160  NE1        1.2850   30.4910  -16.2740 N.ar  328  TRP328     -0.2442
    161  CE2        0.4730   31.5960  -16.2790 C.ar  328  TRP328      0.0810
    162  CE3        0.6060   33.9280  -15.6220 C.ar  328  TRP328      0.0012
    163  CZ2       -0.8460   31.7530  -16.7330 C.ar  328  TRP328      0.0191
    164  CZ3       -0.6980   34.0840  -16.0730 C.ar  328  TRP328      0.0001
    165  CH2       -1.4100   33.0050  -16.6220 C.ar  328  TRP328      0.0015
    166  N          5.4210   38.1240  -17.1190 N.3   331  THR331     -0.1203
    167  CA         4.1520   38.6910  -17.6020 C.3   331  THR331      0.1994
    168  C          3.4510   39.4620  -16.4710 C.2   331  THR331      0.2617
    169  O          2.9180   40.5370  -16.7330 O.2   331  THR331     -0.2717
    170  CB         3.2490   37.6100  -18.2300 C.3   331  THR331      0.1784
    171  OG1        3.9990   36.9440  -19.2420 O.3   331  THR331     -0.2211
    172  CG2        1.9980   38.1920  -18.8820 C.3   331  THR331      0.0376
    173  N          3.4900   38.9440  -15.2260 N.am  332  ASN332     -0.1974
    174  CA         2.8840   39.6180  -14.0680 C.3   332  ASN332      0.1688
    175  C          3.6100   40.9430  -13.7840 C.2   332  ASN332      0.2292
    176  O          2.9580   41.9740  -13.6090 O.2   332  ASN332     -0.2864
    177  CB         2.8840   38.7040  -12.8350 C.3   332  ASN332      0.1181
    178  CG         1.9300   37.5330  -12.9490 C.2   332  ASN332      0.2629
    179  OD1        1.0960   37.4610  -13.8540 O.2   332  ASN332     -0.2716
    180  ND2        2.0620   36.5640  -12.0600 N.am  332  ASN332     -0.0877
    181  N          2.8420   43.5030  -16.5590 N.3   335  SER335     -0.1217
    182  CA         1.4440   43.9460  -16.4810 C.3   335  SER335      0.1889
    183  C          1.2520   45.0500  -15.4350 C.2   335  SER335      0.2288
    184  O          0.5390   46.0170  -15.6960 O.2   335  SER335     -0.2866
    185  CB         0.5210   42.7780  -16.1440 C.3   335  SER335      0.2089
    186  OG         0.1300   42.0600  -17.3010 O.3   335  SER335     -0.2183
    187  N          1.9450   37.8440  -24.3820 N.3   371  ASP371     -0.1239
    188  CA         1.3660   38.8930  -23.5380 C.3   371  ASP371      0.1674
    189  C          2.4750   39.7900  -22.9720 C.2   371  ASP371      0.2266
    190  O          2.3320   41.0140  -22.9980 O.2   371  ASP371     -0.2867
    191  CB         0.5350   38.2930  -22.3850 C.3   371  ASP371      0.1410
    192  CG        -0.8230   37.7260  -22.7600 C.2   371  ASP371      0.3668
    193  OD1       -1.5310   38.3590  -23.5830 O.co2 371  ASP371     -0.2456
    194  OD2       -1.2110   36.6900  -22.1790 O.co2 371  ASP371     -0.2456
@<TRIPOS>BOND
     1   187   188    1
     2   193   192   ar
     3   188   189    1
     4   188   191    1
     5   190   189    2
     6   192   191    1
     7   192   194   ar
     8   171   170    1
     9   172   170    1
    10   142   141    1
    11   140   141    1
    12   140   139    1
    13   170   167    1
    14   139   138    1
    15   167   166    1
    16   167   168    1
    17   138   135    1
    18   135   134    1
    19   135   136    1
    20   186   185    1
    21   169   168    2
    22   163   165   ar
    23   163   161   ar
    24   165   164   ar
    25   137   136    2
    26   181   182    1
    27   182   185    1
    28   182   183    1
    29   168   173   am
    30   152   153    1
    31   161   160   ar
    32   161   159   ar
    33   160   158   ar
    34   136   143   am
    35   125   126    1
    36   164   162   ar
    37   158   157   ar
    38   159   162   ar
    39   159   157   ar
    40   184   183    2
    41   153   154    1
    42   153   156    1
    43   157   156    1
    44   126   127    1
    45   126   129    1
    46   173   174    1
    47   143   144    1
    48   130   129    1
    49   130   131    1
    50   154   155    2
    51   127   128    2
    52   133   132    1
    53   132   131    1
    54   174   175    1
    55   174   177    1
    56   145   144    1
    57   145   146    2
    58   144   147    1
    59   179   178    2
    60   175   176    2
    61   178   177    1
    62   178   180   am
    63   151   149   ar
    64   147   148    1
    65   148   149    1
    66   149   150   ar
    67   106   107    1
    68   106   103    1
    69    76    75    1
    70    76    77    1
    71    75    74    1
    72   103   104    1
    73   103   102    1
    74   105   104    2
    75    74    71    1
    76   117   120    1
    77   117   116    1
    78   117   118    1
    79    71    70    1
    80    71    72    1
    81    77    78    1
    82   104   108   am
    83    73    72    2
    84    88    89    1
    85    89    92    1
    86    89    90    1
    87   119   118    2
    88   118   121   am
    89    72    79   am
    90    94    93   ar
    91    94    96   ar
    92    92    93    1
    93   124   123    2
    94   108   109    1
    95   114   113    2
    96    91    90    2
    97    93    95   ar
    98   121   122    1
    99    96    97   ar
   100   109   110    1
   101   109   112    1
   102    79    80    1
   103   123   122    1
   104   113   115   am
   105   113   112    1
   106   110   111    2
   107    95    97   ar
   108    95    98   ar
   109    80    81    1
   110    80    83    1
   111    97    99   ar
   112    81    82    2
   113    84    83    1
   114    84    85    1
   115    98   100   ar
   116    99   101   ar
   117    87    85   ar
   118    85    86   ar
   119   100   101   ar
   120    61    60   ar
   121    62    60   ar
   122    50    48    1
   123    48    45    1
   124    48    49    1
   125    47    46    2
   126    60    59    1
   127    40    39    2
   128    45    46    1
   129    45    44    1
   130    46    51   am
   131    43    41    1
   132    28    26    1
   133    39    44   am
   134    39    38    1
   135    54    53    2
   136     9     8    1
   137    26    25    2
   138    26    27    1
   139    25    24    1
   140    59    56    1
   141    41    38    1
   142    41    42    1
   143    16    15   ar
   144    69    67    1
   145    24    23    1
   146    51    52    1
   147    68    67    1
   148     8     7    1
   149    38    37    1
   150    35    34    2
   151    53    52    1
   152    56    55    1
   153    56    57    1
   154    17    15   ar
   155    15    14    1
   156    67    64    1
   157     7     6    1
   158    29    30    1
   159    30    31    1
   160    30    33    1
   161    32    31    2
   162     5     6    1
   163     5     2    1
   164    23    22    1
   165    34    33    1
   166    34    36   am
   167    57    58    2
   168    19    22    1
   169    19    18    1
   170    19    20    1
   171    21    20    2
   172     3     4    2
   173     3     2    1
   174    14    11    1
   175    64    65    1
   176    64    63    1
   177    12    13    2
   178    12    11    1
   179    11    10    1
   180     2     1    1
   181    65    66    2
