@<TRIPOS>MOLECULE
tmp/3zipA00.pdb
 209 197 0 0 0
SMALL
GASTEIGER

@<TRIPOS>ATOM
      1  N         -9.7630   19.5210    1.3410 N.3   169  LYS169     -0.1231
      2  CA       -10.6530   20.5880    0.9170 C.3   169  LYS169      0.1693
      3  C        -11.9730   19.9990    0.3850 C.2   169  LYS169      0.2592
      4  O        -12.1660   18.7750    0.3950 O.2   169  LYS169     -0.2718
      5  CB        -9.9470   21.4570   -0.1370 C.3   169  LYS169      0.0285
      6  CG        -8.9240   22.4410    0.4430 C.3   169  LYS169      0.0035
      7  CD        -7.9790   22.9970   -0.6270 C.3   169  LYS169      0.0206
      8  CE        -8.5870   24.0690   -1.5050 C.3   169  LYS169      0.1093
      9  NZ        -7.6740   24.4500   -2.6130 N.3   169  LYS169     -0.1314
     10  N        -12.8980   20.8810   -0.0090 N.am  170  ASN170     -0.1974
     11  CA       -14.2360   20.5440   -0.5000 C.3   170  ASN170      0.1688
     12  C        -14.9570   19.5630    0.4830 C.2   170  ASN170      0.2292
     13  O        -15.2660   18.4160    0.1310 O.2   170  ASN170     -0.2864
     14  CB       -14.1800   20.0110   -1.9450 C.3   170  ASN170      0.1181
     15  CG       -13.2370   20.8140   -2.8280 C.2   170  ASN170      0.2629
     16  OD1      -13.3700   22.0380   -2.9880 O.2   170  ASN170     -0.2716
     17  ND2      -12.2120   20.1540   -3.3540 N.am  170  ASN170     -0.0877
     18  N         -4.1140   27.1960    1.9550 N.3   209  ASP209     -0.1239
     19  CA        -4.5960   26.7570    0.6530 C.3   209  ASP209      0.1674
     20  C         -6.1320   26.9370    0.5740 C.2   209  ASP209      0.2266
     21  O         -6.8900   25.9740    0.6110 O.2   209  ASP209     -0.2867
     22  CB        -4.1730   25.2940    0.4190 C.3   209  ASP209      0.1410
     23  CG        -4.4210   24.7500   -0.9720 C.2   209  ASP209      0.3668
     24  OD1       -4.6270   25.5620   -1.9060 O.co2 209  ASP209     -0.2456
     25  OD2       -4.3740   23.5210   -1.1370 O.co2 209  ASP209     -0.2456
     26  N          5.7100   26.2240    0.2850 N.3   244  ARG244     -0.1245
     27  CA         4.3060   26.0410   -0.0940 C.3   244  ARG244      0.1563
     28  C          3.3760   27.0070    0.7100 C.2   244  ARG244      0.2260
     29  O          2.5040   27.6540    0.1220 O.2   244  ARG244     -0.2867
     30  CB         3.8660   24.5710    0.1070 C.3   244  ARG244      0.0307
     31  CG         2.4090   24.3190   -0.3410 C.3   244  ARG244      0.0489
     32  CD         2.2540   24.2400   -1.8560 C.3   244  ARG244      0.2205
     33  NE         3.1510   23.2130   -2.3920 N.pl3 244  ARG244     -0.0865
     34  CZ         2.8450   21.9250   -2.5050 C.cat 244  ARG244      0.5346
     35  NH1        1.6270   21.4960   -2.1960 N.pl3 244  ARG244      0.1354
     36  NH2        3.7430   21.0610   -2.9570 N.pl3 244  ARG244      0.1354
     37  N          1.3320   30.0870   -0.9320 N.3   248  ASN248     -0.1240
     38  CA        -0.1130   30.1480   -0.7400 C.3   248  ASN248      0.1653
     39  C         -0.5340   31.5230   -0.2200 C.2   248  ASN248      0.2266
     40  O         -1.4770   32.1100   -0.7500 O.2   248  ASN248     -0.2867
     41  CB        -0.5860   29.0570    0.2390 C.3   248  ASN248      0.1155
     42  CG        -0.6830   27.6720   -0.3250 C.2   248  ASN248      0.2627
     43  OD1       -0.7530   27.4630   -1.5460 O.2   248  ASN248     -0.2716
     44  ND2       -0.7510   26.6880    0.5670 N.am  248  ASN248     -0.0877
     45  N          0.8420   34.3780   -0.6710 N.3   250  VAL250     -0.1231
     46  CA         0.9600   35.4290   -1.6730 C.3   250  VAL250      0.1692
     47  C         -0.0450   35.3130   -2.8110 C.2   250  VAL250      0.2593
     48  O         -0.0340   36.1190   -3.7240 O.2   250  VAL250     -0.2718
     49  CB         2.3880   35.5730   -2.2280 C.3   250  VAL250      0.0266
     50  CG1        3.3440   35.9160   -1.1240 C.3   250  VAL250      0.0020
     51  CG2        2.8240   34.3310   -2.9560 C.3   250  VAL250      0.0020
     52  N         -0.9220   34.3210   -2.7400 N.am  251  THR251     -0.1939
     53  CA        -2.0230   34.2120   -3.6810 C.3   251  THR251      0.2028
     54  C         -3.1770   35.0480   -3.1580 C.2   251  THR251      0.2643
     55  O         -4.1380   35.3190   -3.8620 O.2   251  THR251     -0.2714
     56  CB        -2.4940   32.7660   -3.8600 C.3   251  THR251      0.1808
     57  OG1       -2.9110   32.2450   -2.6010 O.3   251  THR251     -0.2208
     58  CG2       -1.3930   31.9070   -4.4070 C.3   251  THR251      0.0379
     59  N         -3.0560   35.4530   -1.9040 N.am  252  GLY252     -0.1939
     60  CA        -4.0340   36.3000   -1.2340 C.3   252  GLY252      0.2014
     61  C         -4.0340   37.7500   -1.6650 C.2   252  GLY252      0.2640
     62  O         -3.7460   38.0570   -2.8240 O.2   252  GLY252     -0.2714
     63  N         -4.3830   38.6580   -0.7300 N.am  253  THR253     -0.1936
     64  CA        -4.4500   40.1060   -0.9780 C.3   253  THR253      0.2028
     65  C         -3.0320   40.6900   -1.0980 C.2   253  THR253      0.2642
     66  O         -2.0490   40.0210   -0.7420 O.2   253  THR253     -0.2714
     67  CB        -5.2360   40.8280    0.1450 C.3   253  THR253      0.1808
     68  OG1       -4.5080   40.7110    1.3710 O.3   253  THR253     -0.2208
     69  CG2       -6.6700   40.3220    0.3080 C.3   253  THR253      0.0379
     70  N         -2.9390   41.9390   -1.5860 N.am  254  ASP254     -0.1971
     71  CA        -1.6920   42.6850   -1.7090 C.3   254  ASP254      0.1709
     72  C         -1.1090   42.9620   -0.3130 C.2   254  ASP254      0.2293
     73  O          0.1100   42.9630   -0.1370 O.2   254  ASP254     -0.2864
     74  CB        -1.9170   44.0000   -2.4850 C.3   254  ASP254      0.1436
     75  CG        -2.2580   43.8560   -3.9640 C.2   254  ASP254      0.3671
     76  OD1       -1.9820   42.7810   -4.5410 O.co2 254  ASP254     -0.2456
     77  OD2       -2.7420   44.8460   -4.5620 O.co2 254  ASP254     -0.2456
     78  N          0.3780   39.7400    0.9420 N.3   257  THR257     -0.1218
     79  CA         1.6290   39.5630    0.2310 C.3   257  THR257      0.1862
     80  C          2.7210   40.4240    0.8360 C.2   257  THR257      0.2287
     81  O          3.8800   40.0480    0.8430 O.2   257  THR257     -0.2866
     82  CB         1.4720   39.9180   -1.2490 C.3   257  THR257      0.1770
     83  OG1        0.5260   39.0340   -1.8490 O.3   257  THR257     -0.2211
     84  CG2        2.7840   39.7920   -1.9710 C.3   257  THR257      0.0375
     85  N         10.7750   25.5030   -8.9750 N.3   282  LYS282     -0.1231
     86  CA         9.4480   25.6390   -9.5760 C.3   282  LYS282      0.1693
     87  C          8.4800   26.4280   -8.6660 C.2   282  LYS282      0.2591
     88  O          7.8540   27.3920   -9.1320 O.2   282  LYS282     -0.2718
     89  CB         8.8740   24.2450   -9.8700 C.3   282  LYS282      0.0285
     90  CG         7.6660   24.2390  -10.7960 C.3   282  LYS282      0.0035
     91  CD         6.9900   22.8480  -10.8510 C.3   282  LYS282      0.0206
     92  CE         6.3470   22.4370   -9.5390 C.3   282  LYS282      0.1093
     93  NZ         5.8920   21.0240   -9.5550 N.3   282  LYS282     -0.1314
     94  N          8.3600   26.0120   -7.3790 N.am  283  GLU283     -0.1979
     95  CA         7.4620   26.6490   -6.4200 C.3   283  GLU283      0.1602
     96  C          7.9610   28.0120   -6.0150 C.2   283  GLU283      0.2287
     97  O          7.1350   28.9070   -5.8130 O.2   283  GLU283     -0.2864
     98  CB         7.2110   25.7650   -5.2050 C.3   283  GLU283      0.0415
     99  CG         6.3840   24.5740   -5.6380 C.3   283  GLU283      0.1163
    100  CD         5.5450   23.8530   -4.6140 C.2   283  GLU283      0.3649
    101  OE1        5.4570   24.3220   -3.4570 O.co2 283  GLU283     -0.2457
    102  OE2        4.9380   22.8280   -4.9920 O.co2 283  GLU283     -0.2457
    103  N          7.0150   30.1990   -8.9190 N.3   286  TRP286     -0.1241
    104  CA         5.5690   30.3540   -8.8170 C.3   286  TRP286      0.1605
    105  C          5.2690   31.4600   -7.7860 C.2   286  TRP286      0.2264
    106  O          4.4920   32.3650   -8.0860 O.2   286  TRP286     -0.2867
    107  CB         4.9160   29.0030   -8.4380 C.3   286  TRP286      0.0550
    108  CG         3.5320   29.0850   -7.8510 C.ar  286  TRP286      0.0003
    109  CD1        2.4050   29.5580   -8.4580 C.ar  286  TRP286      0.0946
    110  CD2        3.1360   28.6710   -6.5310 C.ar  286  TRP286      0.0152
    111  NE1        1.3270   29.4560   -7.6020 N.ar  286  TRP286     -0.2442
    112  CE2        1.7480   28.9190   -6.4120 C.ar  286  TRP286      0.0810
    113  CE3        3.8200   28.1080   -5.4370 C.ar  286  TRP286      0.0012
    114  CZ2        1.0320   28.6330   -5.2410 C.ar  286  TRP286      0.0191
    115  CZ3        3.1090   27.8270   -4.2730 C.ar  286  TRP286      0.0001
    116  CH2        1.7330   28.0850   -4.1840 C.ar  286  TRP286      0.0015
    117  N          6.0880   34.8220   -9.2970 N.3   289  SER289     -0.1202
    118  CA         5.0480   35.2290  -10.2450 C.3   289  SER289      0.2020
    119  C          3.8520   35.8850   -9.5250 C.2   289  SER289      0.2618
    120  O          3.2780   36.8480  -10.0410 O.2   289  SER289     -0.2717
    121  CB         4.6000   34.0510  -11.1130 C.3   289  SER289      0.2103
    122  OG         3.6880   33.1630  -10.4870 O.3   289  SER289     -0.2182
    123  N          3.5240   35.4110   -8.3160 N.am  290  ASN290     -0.1974
    124  CA         2.4280   35.9780   -7.5330 C.3   290  ASN290      0.1688
    125  C          2.8470   37.2730   -6.8430 C.2   290  ASN290      0.2292
    126  O          1.9960   38.1190   -6.5960 O.2   290  ASN290     -0.2864
    127  CB         1.8630   34.9650   -6.5490 C.3   290  ASN290      0.1181
    128  CG         0.9720   33.9770   -7.2550 C.2   290  ASN290      0.2629
    129  OD1        0.2760   34.2990   -8.2210 O.2   290  ASN290     -0.2716
    130  ND2        1.0280   32.7410   -6.8510 N.am  290  ASN290     -0.0877
    131  N          2.7520   39.8220   -9.6100 N.3   293  ALA293     -0.1231
    132  CA         1.3440   40.0970   -9.9480 C.3   293  ALA293      0.1694
    133  C          0.7640   41.1450   -8.9860 C.2   293  ALA293      0.2592
    134  O         -0.3980   41.5090   -9.1160 O.2   293  ALA293     -0.2718
    135  CB         0.5180   38.8230   -9.9000 C.3   293  ALA293      0.0304
    136  N          1.5850   41.6330   -8.0550 N.am  294  GLY294     -0.1957
    137  CA         1.1940   42.6200   -7.0570 C.3   294  GLY294      0.1869
    138  C          1.3640   44.0710   -7.4590 C.2   294  GLY294      0.2309
    139  O          1.3710   44.4120   -8.6510 O.2   294  GLY294     -0.2863
    140  N          8.9730   23.1430  -16.4980 N.3   321  LYS321     -0.1245
    141  CA         7.9150   23.5800  -15.5810 C.3   321  LYS321      0.1561
    142  C          8.2980   24.8770  -14.8460 C.2   321  LYS321      0.2260
    143  O          7.4340   25.7260  -14.6380 O.2   321  LYS321     -0.2867
    144  CB         7.5650   22.4770  -14.5710 C.3   321  LYS321      0.0271
    145  CG         6.8320   21.2950  -15.1880 C.3   321  LYS321      0.0035
    146  CD         6.6840   20.1580  -14.1780 C.3   321  LYS321      0.0206
    147  CE         5.8850   18.9870  -14.7110 C.3   321  LYS321      0.1093
    148  NZ         4.4230   19.2740  -14.7520 N.3   321  LYS321     -0.1314
    149  N          8.1850   27.7490  -17.3880 N.3   324  LYS324     -0.1231
    150  CA         6.7780   28.1170  -17.5700 C.3   324  LYS324      0.1693
    151  C          6.3480   29.0940  -16.4580 C.2   324  LYS324      0.2591
    152  O          5.7380   30.1250  -16.7560 O.2   324  LYS324     -0.2718
    153  CB         5.8810   26.8650  -17.6080 C.3   324  LYS324      0.0285
    154  CG         4.4420   27.1290  -18.0500 C.3   324  LYS324      0.0035
    155  CD         3.7530   25.8540  -18.5090 C.3   324  LYS324      0.0206
    156  CE         2.2870   26.0740  -18.7940 C.3   324  LYS324      0.1093
    157  NZ         1.6020   24.8070  -19.1500 N.3   324  LYS324     -0.1314
    158  N          6.7220   28.8050  -15.1990 N.am  325  GLU325     -0.1979
    159  CA         6.4410   29.6790  -14.0500 C.3   325  GLU325      0.1602
    160  C          7.2260   30.9970  -14.1670 C.2   325  GLU325      0.2287
    161  O          6.7250   32.0360  -13.7300 O.2   325  GLU325     -0.2864
    162  CB         6.7700   28.9760  -12.7180 C.3   325  GLU325      0.0415
    163  CG         5.7890   27.8830  -12.3440 C.3   325  GLU325      0.1163
    164  CD         4.3450   28.3460  -12.3330 C.2   325  GLU325      0.3649
    165  OE1        4.0430   29.3170  -11.6050 O.co2 325  GLU325     -0.2457
    166  OE2        3.5400   27.8060  -13.1240 O.co2 325  GLU325     -0.2457
    167  N          5.3570   33.3160  -16.6080 N.3   328  TRP328     -0.1241
    168  CA         4.2420   33.9050  -15.8600 C.3   328  TRP328      0.1605
    169  C          4.7220   35.0900  -15.0050 C.2   328  TRP328      0.2264
    170  O          4.0660   36.1260  -14.9820 O.2   328  TRP328     -0.2867
    171  CB         3.5710   32.8480  -14.9630 C.3   328  TRP328      0.0550
    172  CG         2.4770   32.0740  -15.6370 C.ar  328  TRP328      0.0003
    173  CD1        2.4970   30.7540  -15.9790 C.ar  328  TRP328      0.0946
    174  CD2        1.1940   32.5760  -16.0400 C.ar  328  TRP328      0.0152
    175  NE1        1.3050   30.4010  -16.5730 N.ar  328  TRP328     -0.2442
    176  CE2        0.4860   31.4990  -16.6210 C.ar  328  TRP328      0.0810
    177  CE3        0.5680   33.8360  -15.9610 C.ar  328  TRP328      0.0012
    178  CZ2       -0.8140   31.6440  -17.1340 C.ar  328  TRP328      0.0191
    179  CZ3       -0.7130   33.9830  -16.4820 C.ar  328  TRP328      0.0001
    180  CH2       -1.3900   32.8970  -17.0580 C.ar  328  TRP328      0.0015
    181  N          5.3960   38.0510  -17.4710 N.3   331  THR331     -0.1203
    182  CA         4.1330   38.6280  -17.9580 C.3   331  THR331      0.1994
    183  C          3.4370   39.4360  -16.8480 C.2   331  THR331      0.2617
    184  O          2.9150   40.5130  -17.1310 O.2   331  THR331     -0.2717
    185  CB         3.2160   37.5300  -18.5280 C.3   331  THR331      0.1784
    186  OG1        3.8550   36.9750  -19.6710 O.3   331  THR331     -0.2211
    187  CG2        1.8540   38.0520  -18.9500 C.3   331  THR331      0.0376
    188  N          3.4470   38.9380  -15.6060 N.am  332  ASN332     -0.1974
    189  CA         2.8280   39.6210  -14.4730 C.3   332  ASN332      0.1688
    190  C          3.5220   40.9450  -14.1780 C.2   332  ASN332      0.2292
    191  O          2.8440   41.9670  -14.0150 O.2   332  ASN332     -0.2864
    192  CB         2.8130   38.7140  -13.2400 C.3   332  ASN332      0.1181
    193  CG         1.8060   37.5940  -13.3590 C.2   332  ASN332      0.2629
    194  OD1        1.0070   37.5240  -14.3100 O.2   332  ASN332     -0.2716
    195  ND2        1.8400   36.6740  -12.4150 N.am  332  ASN332     -0.0877
    196  N          2.8650   43.5050  -16.8980 N.3   335  SER335     -0.1217
    197  CA         1.4570   43.8990  -16.8380 C.3   335  SER335      0.1889
    198  C          1.2340   45.0090  -15.8110 C.2   335  SER335      0.2288
    199  O          0.5360   45.9820  -16.1050 O.2   335  SER335     -0.2866
    200  CB         0.5840   42.6990  -16.4820 C.3   335  SER335      0.2089
    201  OG        -0.7850   43.0500  -16.3690 O.3   335  SER335     -0.2183
    202  N          1.9810   37.7020  -24.5510 N.3   371  ASP371     -0.1239
    203  CA         1.4100   38.7610  -23.7090 C.3   371  ASP371      0.1674
    204  C          2.5280   39.6580  -23.1790 C.2   371  ASP371      0.2266
    205  O          2.3650   40.8770  -23.1660 O.2   371  ASP371     -0.2867
    206  CB         0.6100   38.1800  -22.5260 C.3   371  ASP371      0.1410
    207  CG        -0.7880   37.6730  -22.8220 C.2   371  ASP371      0.3668
    208  OD1       -1.4630   38.2560  -23.7080 O.co2 371  ASP371     -0.2456
    209  OD2       -1.2390   36.7430  -22.1190 O.co2 371  ASP371     -0.2456
@<TRIPOS>BOND
     1   202   203    1
     2   203   204    1
     3   203   206    1
     4   208   207   ar
     5   204   205    2
     6   207   206    1
     7   207   209   ar
     8   186   185    1
     9   157   156    1
    10   187   185    1
    11   156   155    1
    12   185   182    1
    13   155   154    1
    14   154   153    1
    15   182   181    1
    16   182   183    1
    17   153   150    1
    18   150   149    1
    19   150   151    1
    20   178   180   ar
    21   178   176   ar
    22   184   183    2
    23   180   179   ar
    24   196   197    1
    25   183   188   am
    26   197   200    1
    27   197   198    1
    28   152   151    2
    29   176   175   ar
    30   176   174   ar
    31   167   168    1
    32   175   173   ar
    33   140   141    1
    34   200   201    1
    35   179   177   ar
    36   151   158   am
    37   199   198    2
    38   174   177   ar
    39   174   172   ar
    40   173   172   ar
    41   168   169    1
    42   168   171    1
    43   172   171    1
    44   188   189    1
    45   141   142    1
    46   141   144    1
    47   158   159    1
    48   145   144    1
    49   145   146    1
    50   169   170    2
    51   142   143    2
    52   148   147    1
    53   147   146    1
    54   189   190    1
    55   189   192    1
    56   194   193    2
    57   190   191    2
    58   160   159    1
    59   160   161    2
    60   159   162    1
    61   193   192    1
    62   193   195   am
    63   166   164   ar
    64   162   163    1
    65   163   164    1
    66   164   165   ar
    67   121   122    1
    68   121   118    1
    69    91    90    1
    70    91    92    1
    71    90    89    1
    72   118   119    1
    73   118   117    1
    74   120   119    2
    75   132   135    1
    76   132   131    1
    77   132   133    1
    78    89    86    1
    79    86    85    1
    80    86    87    1
    81    93    92    1
    82   119   123   am
    83    88    87    2
    84   134   133    2
    85   133   136   am
    86   103   104    1
    87   104   107    1
    88   104   105    1
    89    87    94   am
    90   139   138    2
    91   109   108   ar
    92   109   111   ar
    93   107   108    1
    94   123   124    1
    95   129   128    2
    96   106   105    2
    97   136   137    1
    98   108   110   ar
    99   111   112   ar
   100   124   125    1
   101   124   127    1
   102   138   137    1
   103    94    95    1
   104   128   130   am
   105   128   127    1
   106   125   126    2
   107   110   112   ar
   108   110   113   ar
   109    95    96    1
   110    95    98    1
   111   112   114   ar
   112    96    97    2
   113    99    98    1
   114    99   100    1
   115   113   115   ar
   116   114   116   ar
   117   102   100   ar
   118   100   101   ar
   119    77    75   ar
   120    76    75   ar
   121    58    56    1
   122   115   116   ar
   123    75    74    1
   124    55    54    2
   125    56    53    1
   126    56    57    1
   127    48    47    2
   128    53    54    1
   129    53    52    1
   130    17    15   am
   131    54    59   am
   132    16    15    2
   133    36    34    1
   134    51    49    1
   135    15    14    1
   136    62    61    2
   137    47    52   am
   138    47    46    1
   139     9     8    1
   140    34    33    2
   141    34    35    1
   142    74    71    1
   143    33    32    1
   144    49    46    1
   145    49    50    1
   146    84    82    1
   147    14    11    1
   148    24    23   ar
   149    59    60    1
   150    32    31    1
   151    83    82    1
   152    71    70    1
   153    71    72    1
   154    46    45    1
   155    61    60    1
   156    61    63   am
   157    70    65   am
   158    43    42    2
   159     8     7    1
   160    82    79    1
   161    25    23   ar
   162    65    64    1
   163    65    66    2
   164    64    63    1
   165    64    67    1
   166    23    22    1
   167    37    38    1
   168    40    39    2
   169    38    39    1
   170    38    41    1
   171     7     6    1
   172    11    10    1
   173    11    12    1
   174    31    30    1
   175    42    41    1
   176    42    44   am
   177    72    73    2
   178     5     6    1
   179     5     2    1
   180    27    30    1
   181    27    26    1
   182    27    28    1
   183    10     3   am
   184    29    28    2
   185    13    12    2
   186    67    69    1
   187    67    68    1
   188    79    80    1
   189    79    78    1
   190     3     4    2
   191     3     2    1
   192    22    19    1
   193    20    21    2
   194    20    19    1
   195    19    18    1
   196    80    81    2
   197     2     1    1
