@<TRIPOS>MOLECULE
tmp/3zizA00.pdb
 125 123 0 0 0
SMALL
GASTEIGER

@<TRIPOS>ATOM
      1  N         23.0110    0.0370   45.5430 N.3    53  TRP53      -0.1241
      2  CA        24.3150   -0.2560   44.9300 C.3    53  TRP53       0.1605
      3  C         24.5830   -1.7740   45.0590 C.2    53  TRP53       0.2264
      4  O         24.5760   -2.3020   46.1690 O.2    53  TRP53      -0.2867
      5  CB        25.4480    0.4730   45.6450 C.3    53  TRP53       0.0550
      6  CG        25.5020    1.9760   45.5140 C.ar   53  TRP53       0.0003
      7  CD1       26.3860    2.7750   46.1700 C.ar   53  TRP53       0.0946
      8  CD2       24.7360    2.8510   44.6470 C.ar   53  TRP53       0.0152
      9  NE1       26.2470    4.0850   45.7610 N.ar   53  TRP53      -0.2442
     10  CE2       25.2480    4.1570   44.8240 C.ar   53  TRP53       0.0810
     11  CE3       23.7390    2.6570   43.6690 C.ar   53  TRP53       0.0012
     12  CZ2       24.7350    5.2640   44.1480 C.ar   53  TRP53       0.0191
     13  CZ3       23.2280    3.7600   42.9980 C.ar   53  TRP53       0.0001
     14  CH2       23.7420    5.0420   43.2280 C.ar   53  TRP53       0.0015
     15  N         29.9730    2.0920   39.8680 N.3   109  ASN109     -0.1240
     16  CA        29.7180    3.4980   40.0000 C.3   109  ASN109      0.1653
     17  C         30.5830    4.2550   39.0030 C.2   109  ASN109      0.2266
     18  O         31.7810    3.9870   38.8880 O.2   109  ASN109     -0.2867
     19  CB        30.1110    3.9820   41.4150 C.3   109  ASN109      0.1155
     20  CG        29.3800    5.2300   41.8420 C.2   109  ASN109      0.2627
     21  OD1       28.6690    5.8750   41.0520 O.2   109  ASN109     -0.2716
     22  ND2       29.4750    5.5290   43.1360 N.am  109  ASN109     -0.0877
     23  N         30.9950    7.4140   39.8110 N.3   111  TRP111     -0.1241
     24  CA        31.6420    8.2110   40.8520 C.3   111  TRP111      0.1605
     25  C         32.5650    7.3490   41.7100 C.2   111  TRP111      0.2264
     26  O         32.5350    6.1290   41.6000 O.2   111  TRP111     -0.2867
     27  CB        30.5740    8.9730   41.6630 C.3   111  TRP111      0.0550
     28  CG        29.6970    9.8060   40.7830 C.ar  111  TRP111      0.0003
     29  CD1       28.4110    9.5340   40.4090 C.ar  111  TRP111      0.0946
     30  CD2       30.0580   11.0250   40.1400 C.ar  111  TRP111      0.0152
     31  NE1       27.9350   10.5440   39.6050 N.ar  111  TRP111     -0.2442
     32  CE2       28.9540   11.4270   39.3500 C.ar  111  TRP111      0.0810
     33  CE3       31.2310   11.7910   40.0970 C.ar  111  TRP111      0.0012
     34  CZ2       28.9600   12.6190   38.6060 C.ar  111  TRP111      0.0191
     35  CZ3       31.2570   12.9310   39.3020 C.ar  111  TRP111      0.0001
     36  CH2       30.1260   13.3400   38.5800 C.ar  111  TRP111      0.0015
     37  N         32.5490    6.8760   44.9140 N.3   113  ASP113     -0.1239
     38  CA        31.9950    6.2500   46.1190 C.3   113  ASP113      0.1674
     39  C         31.9020    4.7670   45.9500 C.2   113  ASP113      0.2266
     40  O         31.3570    4.2880   44.9410 O.2   113  ASP113     -0.2867
     41  CB        30.6230    6.8080   46.4810 C.3   113  ASP113      0.1410
     42  CG        30.6620    8.3040   46.6020 C.2   113  ASP113      0.3668
     43  OD1       31.0950    8.7900   47.6610 O.co2 113  ASP113     -0.2456
     44  OD2       30.3610    8.9740   45.6140 O.co2 113  ASP113     -0.2456
     45  N         25.9660    3.3980   37.8140 N.3   165  ASN165     -0.1225
     46  CA        25.3430    4.5890   38.3500 C.3   165  ASN165      0.1785
     47  C         25.9630    5.7900   37.6400 C.2   165  ASN165      0.2597
     48  O         27.1620    6.0720   37.7750 O.2   165  ASN165     -0.2718
     49  CB        25.6200    4.7160   39.8350 C.3   165  ASN165      0.1169
     50  CG        25.1070    6.0280   40.3590 C.2   165  ASN165      0.2627
     51  OD1       23.9480    6.3640   40.0960 O.2   165  ASN165     -0.2716
     52  ND2       25.9260    6.7700   41.1290 N.am  165  ASN165     -0.0877
     53  N         25.1160    6.5100   36.9110 N.am  166  GLU166     -0.1979
     54  CA        25.4780    7.7780   36.2670 C.3   166  GLU166      0.1602
     55  C         26.7070    7.6860   35.3560 C.2   166  GLU166      0.2287
     56  O         27.5850    8.5290   35.4420 O.2   166  GLU166     -0.2864
     57  CB        25.6460    8.9230   37.3240 C.3   166  GLU166      0.0415
     58  CG        24.3560    9.0880   38.1170 C.3   166  GLU166      0.1163
     59  CD        24.2190   10.3220   38.9910 C.2   166  GLU166      0.3649
     60  OE1       25.2410   10.7670   39.5510 O.co2 166  GLU166     -0.2457
     61  OE2       23.0820   10.7910   39.2030 O.co2 166  GLU166     -0.2457
     62  N         19.1010   17.0210   38.9930 N.3   239  TYR239     -0.1241
     63  CA        19.7780   17.8030   40.0190 C.3   239  TYR239      0.1605
     64  C         20.0670   19.2000   39.4980 C.2   239  TYR239      0.2264
     65  O         21.2430   19.5570   39.2850 O.2   239  TYR239     -0.2867
     66  CB        21.0640   17.1270   40.4770 C.3   239  TYR239      0.0534
     67  CG        20.8080   15.8400   41.2150 C.ar  239  TYR239     -0.0201
     68  CD1       20.3810   15.8550   42.5370 C.ar  239  TYR239     -0.0009
     69  CD2       20.9540   14.6110   40.5880 C.ar  239  TYR239     -0.0009
     70  CE1       20.1400   14.6790   43.2270 C.ar  239  TYR239      0.0417
     71  CE2       20.7350   13.4250   41.2720 C.ar  239  TYR239      0.0417
     72  CZ        20.3550   13.4690   42.6070 C.ar  239  TYR239      0.1957
     73  OH        20.1610   12.3300   43.3300 O.3   239  TYR239     -0.2866
     74  N         23.0930   21.4600   40.7690 N.3   242  HIS242     -0.1241
     75  CA        24.4650   21.0830   40.4220 C.3   242  HIS242      0.1621
     76  C         24.7380   21.4030   38.9690 C.2   242  HIS242      0.2264
     77  O         25.8720   21.2030   38.5020 O.2   242  HIS242     -0.2867
     78  CB        24.6280   19.5380   40.4370 C.3   242  HIS242      0.0745
     79  CG        24.3840   18.8260   41.7180 C.ar  242  HIS242      0.0817
     80  ND1       24.3040   19.4890   42.9260 N.ar  242  HIS242     -0.2268
     81  CD2       24.2210   17.4970   41.9300 C.ar  242  HIS242      0.1154
     82  CE1       24.1120   18.5500   43.8370 C.ar  242  HIS242      0.1986
     83  NE2       24.0280   17.3360   43.2820 N.ar  242  HIS242     -0.2212
     84  N         16.5410    9.3820   39.9070 N.3   272  GLU272     -0.1245
     85  CA        17.0300   10.1390   41.0600 C.3   272  GLU272      0.1567
     86  C         16.6320   11.5700   40.8640 C.2   272  GLU272      0.2260
     87  O         16.6660   12.1000   39.7350 O.2   272  GLU272     -0.2867
     88  CB        18.5690   10.1800   41.1550 C.3   272  GLU272      0.0388
     89  CG        19.3070    8.8960   41.4650 C.3   272  GLU272      0.1160
     90  CD        20.7960    9.1650   41.6640 C.2   272  GLU272      0.3649
     91  OE1       21.1720   10.3000   42.0450 O.co2 272  GLU272     -0.2457
     92  OE2       21.5890    8.2180   41.4870 O.co2 272  GLU272     -0.2457
     93  N         16.0210   10.6340   45.4650 N.3   304  TRP304     -0.1241
     94  CA        17.2710   10.3410   46.1490 C.3   304  TRP304      0.1605
     95  C         17.1790   11.2200   47.4030 C.2   304  TRP304      0.2264
     96  O         17.1110   12.4270   47.2610 O.2   304  TRP304     -0.2867
     97  CB        18.4620   10.7780   45.2820 C.3   304  TRP304      0.0550
     98  CG        19.7730   10.6040   45.9790 C.ar  304  TRP304      0.0003
     99  CD1       20.3270   11.4510   46.8980 C.ar  304  TRP304      0.0946
    100  CD2       20.6320    9.4610   45.9060 C.ar  304  TRP304      0.0152
    101  NE1       21.5030   10.9220   47.3850 N.ar  304  TRP304     -0.2442
    102  CE2       21.7070    9.6900   46.7980 C.ar  304  TRP304      0.0810
    103  CE3       20.5930    8.2570   45.1760 C.ar  304  TRP304      0.0012
    104  CZ2       22.7580    8.7800   46.9390 C.ar  304  TRP304      0.0191
    105  CZ3       21.6380    7.3690   45.3120 C.ar  304  TRP304      0.0001
    106  CH2       22.6900    7.6160   46.2070 C.ar  304  TRP304      0.0015
    107  N         22.6710   13.8230   53.3990 N.3   318  ASP318     -0.1239
    108  CA        23.5660   14.4010   52.4080 C.3   318  ASP318      0.1674
    109  C         22.9620   15.6750   51.8140 C.2   318  ASP318      0.2266
    110  O         23.4820   16.1760   50.8290 O.2   318  ASP318     -0.2867
    111  CB        23.8760   13.3560   51.2850 C.3   318  ASP318      0.1410
    112  CG        22.6830   13.0100   50.4030 C.2   318  ASP318      0.3668
    113  OD1       21.5410   13.3430   50.7830 O.co2 318  ASP318     -0.2456
    114  OD2       22.9010   12.4830   49.2950 O.co2 318  ASP318     -0.2456
    115  N         19.9210   15.6950   50.5970 N.3   320  PHE320     -0.1241
    116  CA        18.7920   15.2030   49.8180 C.3   320  PHE320      0.1605
    117  C         17.9860   14.1290   50.5490 C.2   320  PHE320      0.2264
    118  O         16.8940   13.7860   50.1310 O.2   320  PHE320     -0.2867
    119  CB        19.2740   14.6000   48.4950 C.3   320  PHE320      0.0534
    120  CG        19.9970   15.5520   47.5870 C.ar  320  PHE320     -0.0203
    121  CD1       19.3890   16.7230   47.1560 C.ar  320  PHE320     -0.0042
    122  CD2       21.2530   15.2450   47.1030 C.ar  320  PHE320     -0.0042
    123  CE1       20.0600   17.5870   46.2540 C.ar  320  PHE320     -0.0003
    124  CE2       21.9050   16.0900   46.2080 C.ar  320  PHE320     -0.0003
    125  CZ        21.3150   17.2640   45.8120 C.ar  320  PHE320     -0.0000
@<TRIPOS>BOND
     1    55    56    2
     2    55    54    1
     3    54    53    1
     4    54    57    1
     5    53    47   am
     6    57    58    1
     7    47    48    2
     8    47    46    1
     9    45    46    1
    10    58    59    1
    11    46    49    1
    12    77    76    2
    13    36    34   ar
    14    36    35   ar
    15    34    32   ar
    16    18    17    2
    17    76    75    1
    18    59    61   ar
    19    59    60   ar
    20    62    63    1
    21    17    16    1
    22    65    64    2
    23    35    33   ar
    24    32    31   ar
    25    32    30   ar
    26    64    63    1
    27    31    29   ar
    28    87    86    2
    29    23    24    1
    30    49    50    1
    31    15    16    1
    32    84    85    1
    33    16    19    1
    34    63    66    1
    35    51    50    2
    36    33    30   ar
    37    30    28   ar
    38    50    52   am
    39    29    28   ar
    40    75    78    1
    41    75    74    1
    42    78    79    1
    43    66    67    1
    44    69    67   ar
    45    69    71   ar
    46    28    27    1
    47    24    27    1
    48    24    25    1
    49    86    85    1
    50    21    20    2
    51    85    88    1
    52    88    89    1
    53    67    68   ar
    54    71    72   ar
    55    19    20    1
    56    89    90    1
    57    92    90   ar
    58    26    25    2
    59    90    91   ar
    60    79    81   ar
    61    79    80   ar
    62    20    22   am
    63    81    83   ar
    64    68    70   ar
    65    72    70   ar
    66    72    73    1
    67    80    82   ar
    68    13    14   ar
    69    13    11   ar
    70    14    12   ar
    71    83    82   ar
    72    11     8   ar
    73    12    10   ar
    74     8    10   ar
    75     8     6   ar
    76    10     9   ar
    77    37    38    1
    78     2     3    1
    79     2     1    1
    80     2     5    1
    81    40    39    2
    82     3     4    2
    83   103   105   ar
    84   103   100   ar
    85    97    98    1
    86    97    94    1
    87   105   106   ar
    88    93    94    1
    89     6     5    1
    90     6     7   ar
    91    44    42   ar
    92     9     7   ar
    93   125   124   ar
    94   125   123   ar
    95   100    98   ar
    96   100   102   ar
    97    39    38    1
    98    98    99   ar
    99    38    41    1
   100    94    95    1
   101   106   104   ar
   102   124   122   ar
   103   123   121   ar
   104    41    42    1
   105    42    43   ar
   106   102   104   ar
   107   102   101   ar
   108    99   101   ar
   109   122   120   ar
   110   121   120   ar
   111    96    95    2
   112   120   119    1
   113   119   116    1
   114   114   112   ar
   115   116   117    1
   116   116   115    1
   117   118   117    2
   118   112   113   ar
   119   112   111    1
   120   110   109    2
   121   111   108    1
   122   109   108    1
   123   108   107    1
