@<TRIPOS>MOLECULE
tmp/3zj0A00.pdb
 217 215 0 0 0
SMALL
GASTEIGER

@<TRIPOS>ATOM
      1  N          2.2580   20.6340   25.4250 N.3    23  THR23      -0.1218
      2  CA         3.2540   20.5940   24.3470 C.3    23  THR23       0.1862
      3  C          4.3520   19.5200   24.5330 C.2    23  THR23       0.2287
      4  O          5.3810   19.5070   23.8140 O.2    23  THR23      -0.2866
      5  CB         3.9920   21.9580   24.2220 C.3    23  THR23       0.1770
      6  OG1        4.5770   22.2990   25.4940 O.3    23  THR23      -0.2211
      7  CG2        3.0270   23.0630   23.8110 C.3    23  THR23       0.0375
      8  N          6.2010   18.4280   21.1830 N.3    27  GLY27      -0.1225
      9  CA         5.5790   19.6910   20.7790 C.3    27  GLY27       0.1811
     10  C          4.0630   19.6540   20.7760 C.2    27  GLY27       0.2280
     11  O          3.4060   20.7080   20.6920 O.2    27  GLY27      -0.2866
     12  N         17.8880   26.5340   27.2910 N.3   132  GLY132     -0.1210
     13  CA        16.5510   27.0420   27.5560 C.3   132  GLY132      0.1956
     14  C         15.5160   26.2090   26.8680 C.2   132  GLY132      0.2612
     15  O         15.8340   25.1910   26.2160 O.2   132  GLY132     -0.2717
     16  N         14.2770   26.6590   26.9950 N.am  133  HIS133     -0.1961
     17  CA        13.1390   25.9210   26.4750 C.3   133  HIS133      0.1787
     18  C         12.0410   26.9390   26.1660 C.2   133  HIS133      0.2620
     19  O         11.8960   27.9360   26.8880 O.2   133  HIS133     -0.2715
     20  CB        12.6380   24.8830   27.4820 C.3   133  HIS133      0.0785
     21  CG        11.7630   23.8520   26.8460 C.ar  133  HIS133      0.0821
     22  ND1       12.2650   22.6870   26.2980 N.ar  133  HIS133     -0.2267
     23  CD2       10.4440   23.8730   26.5360 C.ar  133  HIS133      0.1154
     24  CE1       11.2800   22.0050   25.7380 C.ar  133  HIS133      0.1986
     25  NE2       10.1640   22.7040   25.8710 N.ar  133  HIS133     -0.2212
     26  N         11.3040   26.7270   25.0810 N.am  134  ILE134     -0.1963
     27  CA        10.1440   27.5860   24.7660 C.3   134  ILE134      0.1727
     28  C          8.9860   26.6980   24.3510 C.2   134  ILE134      0.2616
     29  O          9.1660   25.6520   23.7130 O.2   134  ILE134     -0.2715
     30  CB        10.4440   28.5830   23.6370 C.3   134  ILE134      0.0290
     31  CG1        9.2940   29.5750   23.4370 C.3   134  ILE134      0.0022
     32  CG2       10.6480   27.8440   22.3050 C.3   134  ILE134      0.0023
     33  CD1        9.5830   30.4880   22.2700 C.3   134  ILE134      0.0001
     34  N          7.7950   27.0430   24.7940 N.am  135  ASP135     -0.1957
     35  CA         6.6220   26.2940   24.4110 C.3   135  ASP135      0.1840
     36  C          5.4630   27.2660   24.3290 C.2   135  ASP135      0.2621
     37  O          5.1670   27.9620   25.2980 O.2   135  ASP135     -0.2715
     38  CB         6.2900   25.2220   25.4440 C.3   135  ASP135      0.1450
     39  CG         7.0660   23.9320   25.2190 C.2   135  ASP135      0.3671
     40  OD1        7.2390   23.5300   24.0450 O.co2 135  ASP135     -0.2456
     41  OD2        7.5110   23.3390   26.2260 O.co2 135  ASP135     -0.2456
     42  N          4.8170   27.3210   23.1620 N.am  136  LEU136     -0.1977
     43  CA         3.6460   28.1860   22.9600 C.3   136  LEU136      0.1596
     44  C          2.4110   27.3050   22.7770 C.2   136  LEU136      0.2287
     45  O          2.5040   26.2840   22.1300 O.2   136  LEU136     -0.2864
     46  CB         3.8230   28.9910   21.6680 C.3   136  LEU136      0.0297
     47  CG         5.0890   29.8430   21.5840 C.3   136  LEU136      0.0022
     48  CD1        5.1530   30.6910   20.3060 C.3   136  LEU136      0.0001
     49  CD2        5.2140   30.6730   22.8240 C.3   136  LEU136      0.0001
     50  N         -1.0990   30.7140   20.0730 N.3   140  ALA140     -0.1231
     51  CA        -0.0240   31.7070   20.0020 C.3   140  ALA140      0.1694
     52  C          1.0570   31.3160   18.9950 C.2   140  ALA140      0.2592
     53  O          2.0480   32.0440   18.8300 O.2   140  ALA140     -0.2718
     54  CB         0.5890   31.9530   21.4050 C.3   140  ALA140      0.0304
     55  N          0.8610   30.1630   18.3410 N.am  141  GLN141     -0.1966
     56  CA         1.7900   29.6280   17.3340 C.3   141  GLN141      0.1733
     57  C          1.5960   30.2240   15.9170 C.2   141  GLN141      0.2617
     58  O          0.5510   30.7700   15.6040 O.2   141  GLN141     -0.2715
     59  CB         1.6520   28.0930   17.2480 C.3   141  GLN141      0.0408
     60  CG         2.0720   27.3550   18.4790 C.3   141  GLN141      0.0908
     61  CD         1.7450   25.8770   18.3940 C.2   141  GLN141      0.2608
     62  OE1        1.5640   25.3240   17.2930 O.2   141  GLN141     -0.2717
     63  NE2        1.6770   25.2220   19.5410 N.am  141  GLN141     -0.0878
     64  N          2.5990   30.0880   15.0670 N.am  142  GLY142     -0.1940
     65  CA         2.4450   30.3600   13.6390 C.3   142  GLY142      0.2014
     66  C          2.4290   31.8210   13.2450 C.2   142  GLY142      0.2639
     67  O          2.1840   32.1420   12.0800 O.2   142  GLY142     -0.2714
     68  N          2.7320   32.7150   14.1810 N.am  143  ARG143     -0.1963
     69  CA         2.7470   34.1470   13.8490 C.3   143  ARG143      0.1729
     70  C          3.9030   34.9930   14.4060 C.2   143  ARG143      0.2617
     71  O          3.7400   36.1980   14.6250 O.2   143  ARG143     -0.2715
     72  CB         1.4000   34.7830   14.1860 C.3   143  ARG143      0.0348
     73  CG         0.9740   34.5920   15.6160 C.3   143  ARG143      0.0492
     74  CD        -0.3840   35.2080   15.8490 C.3   143  ARG143      0.2205
     75  NE        -0.9720   34.7630   17.1090 N.pl3 143  ARG143     -0.0865
     76  CZ        -1.2840   35.5590   18.1280 C.cat 143  ARG143      0.5346
     77  NH1       -1.0730   36.8710   18.0640 N.pl3 143  ARG143      0.1354
     78  NH2       -1.8270   35.0420   19.2160 N.pl3 143  ARG143      0.1354
     79  N          5.0680   34.3740   14.6010 N.am  144  GLY144     -0.1940
     80  CA         6.2760   35.1330   14.9580 C.3   144  GLY144      0.2014
     81  C          6.4800   35.3610   16.4570 C.2   144  GLY144      0.2639
     82  O          7.4640   35.9690   16.8530 O.2   144  GLY144     -0.2714
     83  N          5.5550   34.8750   17.2810 N.am  145  VAL145     -0.1963
     84  CA         5.6740   35.0910   18.7220 C.3   145  VAL145      0.1727
     85  C          6.9090   34.3330   19.2180 C.2   145  VAL145      0.2617
     86  O          7.6510   34.8420   20.0650 O.2   145  VAL145     -0.2715
     87  CB         4.4210   34.6160   19.4800 C.3   145  VAL145      0.0290
     88  CG1        4.6310   34.6710   20.9940 C.3   145  VAL145      0.0023
     89  CG2        3.1940   35.4740   19.1020 C.3   145  VAL145      0.0023
     90  N          7.1420   33.1380   18.6740 N.am  146  GLY146     -0.1940
     91  CA         8.3400   32.3660   19.0620 C.3   146  GLY146      0.2014
     92  C          9.6400   33.0540   18.6980 C.2   146  GLY146      0.2639
     93  O         10.6420   32.9960   19.4280 O.2   146  GLY146     -0.2714
     94  N          9.6300   33.7010   17.5390 N.am  147  SER147     -0.1949
     95  CA        10.7410   34.4860   17.0870 C.3   147  SER147      0.1924
     96  C         11.0380   35.6220   18.0450 C.2   147  SER147      0.2314
     97  O         12.1960   35.8500   18.3800 O.2   147  SER147     -0.2863
     98  CB        10.4230   35.0500   15.6740 C.3   147  SER147      0.2116
     99  OG        10.4090   33.9990   14.7170 O.3   147  SER147     -0.2180
    100  N         19.8150   23.8110   23.0210 N.3   167  LEU167     -0.1231
    101  CA        18.4470   23.4570   23.3440 C.3   167  LEU167      0.1693
    102  C         18.2370   22.0490   22.8620 C.2   167  LEU167      0.2592
    103  O         18.7710   21.6560   21.8240 O.2   167  LEU167     -0.2718
    104  CB        17.4070   24.3850   22.6600 C.3   167  LEU167      0.0284
    105  CG        17.5200   25.8940   22.9360 C.3   167  LEU167      0.0019
    106  CD1       18.3010   26.5620   21.8280 C.3   167  LEU167      0.0001
    107  CD2       16.1280   26.5620   23.0820 C.3   167  LEU167      0.0001
    108  N         17.4160   21.3100   23.5850 N.am  168  GLN168     -0.1966
    109  CA        17.0850   19.9480   23.1980 C.3   168  GLN168      0.1733
    110  C         15.7280   19.8960   22.5270 C.2   168  GLN168      0.2616
    111  O         14.7850   20.5220   22.9870 O.2   168  GLN168     -0.2715
    112  CB        17.1920   19.0320   24.4090 C.3   168  GLN168      0.0408
    113  CG        18.5490   19.2130   25.1110 C.3   168  GLN168      0.0908
    114  CD        18.7950   18.2460   26.2580 C.2   168  GLN168      0.2608
    115  OE1       19.3960   18.6050   27.2670 O.2   168  GLN168     -0.2717
    116  NE2       18.3500   17.0190   26.1020 N.am  168  GLN168     -0.0878
    117  N         15.6520   19.1930   21.3920 N.am  169  VAL169     -0.1963
    118  CA        14.4380   19.1120   20.5910 C.3   169  VAL169      0.1727
    119  C         14.2230   17.6540   20.2090 C.2   169  VAL169      0.2616
    120  O         15.1870   16.9540   19.8740 O.2   169  VAL169     -0.2715
    121  CB        14.5820   19.8960   19.2730 C.3   169  VAL169      0.0290
    122  CG1       13.2520   19.9260   18.5580 C.3   169  VAL169      0.0023
    123  CG2       15.1180   21.3180   19.5160 C.3   169  VAL169      0.0023
    124  N         12.9840   17.1930   20.2530 N.am  170  SER170     -0.1950
    125  CA        12.6910   15.8220   19.8320 C.3   170  SER170      0.1924
    126  C         12.8790   15.6490   18.3250 C.2   170  SER170      0.2314
    127  O         12.4970   16.5270   17.5430 O.2   170  SER170     -0.2863
    128  CB        11.2570   15.4690   20.1850 C.3   170  SER170      0.2116
    129  OG        10.8300   14.3910   19.3610 O.3   170  SER170     -0.2180
    130  N          9.8980   16.3650   16.2840 N.3   173  ASN173     -0.1226
    131  CA         9.3710   17.7340   16.2620 C.3   173  ASN173      0.1770
    132  C         10.0720   18.4860   15.1460 C.2   173  ASN173      0.2439
    133  O         10.8510   19.4180   15.3900 O.2   173  ASN173     -0.2733
    134  CB         9.6290   18.4300   17.6110 C.3   173  ASN173      0.1168
    135  CG         8.8320   19.7220   17.7830 C.2   173  ASN173      0.2627
    136  OD1        8.1970   20.2150   16.8490 O.2   173  ASN173     -0.2716
    137  ND2        8.8690   20.2790   19.0030 N.am  173  ASN173     -0.0877
    138  N          9.8020   18.0870   13.8910 N.am  174  PRO174     -0.2718
    139  CA        10.5400   18.7270   12.8120 C.3   174  PRO174      0.1535
    140  C         10.1510   20.1920   12.6520 C.2   174  PRO174      0.2598
    141  O         10.9240   20.9740   12.1240 O.2   174  PRO174     -0.2715
    142  CB        10.1240   17.9320   11.5650 C.3   174  PRO174      0.0310
    143  CG         9.0400   16.9690   11.9990 C.3   174  PRO174      0.0237
    144  CD         8.6690   17.2730   13.4110 C.3   174  PRO174      0.0939
    145  N          8.9690   20.5770   13.1020 N.am  175  ARG175     -0.1964
    146  CA         8.6340   21.9950   13.0470 C.3   175  ARG175      0.1729
    147  C          9.5950   22.8480   13.9010 C.2   175  ARG175      0.2616
    148  O         10.0560   23.9050   13.4660 O.2   175  ARG175     -0.2715
    149  CB         7.2100   22.2700   13.5120 C.3   175  ARG175      0.0348
    150  CG         7.0750   23.7430   13.8850 C.3   175  ARG175      0.0492
    151  CD         5.7320   24.1230   14.4390 C.3   175  ARG175      0.2205
    152  NE         5.3920   25.4690   13.9880 N.pl3 175  ARG175     -0.0865
    153  CZ         4.1690   25.9900   14.0630 C.cat 175  ARG175      0.5346
    154  NH1        3.1800   25.2760   14.5980 N.pl3 175  ARG175      0.1354
    155  NH2        3.9410   27.2230   13.6150 N.pl3 175  ARG175      0.1354
    156  N          9.8740   22.3870   15.1250 N.am  176  ALA176     -0.1977
    157  CA        10.7700   23.1140   15.9840 C.3   176  ALA176      0.1597
    158  C         12.1630   23.0340   15.4260 C.2   176  ALA176      0.2287
    159  O         12.8890   24.0240   15.4490 O.2   176  ALA176     -0.2864
    160  CB        10.7340   22.5740   17.4180 C.3   176  ALA176      0.0319
    161  N         13.0070   22.9180   12.3340 N.3   178  GLY178     -0.1210
    162  CA        13.0830   23.8770   11.2180 C.3   178  GLY178      0.1956
    163  C         13.0720   25.2990   11.7390 C.2   178  GLY178      0.2612
    164  O         13.7830   26.1750   11.2280 O.2   178  GLY178     -0.2717
    165  N         12.2670   25.5220   12.7810 N.am  179  PHE179     -0.1962
    166  CA        12.2360   26.8370   13.4180 C.3   179  PHE179      0.1771
    167  C         13.6330   27.2780   13.8500 C.2   179  PHE179      0.2620
    168  O         14.0320   28.4120   13.5960 O.2   179  PHE179     -0.2715
    169  CB        11.2670   26.8280   14.5900 C.3   179  PHE179      0.0574
    170  CG        11.3320   28.0710   15.4630 C.ar  179  PHE179     -0.0200
    171  CD1       10.7580   29.2620   15.0560 C.ar  179  PHE179     -0.0042
    172  CD2       11.9260   28.0150   16.7060 C.ar  179  PHE179     -0.0042
    173  CE1       10.8050   30.3900   15.8830 C.ar  179  PHE179     -0.0003
    174  CE2       11.9910   29.1210   17.5410 C.ar  179  PHE179     -0.0003
    175  CZ        11.4250   30.3100   17.1320 C.ar  179  PHE179     -0.0000
    176  N         14.3990   26.3900   14.4930 N.am  180  TYR180     -0.1960
    177  CA        15.7020   26.8080   15.0130 C.3   180  TYR180      0.1771
    178  C         16.7750   26.9370   13.9320 C.2   180  TYR180      0.2619
    179  O         17.6400   27.8220   13.9940 O.2   180  TYR180     -0.2715
    180  CB        16.1630   25.8640   16.1380 C.3   180  TYR180      0.0574
    181  CG        15.4380   26.1490   17.4210 C.ar  180  TYR180     -0.0198
    182  CD1       15.6950   27.3170   18.1050 C.ar  180  TYR180     -0.0009
    183  CD2       14.4780   25.2780   17.9320 C.ar  180  TYR180     -0.0009
    184  CE1       15.0370   27.6310   19.2590 C.ar  180  TYR180      0.0417
    185  CE2       13.7880   25.5890   19.1120 C.ar  180  TYR180      0.0417
    186  CZ        14.0910   26.7830   19.7610 C.ar  180  TYR180      0.1957
    187  OH        13.4660   27.1750   20.9310 O.3   180  TYR180     -0.2866
    188  N         16.7350   26.0300   12.9660 N.am  181  GLU181     -0.1963
    189  CA        17.6080   26.1280   11.8020 C.3   181  GLU181      0.1733
    190  C         17.4610   27.4990   11.1470 C.2   181  GLU181      0.2616
    191  O         18.4420   28.1280   10.7810 O.2   181  GLU181     -0.2715
    192  CB        17.2450   25.0370   10.8040 C.3   181  GLU181      0.0429
    193  CG        18.2070   24.8910    9.6600 C.3   181  GLU181      0.1163
    194  CD        17.7900   23.7850    8.7150 C.2   181  GLU181      0.3649
    195  OE1       16.6050   23.7900    8.3130 O.co2 181  GLU181     -0.2457
    196  OE2       18.6440   22.9200    8.3760 O.co2 181  GLU181     -0.2457
    197  N         16.2260   27.9620   11.0350 N.am  182  HIS182     -0.1959
    198  CA        15.9260   29.2320   10.3710 C.3   182  HIS182      0.1787
    199  C         16.5370   30.3900   11.1520 C.2   182  HIS182      0.2620
    200  O         16.8800   31.4230   10.5730 O.2   182  HIS182     -0.2715
    201  CB        14.4100   29.3500   10.2260 C.3   182  HIS182      0.0785
    202  CG        13.9370   30.5630    9.4860 C.ar  182  HIS182      0.0821
    203  ND1       13.9680   30.6570    8.1080 N.ar  182  HIS182     -0.2267
    204  CD2       13.3610   31.7060    9.9300 C.ar  182  HIS182      0.1154
    205  CE1       13.4640   31.8220    7.7400 C.ar  182  HIS182      0.1986
    206  NE2       13.0890   32.4770    8.8260 N.ar  182  HIS182     -0.2212
    207  N         16.6980   30.2100   12.4650 N.am  183  ARG183     -0.1977
    208  CA        17.2990   31.2270   13.3600 C.3   183  ARG183      0.1597
    209  C         18.8090   31.1410   13.4590 C.2   183  ARG183      0.2287
    210  O         19.4230   31.8490   14.2660 O.2   183  ARG183     -0.2864
    211  CB        16.7750   31.0570   14.8000 C.3   183  ARG183      0.0334
    212  CG        15.3700   31.4990   15.0270 C.3   183  ARG183      0.0492
    213  CD        15.0040   31.4850   16.5220 C.3   183  ARG183      0.2205
    214  NE        15.6930   32.5260   17.2860 N.pl3 183  ARG183     -0.0865
    215  CZ        15.4190   33.8330   17.2130 C.cat 183  ARG183      0.5346
    216  NH1       14.4740   34.2750   16.3990 N.pl3 183  ARG183      0.1354
    217  NH2       16.0840   34.7080   17.9650 N.pl3 183  ARG183      0.1354
@<TRIPOS>BOND
     1   205   203   ar
     2   205   206   ar
     3   203   202   ar
     4   195   194   ar
     5   196   194   ar
     6   194   193    1
     7   206   204   ar
     8   202   204   ar
     9   202   201    1
    10   193   192    1
    11   201   198    1
    12   198   197    1
    13   198   199    1
    14   200   199    2
    15   191   190    2
    16   192   189    1
    17   197   190   am
    18   190   189    1
    19   199   207   am
    20   162   163    1
    21   162   161    1
    22   164   163    2
    23   142   143    1
    24   142   139    1
    25   163   165   am
    26   189   188    1
    27   143   144    1
    28    67    66    2
    29   141   140    2
    30   207   208    1
    31   140   139    1
    32   140   145   am
    33   165   166    1
    34   139   138    1
    35   188   178   am
    36   146   145    1
    37   146   149    1
    38   146   147    1
    39    66    65    1
    40    66    68   am
    41   208   209    1
    42   208   211    1
    43   144   138    1
    44   166   167    1
    45   166   169    1
    46   209   210    2
    47   148   147    2
    48   149   150    1
    49   168   167    2
    50   155   153    1
    51    65    64    1
    52    69    68    1
    53    69    72    1
    54    69    70    1
    55   167   176   am
    56   150   151    1
    57   138   132   am
    58   147   156   am
    59   178   179    2
    60   178   177    1
    61   152   153    2
    62   152   151    1
    63   153   154    1
    64    72    73    1
    65    70    79   am
    66    70    71    2
    67   176   177    1
    68   169   170    1
    69    79    80    1
    70    99    98    1
    71   211   212    1
    72    80    81    1
    73   177   180    1
    74   212   213    1
    75   171   170   ar
    76   171   173   ar
    77    64    57   am
    78   156   157    1
    79   132   133    2
    80   132   131    1
    81   158   159    2
    82   158   157    1
    83   170   172   ar
    84    58    57    2
    85    73    74    1
    86    98    95    1
    87    74    75    1
    88   173   175   ar
    89    57    56    1
    90   157   160    1
    91   180   181    1
    92   131   130    1
    93   131   134    1
    94   216   215    1
    95    81    82    2
    96    81    83   am
    97   213   214    1
    98   172   174   ar
    99   136   135    2
   100    95    94    1
   101    95    96    1
   102    75    76    2
   103   175   174   ar
   104   215   214    2
   105   215   217    1
   106    59    56    1
   107    59    60    1
   108    83    84    1
   109    62    61    2
   110    56    55    1
   111   181   183   ar
   112   181   182   ar
   113    94    92   am
   114   127   126    2
   115   134   135    1
   116   135   137   am
   117   183   185   ar
   118    96    97    2
   119    77    76    1
   120   182   184   ar
   121    76    78    1
   122   126   125    1
   123    55    52   am
   124    61    60    1
   125    61    63   am
   126   122   121    1
   127    90    91    1
   128    90    85   am
   129    92    91    1
   130    92    93    2
   131    84    85    1
   132    84    87    1
   133    53    52    2
   134    52    51    1
   135    89    87    1
   136   185   186   ar
   137    85    86    2
   138   184   186   ar
   139   121   123    1
   140   121   118    1
   141   129   128    1
   142    87    88    1
   143   186   187    1
   144   125   128    1
   145   125   124    1
   146   120   119    2
   147    51    50    1
   148    51    54    1
   149   119   124   am
   150   119   118    1
   151    48    47    1
   152   118   117    1
   153    11    10    2
   154    10     9    1
   155     9     8    1
   156   117   110   am
   157    47    46    1
   158    47    49    1
   159    46    43    1
   160   103   102    2
   161   106   105    1
   162    45    44    2
   163    33    31    1
   164    32    30    1
   165   110   111    2
   166   110   109    1
   167   104   105    1
   168   104   101    1
   169    44    43    1
   170   102   101    1
   171   102   108   am
   172   105   107    1
   173    43    42    1
   174   100   101    1
   175    42    36   am
   176   109   108    1
   177   109   112    1
   178    31    30    1
   179    30    27    1
   180    29    28    2
   181     7     5    1
   182     4     3    2
   183    40    39   ar
   184     5     2    1
   185     5     6    1
   186    36    35    1
   187    36    37    2
   188     2     3    1
   189     2     1    1
   190    28    27    1
   191    28    34   am
   192   112   113    1
   193    35    34    1
   194    35    38    1
   195    27    26    1
   196    26    18   am
   197   113   114    1
   198    39    38    1
   199    39    41   ar
   200    24    25   ar
   201    24    22   ar
   202    25    23   ar
   203   116   114   am
   204    18    17    1
   205    18    19    2
   206    15    14    2
   207   114   115    2
   208    22    21   ar
   209    17    16    1
   210    17    20    1
   211    23    21   ar
   212    21    20    1
   213    14    16   am
   214    14    13    1
   215    12    13    1
