@<TRIPOS>MOLECULE
tmp/3zj5D00.pdb
 95 92 0 0 0
SMALL
GASTEIGER

@<TRIPOS>ATOM
      1  N          8.4070   33.8580   24.4830 N.3   286  TYR286     -0.1241
      2  CA         9.8300   33.8960   24.8000 C.3   286  TYR286      0.1605
      3  C         10.6200   32.7220   24.2390 C.2   286  TYR286      0.2264
      4  O         11.6290   32.3130   24.8160 O.2   286  TYR286     -0.2867
      5  CB        10.0320   34.0460   26.3110 C.3   286  TYR286      0.0534
      6  CG         9.3980   35.3070   26.8530 C.ar  286  TYR286     -0.0201
      7  CD1        9.8310   36.5540   26.4210 C.ar  286  TYR286     -0.0009
      8  CD2        8.3670   35.2530   27.7910 C.ar  286  TYR286     -0.0009
      9  CE1        9.2560   37.7210   26.9090 C.ar  286  TYR286      0.0417
     10  CE2        7.7810   36.4200   28.2860 C.ar  286  TYR286      0.0417
     11  CZ         8.2390   37.6520   27.8370 C.ar  286  TYR286      0.1957
     12  OH         7.6810   38.8290   28.3090 O.3   286  TYR286     -0.2866
     13  N         14.1260   33.0110   31.4580 N.3   298  PRO298     -0.2116
     14  CA        15.3290   33.7810   31.8080 C.3   298  PRO298      0.1372
     15  C         14.9820   35.1160   32.4610 C.2   298  PRO298      0.2244
     16  O         14.0530   35.8080   32.0100 O.2   298  PRO298     -0.2868
     17  CB        16.0000   34.0180   30.4500 C.3   298  PRO298      0.0268
     18  CG        15.5680   32.8290   29.6180 C.3   298  PRO298      0.0207
     19  CD        14.1320   32.5830   30.0460 C.3   298  PRO298      0.0892
     20  N         16.3240   37.8040   32.3250 N.3   300  GLU300     -0.1231
     21  CA        16.4950   38.9320   31.4250 C.3   300  GLU300      0.1699
     22  C         15.1720   39.3440   30.7650 C.2   300  GLU300      0.2592
     23  O         15.0320   40.4910   30.3240 O.2   300  GLU300     -0.2718
     24  CB        17.5680   38.6180   30.3770 C.3   300  GLU300      0.0402
     25  CG        18.9830   38.5350   30.9560 C.3   300  GLU300      0.1161
     26  CD        19.3260   37.1660   31.5340 C.2   300  GLU300      0.3649
     27  OE1       18.5220   36.2230   31.3860 O.co2 300  GLU300     -0.2457
     28  OE2       20.4140   37.0320   32.1300 O.co2 300  GLU300     -0.2457
     29  N         14.1990   38.4280   30.7170 N.am  301  PHE301     -0.1976
     30  CA        12.9010   38.7360   30.0970 C.3   301  PHE301      0.1639
     31  C         11.8380   39.1360   31.1140 C.2   301  PHE301      0.2290
     32  O         10.8000   39.7110   30.7560 O.2   301  PHE301     -0.2864
     33  CB        12.3760   37.5320   29.3100 C.3   301  PHE301      0.0560
     34  CG        13.3210   37.0290   28.2610 C.ar  301  PHE301     -0.0200
     35  CD1       14.2000   37.8900   27.6180 C.ar  301  PHE301     -0.0042
     36  CD2       13.3310   35.6870   27.9190 C.ar  301  PHE301     -0.0042
     37  CE1       15.0740   37.4160   26.6480 C.ar  301  PHE301     -0.0003
     38  CE2       14.1950   35.2070   26.9460 C.ar  301  PHE301     -0.0003
     39  CZ        15.0720   36.0710   26.3170 C.ar  301  PHE301     -0.0000
     40  N         17.8320   23.4670   23.3340 N.3   443  THR443     -0.1203
     41  CA        18.2920   24.8560   23.4000 C.3   443  THR443      0.1994
     42  C         18.5650   25.2980   24.8320 C.2   443  THR443      0.2617
     43  O         19.6060   25.8910   25.1190 O.2   443  THR443     -0.2717
     44  CB        17.2830   25.8090   22.7420 C.3   443  THR443      0.1784
     45  OG1       17.1910   25.5060   21.3430 O.3   443  THR443     -0.2211
     46  CG2       17.7010   27.2650   22.9280 C.3   443  THR443      0.0376
     47  N         17.6480   25.0040   25.7440 N.am  444  GLN444     -0.1979
     48  CA        17.8580   25.4260   27.1210 C.3   444  GLN444      0.1601
     49  C         18.9530   24.6850   27.9160 C.2   444  GLN444      0.2287
     50  O         19.6520   25.3130   28.7210 O.2   444  GLN444     -0.2864
     51  CB        16.5290   25.5080   27.8760 C.3   444  GLN444      0.0394
     52  CG        15.7170   26.7600   27.5060 C.3   444  GLN444      0.0908
     53  CD        14.8250   27.2290   28.6410 C.2   444  GLN444      0.2608
     54  OE1       14.7930   26.6120   29.7080 O.2   444  GLN444     -0.2717
     55  NE2       14.0920   28.3250   28.4190 N.am  444  GLN444     -0.0878
     56  N         21.7690   26.6550   26.9150 N.3   447  LEU447     -0.1245
     57  CA        21.7270   27.9130   27.6620 C.3   447  LEU447      0.1561
     58  C         22.2870   27.7600   29.0820 C.2   447  LEU447      0.2260
     59  O         23.1400   28.5460   29.5170 O.2   447  LEU447     -0.2867
     60  CB        20.2880   28.4240   27.7370 C.3   447  LEU447      0.0270
     61  CG        20.0830   29.7160   28.5280 C.3   447  LEU447      0.0019
     62  CD1       20.6400   30.9080   27.7590 C.3   447  LEU447      0.0001
     63  CD2       18.6070   29.9380   28.8600 C.3   447  LEU447      0.0001
     64  N         24.0730   27.3690   20.3150 N.3   512  HIS512     -0.1241
     65  CA        24.0250   28.8220   20.4440 C.3   512  HIS512      0.1621
     66  C         24.9430   29.2400   21.5700 C.2   512  HIS512      0.2264
     67  O         25.4260   28.4000   22.3420 O.2   512  HIS512     -0.2867
     68  CB        22.6020   29.3030   20.7320 C.3   512  HIS512      0.0745
     69  CG        22.0790   28.8490   22.0580 C.ar  512  HIS512      0.0817
     70  ND1       22.3530   29.5190   23.2300 N.ar  512  HIS512     -0.2268
     71  CD2       21.3240   27.7780   22.4030 C.ar  512  HIS512      0.1154
     72  CE1       21.7710   28.8910   24.2390 C.ar  512  HIS512      0.1986
     73  NE2       21.1490   27.8270   23.7640 N.ar  512  HIS512     -0.2212
     74  N         24.1870   31.8700   23.8280 N.3   514  ASN514     -0.1225
     75  CA        23.4890   32.7270   24.7820 C.3   514  ASN514      0.1785
     76  C         23.7050   32.2910   26.2080 C.2   514  ASN514      0.2597
     77  O         23.8760   31.1010   26.4800 O.2   514  ASN514     -0.2718
     78  CB        21.9910   32.7680   24.4930 C.3   514  ASN514      0.1169
     79  CG        21.6720   33.4990   23.2060 C.2   514  ASN514      0.2627
     80  OD1       20.8080   33.0820   22.4360 O.2   514  ASN514     -0.2716
     81  ND2       22.3790   34.5910   22.9630 N.am  514  ASN514     -0.0877
     82  N         23.6890   33.2660   27.1150 N.am  515  VAL515     -0.1966
     83  CA        23.8540   33.0090   28.5380 C.3   515  VAL515      0.1727
     84  C         22.7530   33.7170   29.3320 C.2   515  VAL515      0.2616
     85  O         22.0890   34.6270   28.8210 O.2   515  VAL515     -0.2715
     86  CB        25.2320   33.4860   29.0280 C.3   515  VAL515      0.0290
     87  CG1       26.3580   32.7550   28.2680 C.3   515  VAL515      0.0023
     88  CG2       25.3590   34.9970   28.8580 C.3   515  VAL515      0.0023
     89  N         22.5560   33.2930   30.5780 N.am  516  THR516     -0.1951
     90  CA        21.5210   33.8660   31.4300 C.3   516  THR516      0.1897
     91  C         22.0300   33.8680   32.8660 C.2   516  THR516      0.2313
     92  O         22.8110   32.9940   33.2570 O.2   516  THR516     -0.2863
     93  CB        20.1930   33.0910   31.3320 C.3   516  THR516      0.1794
     94  OG1       19.1630   33.8150   32.0140 O.3   516  THR516     -0.2208
     95  CG2       20.3280   31.7060   31.9610 C.3   516  THR516      0.0378
@<TRIPOS>BOND
     1    64    65    1
     2    65    68    1
     3    65    66    1
     4    68    69    1
     5    45    44    1
     6    66    67    2
     7    69    71   ar
     8    69    70   ar
     9    71    73   ar
    10    80    79    2
    11    44    46    1
    12    44    41    1
    13    81    79   am
    14    79    78    1
    15    70    72   ar
    16    40    41    1
    17    41    42    1
    18    73    72   ar
    19    74    75    1
    20     3     2    1
    21     3     4    2
    22     1     2    1
    23    78    75    1
    24    75    76    1
    25     2     5    1
    26    42    43    2
    27    42    47   am
    28    47    48    1
    29    76    77    2
    30    76    82   am
    31     5     6    1
    32    39    37   ar
    33    39    38   ar
    34     7     6   ar
    35     7     9   ar
    36    37    35   ar
    37     6     8   ar
    38     9    11   ar
    39    56    57    1
    40    38    36   ar
    41    82    83    1
    42    48    51    1
    43    48    49    1
    44    52    51    1
    45    52    53    1
    46    35    34   ar
    47    57    60    1
    48    57    58    1
    49    60    61    1
    50    62    61    1
    51     8    10   ar
    52    11    10   ar
    53    11    12    1
    54    49    50    2
    55    36    34   ar
    56    34    33    1
    57    87    86    1
    58    55    53   am
    59    61    63    1
    60    83    86    1
    61    83    84    1
    62    53    54    2
    63    85    84    2
    64    88    86    1
    65    58    59    2
    66    33    30    1
    67    84    89   am
    68    18    19    1
    69    18    17    1
    70    19    13    1
    71    30    29    1
    72    30    31    1
    73    23    22    2
    74    24    25    1
    75    24    21    1
    76    17    14    1
    77    89    90    1
    78    29    22   am
    79    32    31    2
    80    22    21    1
    81    25    26    1
    82    93    90    1
    83    93    95    1
    84    93    94    1
    85    27    26   ar
    86    21    20    1
    87    90    91    1
    88    13    14    1
    89    26    28   ar
    90    14    15    1
    91    16    15    2
    92    91    92    2
