@<TRIPOS>MOLECULE
tmp/3zj5C00.pdb
 78 71 0 0 0
SMALL
GASTEIGER

@<TRIPOS>ATOM
      1  N        -35.8160   -5.1880   34.4990 N.3   207  ASP207     -0.1239
      2  CA       -35.0350   -4.7230   33.3530 C.3   207  ASP207      0.1674
      3  C        -33.8010   -4.0430   33.9310 C.2   207  ASP207      0.2266
      4  O        -33.7690   -3.7470   35.1300 O.2   207  ASP207     -0.2867
      5  CB       -35.8180   -3.7090   32.5010 C.3   207  ASP207      0.1410
      6  CG       -36.8200   -4.3650   31.5490 C.2   207  ASP207      0.3668
      7  OD1      -36.7680   -5.6020   31.3650 O.co2 207  ASP207     -0.2456
      8  OD2      -37.6620   -3.6370   30.9710 O.co2 207  ASP207     -0.2456
      9  N        -33.3440   -6.4320   28.8190 N.3   231  LYS231     -0.1231
     10  CA       -34.7760   -6.7390   28.8530 C.3   231  LYS231      0.1693
     11  C        -34.9720   -8.1360   29.3720 C.2   231  LYS231      0.2592
     12  O        -34.5220   -9.1100   28.7560 O.2   231  LYS231     -0.2718
     13  CB       -35.3880   -6.6290   27.4530 C.3   231  LYS231      0.0285
     14  CG       -35.0980   -5.2960   26.7710 C.3   231  LYS231      0.0035
     15  CD       -35.6220   -4.1240   27.5960 C.3   231  LYS231      0.0206
     16  CE       -37.1410   -4.0180   27.5180 C.3   231  LYS231      0.1093
     17  NZ       -37.6420   -2.8400   28.3060 N.3   231  LYS231     -0.1314
     18  N        -35.6300   -8.2450   30.5170 N.am  232  THR232     -0.1953
     19  CA       -35.7820   -9.5520   31.1410 C.3   232  THR232      0.1897
     20  C        -36.6850  -10.4460   30.3190 C.2   232  THR232      0.2313
     21  O        -37.7760  -10.0240   29.9050 O.2   232  THR232     -0.2863
     22  CB       -36.3390   -9.4450   32.5670 C.3   232  THR232      0.1794
     23  OG1      -36.7210  -10.7460   33.0140 O.3   232  THR232     -0.2208
     24  CG2      -37.5570   -8.5180   32.6270 C.3   232  THR232      0.0378
     25  N        -40.0160  -11.4450   32.2260 N.3   235  GLY235     -0.1210
     26  CA       -41.0540  -10.4360   32.4060 C.3   235  GLY235      0.1956
     27  C        -40.8410   -9.6150   33.6680 C.2   235  GLY235      0.2611
     28  O        -40.2540  -10.1170   34.6300 O.2   235  GLY235     -0.2717
     29  N        -41.2920   -8.3560   33.6700 N.am  236  LYS236     -0.1979
     30  CA       -41.2350   -7.5350   34.8810 C.3   236  LYS236      0.1596
     31  C        -42.3870   -7.8580   35.8290 C.2   236  LYS236      0.2287
     32  O        -43.5240   -8.0600   35.3930 O.2   236  LYS236     -0.2864
     33  CB       -41.2160   -6.0350   34.5360 C.3   236  LYS236      0.0298
     34  CG       -39.8780   -5.5790   33.9460 C.3   236  LYS236      0.0038
     35  CD       -39.7850   -4.0580   33.8030 C.3   236  LYS236      0.0206
     36  CE       -40.8050   -3.5270   32.8140 C.3   236  LYS236      0.1093
     37  NZ       -40.4560   -3.9410   31.4390 N.3   236  LYS236     -0.1314
     38  N        -39.2620    5.0710   23.6830 N.3   299  GLU299     -0.1245
     39  CA       -39.0920    4.1130   22.5910 C.3   299  GLU299      0.1567
     40  C        -39.7340    4.5870   21.2780 C.2   299  GLU299      0.2260
     41  O        -39.3920    4.0870   20.2030 O.2   299  GLU299     -0.2867
     42  CB       -39.6730    2.7460   22.9600 C.3   299  GLU299      0.0388
     43  CG       -38.9940    2.0540   24.1300 C.3   299  GLU299      0.1160
     44  CD       -39.5990    0.6910   24.4120 C.2   299  GLU299      0.3649
     45  OE1      -40.1850    0.0880   23.4810 O.co2 299  GLU299     -0.2457
     46  OE2      -39.4970    0.2210   25.5630 O.co2 299  GLU299     -0.2457
     47  N        -43.6110    0.9630   27.5550 N.3   518  GLY518     -0.1225
     48  CA       -42.5400    0.2090   28.1830 C.3   518  GLY518      0.1811
     49  C        -42.1350    0.5280   29.6080 C.2   518  GLY518      0.2280
     50  O        -41.1870   -0.0790   30.1130 O.2   518  GLY518     -0.2866
     51  N        -44.4380    0.5840   32.2530 N.3   520  SER520     -0.1217
     52  CA       -45.3700   -0.0650   33.1610 C.3   520  SER520      0.1889
     53  C        -44.9480   -1.5020   33.4490 C.2   520  SER520      0.2288
     54  O        -44.3950   -2.1900   32.5840 O.2   520  SER520     -0.2866
     55  CB       -46.7880   -0.0480   32.5740 C.3   520  SER520      0.2089
     56  OG       -47.7000   -0.7680   33.4000 O.3   520  SER520     -0.2183
     57  N        -48.6140   -5.5830   31.6330 N.3   524  GLU524     -0.1231
     58  CA       -48.2320   -6.7180   30.7970 C.3   524  GLU524      0.1699
     59  C        -48.2520   -8.0170   31.5870 C.2   524  GLU524      0.2592
     60  O        -47.7750   -8.0690   32.7220 O.2   524  GLU524     -0.2718
     61  CB       -46.8180   -6.4980   30.2470 C.3   524  GLU524      0.0402
     62  CG       -46.6500   -5.2040   29.4690 C.3   524  GLU524      0.1161
     63  CD       -46.8590   -5.3980   27.9860 C.2   524  GLU524      0.3649
     64  OE1      -47.0350   -6.5620   27.5660 O.co2 524  GLU524     -0.2457
     65  OE2      -46.8380   -4.3910   27.2450 O.co2 524  GLU524     -0.2457
     66  N        -48.8000   -9.0690   30.9960 N.am  525  SER525     -0.1952
     67  CA       -48.7650  -10.3750   31.6370 C.3   525  SER525      0.1924
     68  C        -47.3940  -11.0140   31.4410 C.2   525  SER525      0.2314
     69  O        -46.6800  -10.6930   30.4890 O.2   525  SER525     -0.2863
     70  CB       -49.8600  -11.2750   31.0740 C.3   525  SER525      0.2116
     71  OG       -49.9230  -11.1670   29.6640 O.3   525  SER525     -0.2180
     72  N        -44.4470  -13.6090   30.4840 N.3   527  PRO527     -0.2116
     73  CA       -44.2250  -14.4820   29.3230 C.3   527  PRO527      0.1372
     74  C        -44.1280  -15.9590   29.7060 C.2   527  PRO527      0.2244
     75  O        -44.3100  -16.8310   28.8540 O.2   527  PRO527     -0.2868
     76  CB       -42.8730  -13.9970   28.7760 C.3   527  PRO527      0.0268
     77  CG       -42.1800  -13.3820   29.9500 C.3   527  PRO527      0.0207
     78  CD       -43.2670  -12.7780   30.7940 C.3   527  PRO527      0.0892
@<TRIPOS>BOND
     1    41    40    2
     2    40    39    1
     3    39    42    1
     4    39    38    1
     5    42    43    1
     6    45    44   ar
     7    43    44    1
     8    44    46   ar
     9    14    13    1
    10    14    15    1
    11    65    63   ar
    12    13    10    1
    13    16    15    1
    14    16    17    1
    15    47    48    1
    16    64    63   ar
    17    63    62    1
    18    48    49    1
    19    12    11    2
    20    76    73    1
    21    76    77    1
    22     9    10    1
    23    10    11    1
    24    75    74    2
    25    73    74    1
    26    73    72    1
    27    11    18   am
    28    62    61    1
    29    49    50    2
    30    71    70    1
    31    21    20    2
    32    77    78    1
    33    61    58    1
    34    20    19    1
    35    72    78    1
    36    69    68    2
    37    18    19    1
    38    58    59    1
    39    58    57    1
    40     8     6   ar
    41    66    59   am
    42    66    67    1
    43    70    67    1
    44    19    22    1
    45     7     6   ar
    46    37    36    1
    47    68    67    1
    48     6     5    1
    49    59    60    2
    50    25    26    1
    51    51    52    1
    52    26    27    1
    53     5     2    1
    54    22    24    1
    55    22    23    1
    56    55    52    1
    57    55    56    1
    58    54    53    2
    59    36    35    1
    60    52    53    1
    61     2     3    1
    62     2     1    1
    63    27    29   am
    64    27    28    2
    65    29    30    1
    66    35    34    1
    67     3     4    2
    68    34    33    1
    69    33    30    1
    70    30    31    1
    71    32    31    2
