@<TRIPOS>MOLECULE
tmp/3zj6B00.pdb
 197 198 0 0 0
SMALL
GASTEIGER

@<TRIPOS>ATOM
      1  N        -11.0310   28.3740   13.7290 N.3    24  GLN24      -0.1245
      2  CA       -11.0350   27.9920   15.1350 C.3    24  GLN24       0.1566
      3  C        -10.8010   26.5150   15.3850 C.2    24  GLN24       0.2260
      4  O        -10.3450   26.1460   16.4600 O.2    24  GLN24      -0.2867
      5  CB       -12.3420   28.4310   15.7980 C.3    24  GLN24       0.0367
      6  CG       -12.4130   29.9300   15.9530 C.3    24  GLN24       0.0905
      7  CD       -13.7540   30.3930   16.5390 C.2    24  GLN24       0.2608
      8  OE1      -14.7410   30.4970   15.8190 O.2    24  GLN24      -0.2717
      9  NE2      -13.7860   30.6340   17.8520 N.am   24  GLN24      -0.0878
     10  N        -16.5250   33.4470    7.9150 N.3   128  HIS128     -0.1226
     11  CA       -16.4270   33.5950    9.3550 C.3   128  HIS128      0.1752
     12  C        -15.0460   34.1630    9.6910 C.2   128  HIS128      0.2596
     13  O        -14.2770   33.5660   10.4480 O.2   128  HIS128     -0.2718
     14  CB       -16.7120   32.2550   10.0350 C.3   128  HIS128      0.0759
     15  CG       -17.0550   32.3450   11.5070 C.ar  128  HIS128      0.0818
     16  ND1      -18.1160   31.6480   12.0620 N.ar  128  HIS128     -0.2268
     17  CD2      -16.4480   32.9920   12.5440 C.ar  128  HIS128      0.1154
     18  CE1      -18.1540   31.8760   13.3680 C.ar  128  HIS128      0.1986
     19  NE2      -17.1600   32.6910   13.6860 N.ar  128  HIS128     -0.2212
     20  N        -14.7240   35.2960    9.0530 N.am  129  TRP129     -0.1976
     21  CA       -13.6480   36.2500    9.4270 C.3   129  TRP129      0.1640
     22  C        -12.2750   35.9820    8.8010 C.2   129  TRP129      0.2290
     23  O        -11.3650   36.8300    8.9040 O.2   129  TRP129     -0.2864
     24  CB       -13.4770   36.4090   10.9630 C.3   129  TRP129      0.0576
     25  CG       -14.7260   36.6510   11.7660 C.ar  129  TRP129      0.0006
     26  CD1      -16.0080   36.9920   11.2940 C.ar  129  TRP129      0.0946
     27  CD2      -14.8300   36.6070   13.1890 C.ar  129  TRP129      0.0152
     28  NE1      -16.8660   37.1180   12.3480 N.ar  129  TRP129     -0.2442
     29  CE2      -16.1800   36.8930   13.5200 C.ar  129  TRP129      0.0810
     30  CE3      -13.9150   36.3490   14.2260 C.ar  129  TRP129      0.0012
     31  CZ2      -16.6340   36.9150   14.8480 C.ar  129  TRP129      0.0191
     32  CZ3      -14.3800   36.3590   15.5570 C.ar  129  TRP129      0.0001
     33  CH2      -15.7190   36.6340   15.8460 C.ar  129  TRP129      0.0015
     34  N        -20.9190   35.4520    9.1160 N.3   173  ASN173     -0.1225
     35  CA       -21.1500   35.2980   10.5440 C.3   173  ASN173      0.1785
     36  C        -20.6390   36.5250   11.2920 C.2   173  ASN173      0.2597
     37  O        -19.4950   36.9730   11.0950 O.2   173  ASN173     -0.2718
     38  CB       -20.4860   34.0300   11.1010 C.3   173  ASN173      0.1169
     39  CG       -20.4810   34.0160   12.6420 C.2   173  ASN173      0.2627
     40  OD1      -19.4560   34.3270   13.2890 O.2   173  ASN173     -0.2716
     41  ND2      -21.6260   33.6870   13.2240 N.am  173  ASN173     -0.0877
     42  N        -21.4880   37.0780   12.1500 N.am  174  GLU174     -0.1979
     43  CA       -21.0980   38.2570   12.9270 C.3   174  GLU174      0.1602
     44  C        -20.2590   39.2940   12.1940 C.2   174  GLU174      0.2287
     45  O        -19.1260   39.5900   12.6050 O.2   174  GLU174     -0.2864
     46  CB       -20.3820   37.8510   14.1960 C.3   174  GLU174      0.0415
     47  CG       -21.2030   36.9170   15.0380 C.3   174  GLU174      0.1163
     48  CD       -20.6150   36.7080   16.4250 C.2   174  GLU174      0.3649
     49  OE1      -19.4700   37.2280   16.6980 O.co2 174  GLU174     -0.2457
     50  OE2      -21.3160   36.0180   17.2240 O.co2 174  GLU174     -0.2457
     51  N        -20.7420   42.2720   12.4610 N.3   176  TRP176     -0.1227
     52  CA       -20.5680   43.2750   13.5100 C.3   176  TRP176      0.1737
     53  C        -19.2070   43.0660   14.1960 C.2   176  TRP176      0.2596
     54  O        -18.4190   44.0020   14.3210 O.2   176  TRP176     -0.2718
     55  CB       -21.6900   43.2280   14.5590 C.3   176  TRP176      0.0564
     56  CG       -21.4560   44.2410   15.6500 C.ar  176  TRP176      0.0003
     57  CD1      -21.8510   45.5510   15.6350 C.ar  176  TRP176      0.0946
     58  CD2      -20.7570   44.0500   16.8950 C.ar  176  TRP176      0.0152
     59  NE1      -21.4340   46.1840   16.7740 N.ar  176  TRP176     -0.2442
     60  CE2      -20.7720   45.2920   17.5730 C.ar  176  TRP176      0.0810
     61  CE3      -20.1250   42.9470   17.5070 C.ar  176  TRP176      0.0012
     62  CZ2      -20.1750   45.4770   18.8490 C.ar  176  TRP176      0.0191
     63  CZ3      -19.5120   43.1230   18.7680 C.ar  176  TRP176      0.0001
     64  CH2      -19.5360   44.3940   19.4220 C.ar  176  TRP176      0.0015
     65  N        -18.9510   41.8420   14.6380 N.am  177  THR177     -0.1953
     66  CA       -17.7250   41.5510   15.3960 C.3   177  THR177      0.1897
     67  C        -16.5100   41.7860   14.5220 C.2   177  THR177      0.2313
     68  O        -15.5400   42.4450   14.9410 O.2   177  THR177     -0.2863
     69  CB       -17.7440   40.1280   15.9880 C.3   177  THR177      0.1794
     70  OG1      -19.0270   39.8890   16.6010 O.3   177  THR177     -0.2208
     71  CG2      -16.6110   39.9070   17.0210 C.3   177  THR177      0.0378
     72  N        -14.2720   44.7600   15.9480 N.3   181  HIS181     -0.1241
     73  CA       -13.0290   44.2960   16.5930 C.3   181  HIS181      0.1621
     74  C        -11.8610   44.3970   15.6010 C.2   181  HIS181      0.2264
     75  O        -10.7110   44.4710   16.0050 O.2   181  HIS181     -0.2867
     76  CB       -13.1520   42.8430   17.1180 C.3   181  HIS181      0.0745
     77  CG       -14.0190   42.6950   18.3280 C.ar  181  HIS181      0.0817
     78  ND1      -13.6220   41.9790   19.4410 N.ar  181  HIS181     -0.2268
     79  CD2      -15.2720   43.1470   18.5980 C.ar  181  HIS181      0.1154
     80  CE1      -14.5790   42.0220   20.3550 C.ar  181  HIS181      0.1986
     81  NE2      -15.5810   42.7420   19.8760 N.ar  181  HIS181     -0.2212
     82  N         -8.8500   42.3350   16.8350 N.3   188  TYR188     -0.1241
     83  CA        -8.9480   41.1390   16.0110 C.3   188  TYR188      0.1605
     84  C         -8.2820   41.4810   14.6750 C.2   188  TYR188      0.2264
     85  O         -8.1440   42.6650   14.3300 O.2   188  TYR188     -0.2867
     86  CB       -10.4150   40.7390   15.7670 C.3   188  TYR188      0.0534
     87  CG       -11.1260   39.9790   16.8600 C.ar  188  TYR188     -0.0201
     88  CD1      -10.5640   39.7880   18.1360 C.ar  188  TYR188     -0.0009
     89  CD2      -12.4120   39.5170   16.6360 C.ar  188  TYR188     -0.0009
     90  CE1      -11.2780   39.0670   19.1260 C.ar  188  TYR188      0.0417
     91  CE2      -13.1170   38.8350   17.5810 C.ar  188  TYR188      0.0417
     92  CZ       -12.5630   38.6230   18.8340 C.ar  188  TYR188      0.1957
     93  OH       -13.3340   37.9350   19.7430 O.3   188  TYR188     -0.2866
     94  N        -24.3160   39.0790   15.2480 N.3   237  ALA237     -0.1245
     95  CA       -23.9780   39.2470   16.6940 C.3   237  ALA237      0.1562
     96  C        -25.1080   40.0010   17.4120 C.2   237  ALA237      0.2260
     97  O        -25.5900   41.0200   16.8970 O.2   237  ALA237     -0.2867
     98  CB       -22.6430   39.9650   16.8940 C.3   237  ALA237      0.0290
     99  N        -26.5330   41.1900   21.5650 N.3   239  GLN239     -0.1245
    100  CA       -26.4260   41.2450   23.0160 C.3   239  GLN239      0.1566
    101  C        -27.7000   41.9690   23.4580 C.2   239  GLN239      0.2260
    102  O        -28.0410   42.9890   22.8500 O.2   239  GLN239     -0.2867
    103  CB       -25.1670   42.0460   23.4060 C.3   239  GLN239      0.0367
    104  CG       -25.1540   42.7010   24.7970 C.3   239  GLN239      0.0905
    105  CD       -23.7520   43.0990   25.2990 C.2   239  GLN239      0.2608
    106  OE1      -22.8770   43.5080   24.5580 O.2   239  GLN239     -0.2717
    107  NE2      -23.5630   42.9920   26.5810 N.am  239  GLN239     -0.0878
    108  N        -25.1200   35.7340   23.5810 N.3   310  TYR310     -0.1227
    109  CA       -24.3670   35.3050   24.7700 C.3   310  TYR310      0.1736
    110  C        -24.8010   35.9940   26.0660 C.2   310  TYR310      0.2596
    111  O        -24.9000   35.3630   27.1200 O.2   310  TYR310     -0.2718
    112  CB       -22.8390   35.5040   24.5400 C.3   310  TYR310      0.0548
    113  CG       -22.3700   34.5880   23.4860 C.ar  310  TYR310     -0.0200
    114  CD1      -22.4770   34.9390   22.1230 C.ar  310  TYR310     -0.0009
    115  CD2      -21.8890   33.3220   23.8270 C.ar  310  TYR310     -0.0009
    116  CE1      -22.0780   34.0390   21.1400 C.ar  310  TYR310      0.0417
    117  CE2      -21.5070   32.4210   22.8550 C.ar  310  TYR310      0.0417
    118  CZ       -21.6010   32.7780   21.5300 C.ar  310  TYR310      0.1957
    119  OH       -21.2120   31.8670   20.5960 O.3   310  TYR310     -0.2866
    120  N        -25.0430   37.2970   25.9960 N.am  311  THR311     -0.1953
    121  CA       -25.0650   38.1120   27.2150 C.3   311  THR311      0.1897
    122  C        -25.8310   39.4380   27.0300 C.2   311  THR311      0.2313
    123  O        -26.3600   39.6990   25.9730 O.2   311  THR311     -0.2863
    124  CB       -23.6280   38.3610   27.7180 C.3   311  THR311      0.1794
    125  OG1      -23.6820   38.9260   29.0490 O.3   311  THR311     -0.2208
    126  CG2      -22.8660   39.2860   26.7250 C.3   311  THR311      0.0378
    127  N        -16.6550   39.4390   30.6210 N.3   348  TRP348     -0.1241
    128  CA       -17.6430   40.1180   29.7860 C.3   348  TRP348      0.1605
    129  C        -18.9370   39.2790   29.6090 C.2   348  TRP348      0.2264
    130  O        -19.9390   39.7980   29.1410 O.2   348  TRP348     -0.2867
    131  CB       -17.0450   40.4450   28.4140 C.3   348  TRP348      0.0550
    132  CG       -16.5470   39.2110   27.6670 C.ar  348  TRP348      0.0003
    133  CD1      -15.2680   38.7190   27.6650 C.ar  348  TRP348      0.0946
    134  CD2      -17.3230   38.3230   26.8140 C.ar  348  TRP348      0.0152
    135  NE1      -15.2050   37.5890   26.8770 N.ar  348  TRP348     -0.2442
    136  CE2      -16.4420   37.3350   26.3340 C.ar  348  TRP348      0.0810
    137  CE3      -18.6730   38.2850   26.4080 C.ar  348  TRP348      0.0012
    138  CZ2      -16.8570   36.3020   25.4680 C.ar  348  TRP348      0.0191
    139  CZ3      -19.0830   37.2730   25.5360 C.ar  348  TRP348      0.0001
    140  CH2      -18.1710   36.2790   25.0840 C.ar  348  TRP348      0.0015
    141  N        -25.9940   30.6950   17.3180 N.3   376  GLU376     -0.1196
    142  CA       -24.9840   30.4820   18.3800 C.3   376  GLU376      0.1783
    143  C        -25.5720   30.8600   19.7290 C.2   376  GLU376      0.2306
    144  O        -26.2060   31.9090   19.8630 O.2   376  GLU376     -0.2863
    145  CB       -23.7190   31.3540   18.1990 C.2   376  GLU376      0.0071
    146  CG       -22.9020   31.0480   16.9890 C.2   376  GLU376      0.0834
    147  CD       -21.5230   31.7080   16.9490 C.2   376  GLU376      0.3877
    148  OE1      -21.0270   32.2740   17.9490 O.co2 376  GLU376     -0.2406
    149  OE2      -20.9130   31.6670   15.8660 O.co2 376  GLU376     -0.2406
    150  N        -23.0500   26.8700   20.7840 N.3   425  TRP425     -0.1241
    151  CA       -21.6530   27.1530   20.4340 C.3   425  TRP425      0.1605
    152  C        -20.8810   26.7340   21.6630 C.2   425  TRP425      0.2264
    153  O        -21.2080   27.1830   22.7360 O.2   425  TRP425     -0.2867
    154  CB       -21.4440   28.6520   20.2040 C.3   425  TRP425      0.0550
    155  CG       -20.0180   28.9750   19.9160 C.ar  425  TRP425      0.0003
    156  CD1      -19.0280   29.3490   20.8280 C.ar  425  TRP425      0.0946
    157  CD2      -19.3640   28.8350   18.6560 C.ar  425  TRP425      0.0152
    158  NE1      -17.8050   29.4560   20.1840 N.ar  425  TRP425     -0.2442
    159  CE2      -17.9850   29.1530   18.8530 C.ar  425  TRP425      0.0810
    160  CE3      -19.8020   28.4710   17.3770 C.ar  425  TRP425      0.0012
    161  CZ2      -17.0610   29.1390   17.8060 C.ar  425  TRP425      0.0191
    162  CZ3      -18.8870   28.4730   16.3460 C.ar  425  TRP425      0.0001
    163  CH2      -17.5250   28.8050   16.5690 C.ar  425  TRP425      0.0015
    164  N        -10.1830   30.5350   20.6890 N.3   432  GLU432     -0.1231
    165  CA       -11.1360   31.5860   20.9610 C.3   432  GLU432      0.1699
    166  C        -10.5460   32.9660   20.6200 C.2   432  GLU432      0.2592
    167  O        -10.4390   33.8560   21.4710 O.2   432  GLU432     -0.2718
    168  CB       -11.6050   31.4740   22.4180 C.3   432  GLU432      0.0402
    169  CG       -12.5370   32.5960   22.8760 C.3   432  GLU432      0.1161
    170  CD       -13.7610   32.7850   21.9520 C.2   432  GLU432      0.3649
    171  OE1      -14.1130   31.7910   21.2250 O.co2 432  GLU432     -0.2457
    172  OE2      -14.3200   33.9410   21.9570 O.co2 432  GLU432     -0.2457
    173  N        -10.1020   33.0940   19.3730 N.am  433  TRP433     -0.1976
    174  CA        -9.5680   34.3290   18.8420 C.3   433  TRP433      0.1640
    175  C         -8.5210   35.0060   19.7480 C.2   433  TRP433      0.2290
    176  O         -7.5140   34.3670   20.0990 O.2   433  TRP433     -0.2864
    177  CB       -10.7250   35.2480   18.4880 C.3   433  TRP433      0.0576
    178  CG       -11.7470   34.5710   17.6320 C.ar  433  TRP433      0.0006
    179  CD1      -13.0160   34.2790   17.9880 C.ar  433  TRP433      0.0946
    180  CD2      -11.5890   34.1030   16.2680 C.ar  433  TRP433      0.0152
    181  NE1      -13.6700   33.6580   16.9420 N.ar  433  TRP433     -0.2442
    182  CE2      -12.8130   33.5510   15.8750 C.ar  433  TRP433      0.0810
    183  CE3      -10.5380   34.1360   15.3410 C.ar  433  TRP433      0.0012
    184  CZ2      -13.0330   33.0530   14.5940 C.ar  433  TRP433      0.0191
    185  CZ3      -10.7490   33.6220   14.0720 C.ar  433  TRP433      0.0001
    186  CH2      -11.9770   33.0750   13.7160 C.ar  433  TRP433      0.0015
    187  N        -15.3520   26.8040   25.1790 N.3   441  PHE441     -0.1241
    188  CA       -16.8020   26.9310   24.8990 C.3   441  PHE441      0.1605
    189  C        -17.4620   25.6030   24.5480 C.2   441  PHE441      0.2264
    190  O        -18.6560   25.5560   24.3350 O.2   441  PHE441     -0.2867
    191  CB       -17.0330   27.9070   23.7190 C.3   441  PHE441      0.0534
    192  CG       -17.2530   29.3710   24.1350 C.ar  441  PHE441     -0.0203
    193  CD1      -18.4910   29.7950   24.5960 C.ar  441  PHE441     -0.0042
    194  CD2      -16.2180   30.3130   24.0330 C.ar  441  PHE441     -0.0042
    195  CE1      -18.7050   31.1110   24.9730 C.ar  441  PHE441     -0.0003
    196  CE2      -16.4190   31.6430   24.4130 C.ar  441  PHE441     -0.0003
    197  CZ       -17.6810   32.0500   24.8790 C.ar  441  PHE441     -0.0000
@<TRIPOS>BOND
     1    10    11    1
     2    22    23    2
     3    22    21    1
     4    20    21    1
     5    20    12   am
     6    34    35    1
     7    11    12    1
     8    11    14    1
     9    21    24    1
    10    12    13    2
    11    14    15    1
    12    35    38    1
    13    35    36    1
    14    24    25    1
    15    37    36    2
    16    38    39    1
    17    36    42   am
    18    26    25   ar
    19    26    28   ar
    20    15    16   ar
    21    15    17   ar
    22    25    27   ar
    23    16    18   ar
    24    42    43    1
    25    44    45    2
    26    44    43    1
    27    28    29   ar
    28    51    52    1
    29    17    19   ar
    30    39    41   am
    31    39    40    2
    32    43    46    1
    33    27    29   ar
    34    27    30   ar
    35    18    19   ar
    36    52    53    1
    37    52    55    1
    38    29    31   ar
    39   186   185   ar
    40   186   184   ar
    41     1     2    1
    42   185   183   ar
    43    46    47    1
    44    53    54    2
    45    53    65   am
    46    30    32   ar
    47    85    84    2
    48    67    68    2
    49    67    66    1
    50    55    56    1
    51   184   182   ar
    52    65    66    1
    53    84    83    1
    54    31    33   ar
    55    47    48    1
    56     2     3    1
    57     2     5    1
    58    94    95    1
    59   183   180   ar
    60     3     4    2
    61    66    69    1
    62    32    33   ar
    63    74    75    2
    64    74    73    1
    65    57    56   ar
    66    57    59   ar
    67    56    58   ar
    68    86    83    1
    69    86    87    1
    70     5     6    1
    71     8     7    2
    72   149   147   ar
    73   182   180   ar
    74   182   181   ar
    75    72    73    1
    76     6     7    1
    77    69    70    1
    78    69    71    1
    79    83    82    1
    80   180   178   ar
    81   162   163   ar
    82   162   160   ar
    83    48    49   ar
    84    48    50   ar
    85     7     9   am
    86   163   161   ar
    87    73    76    1
    88    89    87   ar
    89    89    91   ar
    90    95    98    1
    91    95    96    1
    92    59    60   ar
    93    87    88   ar
    94    58    61   ar
    95    58    60   ar
    96    97    96    2
    97   181   179   ar
    98   147   146    1
    99   147   148   ar
   100   146   145    2
   101    76    77    1
   102   141   142    1
   103   160   157   ar
   104    61    63   ar
   105    60    62   ar
   106    91    92   ar
   107   178   179   ar
   108   178   177    1
   109   161   159   ar
   110    88    90   ar
   111   145   142    1
   112    77    79   ar
   113    77    78   ar
   114   142   143    1
   115   177   174    1
   116    79    81   ar
   117   157   159   ar
   118   157   155   ar
   119    63    64   ar
   120    92    90   ar
   121    92    93    1
   122   174   173    1
   123   174   175    1
   124    62    64   ar
   125   159   158   ar
   126   173   166   am
   127    78    80   ar
   128   143   144    2
   129   175   176    2
   130    81    80   ar
   131   155   154    1
   132   155   156   ar
   133   158   156   ar
   134   154   151    1
   135   151   150    1
   136   151   152    1
   137   119   118    1
   138   166   165    1
   139   166   167    2
   140   164   165    1
   141   165   168    1
   142   116   118   ar
   143   116   114   ar
   144   171   170   ar
   145   118   117   ar
   146    99   100    1
   147   152   153    2
   148   170   172   ar
   149   170   169    1
   150   114   113   ar
   151   168   169    1
   152   102   101    2
   153   117   115   ar
   154   100   103    1
   155   100   101    1
   156   103   104    1
   157   113   115   ar
   158   113   112    1
   159   108   109    1
   160   191   192    1
   161   191   188    1
   162   194   192   ar
   163   194   196   ar
   164   192   193   ar
   165   190   189    2
   166   196   197   ar
   167   112   109    1
   168   189   188    1
   169   106   105    2
   170   193   195   ar
   171   109   110    1
   172   104   105    1
   173   197   195   ar
   174   188   187    1
   175   140   138   ar
   176   140   139   ar
   177   105   107   am
   178   138   136   ar
   179   139   137   ar
   180   123   122    2
   181   120   110   am
   182   120   121    1
   183   110   111    2
   184   136   134   ar
   185   136   135   ar
   186   137   134   ar
   187   126   124    1
   188   134   132   ar
   189   135   133   ar
   190   122   121    1
   191   121   124    1
   192   133   132   ar
   193   132   131    1
   194   124   125    1
   195   131   128    1
   196   130   129    2
   197   129   128    1
   198   128   127    1
