@<TRIPOS>MOLECULE
tmp/3zj7B00.pdb
 176 174 0 0 0
SMALL
GASTEIGER

@<TRIPOS>ATOM
      1  N        -56.6010  -22.5280   20.9300 N.3    21  GLN21      -0.1245
      2  CA       -57.4700  -23.6880   20.8760 C.3    21  GLN21       0.1566
      3  C        -58.9270  -23.3000   20.7550 C.2    21  GLN21       0.2260
      4  O        -59.6660  -24.0270   20.1350 O.2    21  GLN21      -0.2867
      5  CB       -57.3250  -24.5590   22.1010 C.3    21  GLN21       0.0367
      6  CG       -55.8790  -24.8710   22.4510 C.3    21  GLN21       0.0905
      7  CD       -55.7750  -25.6250   23.7300 C.2    21  GLN21       0.2608
      8  OE1      -55.9980  -26.8260   23.7590 O.2    21  GLN21      -0.2717
      9  NE2      -55.4650  -24.9240   24.8090 N.am   21  GLN21      -0.0878
     10  N        -49.9190  -18.4790   26.2650 N.3   125  HIS125     -0.1226
     11  CA       -50.3330  -19.8770   26.0580 C.3   125  HIS125      0.1752
     12  C        -49.8900  -20.3970   24.6360 C.2   125  HIS125      0.2596
     13  O        -50.7090  -20.8360   23.8160 O.2   125  HIS125     -0.2718
     14  CB       -51.8640  -20.0320   26.3000 C.3   125  HIS125      0.0759
     15  CG       -52.2870  -21.4370   26.6250 C.ar  125  HIS125      0.0818
     16  ND1      -53.0150  -21.7520   27.7550 N.ar  125  HIS125     -0.2268
     17  CD2      -52.0600  -22.6130   25.9880 C.ar  125  HIS125      0.1154
     18  CE1      -53.2260  -23.0540   27.7940 C.ar  125  HIS125      0.1986
     19  NE2      -52.6390  -23.6000   26.7510 N.ar  125  HIS125     -0.2212
     20  N        -48.5720  -20.2910   24.3860 N.am  126  TRP126     -0.1976
     21  CA       -47.8360  -20.8830   23.2860 C.3   126  TRP126      0.1640
     22  C        -47.9410  -20.1210   22.0210 C.2   126  TRP126      0.2290
     23  O        -47.0490  -20.2320   21.2280 O.2   126  TRP126     -0.2864
     24  CB       -48.1230  -22.3780   23.0670 C.3   126  TRP126      0.0576
     25  CG       -48.0870  -23.1950   24.3090 C.ar  126  TRP126      0.0006
     26  CD1      -47.5080  -22.8600   25.4910 C.ar  126  TRP126      0.0946
     27  CD2      -48.6320  -24.5060   24.5010 C.ar  126  TRP126      0.0152
     28  NE1      -47.6620  -23.8600   26.4040 N.ar  126  TRP126     -0.2442
     29  CE2      -48.3640  -24.8760   25.8330 C.ar  126  TRP126      0.0810
     30  CE3      -49.3230  -25.4030   23.6800 C.ar  126  TRP126      0.0012
     31  CZ2      -48.7740  -26.1010   26.3700 C.ar  126  TRP126      0.0191
     32  CZ3      -49.7440  -26.5890   24.2180 C.ar  126  TRP126      0.0001
     33  CH2      -49.4770  -26.9280   25.5580 C.ar  126  TRP126      0.0015
     34  N        -48.3930  -20.3310   30.6650 N.3   170  ASN170     -0.1225
     35  CA       -48.9320  -21.6190   30.9290 C.3   170  ASN170      0.1785
     36  C        -48.0150  -22.7110   30.3500 C.2   170  ASN170      0.2597
     37  O        -47.6380  -22.6700   29.1550 O.2   170  ASN170     -0.2718
     38  CB       -50.3220  -21.7150   30.3440 C.3   170  ASN170      0.1169
     39  CG       -50.7880  -23.1270   30.2560 C.2   170  ASN170      0.2627
     40  OD1      -51.3260  -23.6720   31.2200 O.2   170  ASN170     -0.2716
     41  ND2      -50.5430  -23.7610   29.0840 N.am  170  ASN170     -0.0877
     42  N        -47.6690  -23.6630   31.2170 N.am  171  GLU171     -0.1979
     43  CA       -46.7830  -24.7820   30.9210 C.3   171  GLU171      0.1602
     44  C        -45.5640  -24.4700   30.0830 C.2   171  GLU171      0.2287
     45  O        -45.4860  -24.9130   28.9780 O.2   171  GLU171     -0.2864
     46  CB       -47.5450  -25.9270   30.2370 C.3   171  GLU171      0.0415
     47  CG       -48.5670  -26.5840   31.0630 C.3   171  GLU171      0.1163
     48  CD       -49.3600  -27.6080   30.2730 C.2   171  GLU171      0.3649
     49  OE1      -48.9080  -28.0170   29.1800 O.co2 171  GLU171     -0.2457
     50  OE2      -50.4410  -28.0040   30.7580 O.co2 171  GLU171     -0.2457
     51  N        -43.9440  -27.7110   28.6590 N.3   174  THR174     -0.1218
     52  CA       -44.4980  -28.2760   27.4390 C.3   174  THR174      0.1862
     53  C        -44.1270  -27.5180   26.1530 C.2   174  THR174      0.2287
     54  O        -43.9470  -28.1240   25.1070 O.2   174  THR174     -0.2866
     55  CB       -46.0020  -28.3710   27.4620 C.3   174  THR174      0.1770
     56  OG1      -46.4210  -29.0100   28.6600 O.3   174  THR174     -0.2211
     57  CG2      -46.4920  -29.1560   26.1890 C.3   174  THR174      0.0375
     58  N        -41.6820  -29.6380   24.0430 N.3   178  ASN178     -0.1240
     59  CA       -42.3490  -30.1020   22.8590 C.3   178  ASN178      0.1653
     60  C        -42.0360  -29.2560   21.6320 C.2   178  ASN178      0.2266
     61  O        -42.2350  -29.7050   20.4960 O.2   178  ASN178     -0.2867
     62  CB       -43.8680  -30.1770   23.0550 C.3   178  ASN178      0.1155
     63  CG       -44.3060  -31.3630   23.8750 C.2   178  ASN178      0.2627
     64  OD1      -45.4870  -31.5290   24.1260 O.2   178  ASN178     -0.2716
     65  ND2      -43.3650  -32.1980   24.2930 N.am  178  ASN178     -0.0877
     66  N        -44.6110  -29.7270   18.7000 N.3   185  PHE185     -0.1241
     67  CA       -45.3390  -28.4800   18.9080 C.3   185  PHE185      0.1605
     68  C        -44.6240  -27.3040   18.2090 C.2   185  PHE185      0.2264
     69  O        -43.4100  -27.3870   17.9410 O.2   185  PHE185     -0.2867
     70  CB       -45.4300  -28.2120   20.4230 C.3   185  PHE185      0.0534
     71  CG       -46.5670  -28.8850   21.0640 C.ar  185  PHE185     -0.0203
     72  CD1      -47.1080  -30.0330   20.5170 C.ar  185  PHE185     -0.0042
     73  CD2      -47.1230  -28.3780   22.1850 C.ar  185  PHE185     -0.0042
     74  CE1      -48.1850  -30.6860   21.0970 C.ar  185  PHE185     -0.0003
     75  CE2      -48.2000  -29.0270   22.7860 C.ar  185  PHE185     -0.0003
     76  CZ       -48.7180  -30.1940   22.2250 C.ar  185  PHE185     -0.0000
     77  N        -46.7600  -27.4590   35.0940 N.3   237  ASN237     -0.1240
     78  CA       -47.2290  -28.8320   34.9840 C.3   237  ASN237      0.1653
     79  C        -46.1920  -29.7990   35.5700 C.2   237  ASN237      0.2266
     80  O        -45.0070  -29.4760   35.6760 O.2   237  ASN237     -0.2867
     81  CB       -47.5670  -29.1860   33.5250 C.3   237  ASN237      0.1155
     82  CG       -46.3790  -29.1320   32.6560 C.2   237  ASN237      0.2627
     83  OD1      -45.6360  -28.1560   32.6730 O.2   237  ASN237     -0.2716
     84  ND2      -46.1700  -30.1830   31.8690 N.am  237  ASN237     -0.0877
     85  N        -38.5670  -31.6280   35.6400 N.3   261  MET261     -0.1245
     86  CA       -39.9060  -31.2360   35.1700 C.3   261  MET261      0.1570
     87  C        -40.4570  -30.0870   35.9900 C.2   261  MET261      0.2261
     88  O        -40.8870  -29.0930   35.4680 O.2   261  MET261     -0.2867
     89  CB       -40.9040  -32.4310   35.0690 C.3   261  MET261      0.0387
     90  CG       -42.1950  -32.1680   34.2100 C.3   261  MET261      0.0595
     91  SD       -43.0630  -33.6690   33.6710 S.3   261  MET261     -0.1393
     92  CE       -44.3310  -33.0540   32.5450 C.3   261  MET261      0.0692
     93  N        -52.3960  -34.2670   34.9930 N.3   309  TYR309     -0.1241
     94  CA       -53.1490  -35.2070   34.1820 C.3   309  TYR309      0.1605
     95  C        -52.9050  -36.6620   34.6200 C.2   309  TYR309      0.2264
     96  O        -53.8740  -37.4540   34.6710 O.2   309  TYR309     -0.2867
     97  CB       -52.8460  -35.0130   32.6580 C.3   309  TYR309      0.0534
     98  CG       -53.4920  -33.7570   32.1550 C.ar  309  TYR309     -0.0201
     99  CD1      -54.8630  -33.7340   31.8260 C.ar  309  TYR309     -0.0009
    100  CD2      -52.7960  -32.5610   32.1640 C.ar  309  TYR309     -0.0009
    101  CE1      -55.4850  -32.5470   31.4690 C.ar  309  TYR309      0.0417
    102  CE2      -53.4110  -31.3920   31.8010 C.ar  309  TYR309      0.0417
    103  CZ       -54.7440  -31.3920   31.4490 C.ar  309  TYR309      0.1957
    104  OH       -55.3100  -30.2060   31.0620 O.3   309  TYR309     -0.2866
    105  N        -51.6170  -42.3380   26.9300 N.3   347  TRP347     -0.1241
    106  CA       -50.6520  -41.6370   27.7860 C.3   347  TRP347      0.1605
    107  C        -51.2820  -41.3930   29.1410 C.2   347  TRP347      0.2264
    108  O        -50.6900  -41.7030   30.1760 O.2   347  TRP347     -0.2867
    109  CB       -50.1260  -40.3460   27.1450 C.3   347  TRP347      0.0550
    110  CG       -49.2120  -39.6020   28.0230 C.ar  347  TRP347      0.0003
    111  CD1      -47.8730  -39.8330   28.1920 C.ar  347  TRP347      0.0946
    112  CD2      -49.5340  -38.4940   28.8640 C.ar  347  TRP347      0.0152
    113  NE1      -47.3460  -38.9410   29.0920 N.ar  347  TRP347     -0.2442
    114  CE2      -48.3410  -38.1040   29.5210 C.ar  347  TRP347      0.0810
    115  CE3      -50.7110  -37.7770   29.1210 C.ar  347  TRP347      0.0012
    116  CZ2      -48.2840  -37.0220   30.4070 C.ar  347  TRP347      0.0191
    117  CZ3      -50.6610  -36.6980   30.0530 C.ar  347  TRP347      0.0001
    118  CH2      -49.4680  -36.3540   30.6900 C.ar  347  TRP347      0.0015
    119  N        -55.3560  -26.7410   35.8480 N.3   375  GLU375     -0.1245
    120  CA       -55.8490  -27.6750   34.8140 C.3   375  GLU375      0.1567
    121  C        -55.9540  -29.0810   35.3790 C.2   375  GLU375      0.2260
    122  O        -54.9780  -29.6190   35.8430 O.2   375  GLU375     -0.2867
    123  CB       -54.9190  -27.7370   33.6180 C.3   375  GLU375      0.0388
    124  CG       -54.9790  -26.4900   32.7520 C.3   375  GLU375      0.1160
    125  CD       -54.3350  -26.6760   31.4030 C.2   375  GLU375      0.3649
    126  OE1      -54.1070  -27.8370   31.0420 O.co2 375  GLU375     -0.2457
    127  OE2      -54.0910  -25.6710   30.6980 O.co2 375  GLU375     -0.2457
    128  N        -60.2280  -28.5720   33.2170 N.3   424  TRP424     -0.1241
    129  CA       -59.7110  -28.3740   31.8240 C.3   424  TRP424      0.1605
    130  C        -60.2840  -29.4380   30.9160 C.2   424  TRP424      0.2264
    131  O        -60.1880  -30.6020   31.2600 O.2   424  TRP424     -0.2867
    132  CB       -58.1920  -28.5500   31.6880 C.3   424  TRP424      0.0550
    133  CG       -57.7990  -28.2520   30.2950 C.ar  424  TRP424      0.0003
    134  CD1      -57.7620  -29.1180   29.1710 C.ar  424  TRP424      0.0946
    135  CD2      -57.5440  -26.9590   29.7940 C.ar  424  TRP424      0.0152
    136  NE1      -57.4620  -28.4010   28.0300 N.ar  424  TRP424     -0.2442
    137  CE2      -57.3070  -27.0810   28.3880 C.ar  424  TRP424      0.0810
    138  CE3      -57.4810  -25.6970   30.3950 C.ar  424  TRP424      0.0012
    139  CZ2      -56.9950  -25.9830   27.6070 C.ar  424  TRP424      0.0191
    140  CZ3      -57.1790  -24.6220   29.6190 C.ar  424  TRP424      0.0001
    141  CH2      -56.9290  -24.7620   28.2390 C.ar  424  TRP424      0.0015
    142  N        -56.8190  -29.4450   19.7230 N.3   431  GLU431     -0.1231
    143  CA       -55.9270  -30.1730   20.6570 C.3   431  GLU431      0.1699
    144  C        -54.4820  -30.2920   20.2040 C.2   431  GLU431      0.2592
    145  O        -53.8390  -31.3360   20.3580 O.2   431  GLU431     -0.2718
    146  CB       -56.5220  -31.5060   21.0440 C.3   431  GLU431      0.0402
    147  CG       -57.6080  -31.2990   22.1520 C.3   431  GLU431      0.1161
    148  CD       -57.0930  -30.7290   23.5140 C.2   431  GLU431      0.3649
    149  OE1      -55.8930  -30.8870   23.8740 O.co2 431  GLU431     -0.2457
    150  OE2      -57.9310  -30.1270   24.2300 O.co2 431  GLU431     -0.2457
    151  N        -54.0070  -29.1800   19.6290 N.am  432  TRP432     -0.1976
    152  CA       -52.6260  -29.0170   19.3020 C.3   432  TRP432      0.1640
    153  C        -52.1610  -30.0150   18.2050 C.2   432  TRP432      0.2290
    154  O        -52.7240  -30.0120   17.0990 O.2   432  TRP432     -0.2864
    155  CB       -51.7810  -29.0410   20.5770 C.3   432  TRP432      0.0576
    156  CG       -52.1250  -27.9850   21.6070 C.ar  432  TRP432      0.0006
    157  CD1      -52.5430  -28.2080   22.9200 C.ar  432  TRP432      0.0946
    158  CD2      -52.0530  -26.5370   21.4710 C.ar  432  TRP432      0.0152
    159  NE1      -52.7250  -27.0150   23.5680 N.ar  432  TRP432     -0.2442
    160  CE2      -52.4210  -25.9770   22.7200 C.ar  432  TRP432      0.0810
    161  CE3      -51.7330  -25.6730   20.4250 C.ar  432  TRP432      0.0012
    162  CZ2      -52.4710  -24.5740   22.9330 C.ar  432  TRP432      0.0191
    163  CZ3      -51.7740  -24.2940   20.6450 C.ar  432  TRP432      0.0001
    164  CH2      -52.1420  -23.7580   21.8660 C.ar  432  TRP432      0.0015
    165  N        -61.7950  -32.9800   25.7010 N.3   440  TYR440     -0.1241
    166  CA       -61.5270  -32.8700   27.1610 C.3   440  TYR440      0.1605
    167  C        -62.6430  -32.1210   27.8390 C.2   440  TYR440      0.2264
    168  O        -62.5970  -31.9300   29.0330 O.2   440  TYR440     -0.2867
    169  CB       -60.2190  -32.1030   27.4910 C.3   440  TYR440      0.0534
    170  CG       -58.8910  -32.7570   27.0790 C.ar  440  TYR440     -0.0201
    171  CD1      -58.4990  -32.7980   25.7200 C.ar  440  TYR440     -0.0009
    172  CD2      -58.0350  -33.3270   28.0350 C.ar  440  TYR440     -0.0009
    173  CE1      -57.2780  -33.3660   25.3170 C.ar  440  TYR440      0.0417
    174  CE2      -56.8110  -33.9230   27.6590 C.ar  440  TYR440      0.0417
    175  CZ       -56.4260  -33.9280   26.2980 C.ar  440  TYR440      0.1957
    176  OH       -55.1980  -34.4930   25.9000 O.3   440  TYR440     -0.2866
@<TRIPOS>BOND
     1   154   153    2
     2    69    68    2
     3   153   152    1
     4    68    67    1
     5    66    67    1
     6    67    70    1
     7   152   151    1
     8   152   155    1
     9   151   144   am
    10   142   143    1
    11     4     3    2
    12   144   145    2
    13   144   143    1
    14    70    71    1
    15   161   163   ar
    16   161   158   ar
    17    61    60    2
    18    72    71   ar
    19    72    74   ar
    20   155   156    1
    21   163   164   ar
    22   143   146    1
    23     3     2    1
    24     2     1    1
    25     2     5    1
    26   146   147    1
    27    71    73   ar
    28    74    76   ar
    29    23    22    2
    30   158   156   ar
    31   158   160   ar
    32   156   157   ar
    33    60    59    1
    34   164   162   ar
    35    22    21    1
    36     5     6    1
    37   147   148    1
    38    73    75   ar
    39    76    75   ar
    40     6     7    1
    41   160   162   ar
    42   160   159   ar
    43    59    62    1
    44    59    58    1
    45   157   159   ar
    46    62    63    1
    47    24    21    1
    48    24    25    1
    49    21    20    1
    50   148   149   ar
    51   148   150   ar
    52    30    32   ar
    53    30    27   ar
    54     7     8    2
    55     7     9   am
    56    13    12    2
    57    63    64    2
    58    63    65   am
    59    32    33   ar
    60    25    27   ar
    61    25    26   ar
    62    20    12   am
    63    27    29   ar
    64    12    11    1
    65    54    53    2
    66   173   171   ar
    67   173   175   ar
    68    26    28   ar
    69    33    31   ar
    70   165   166    1
    71   171   170   ar
    72    29    31   ar
    73    29    28   ar
    74   176   175    1
    75    17    15   ar
    76    17    19   ar
    77    11    10    1
    78    11    14    1
    79    53    52    1
    80    57    55    1
    81   175   174   ar
    82    14    15    1
    83    15    16   ar
    84    19    18   ar
    85   105   106    1
    86   170   169    1
    87   170   172   ar
    88   109   106    1
    89   109   110    1
    90   166   169    1
    91   166   167    1
    92    52    55    1
    93    52    51    1
    94    55    56    1
    95   139   141   ar
    96   139   137   ar
    97   174   172   ar
    98    16    18   ar
    99   106   107    1
   100   167   168    2
   101   110   111   ar
   102   110   112   ar
   103   136   137   ar
   104   136   134   ar
   105   111   113   ar
   106   141   140   ar
   107   137   135   ar
   108   112   115   ar
   109   112   114   ar
   110    45    44    2
   111    41    39   am
   112   113   114   ar
   113   115   117   ar
   114   107   108    2
   115    37    36    2
   116   134   133   ar
   117    49    48   ar
   118   114   116   ar
   119   140   138   ar
   120   135   133   ar
   121   135   138   ar
   122   117   118   ar
   123    44    43    1
   124    46    43    1
   125    46    47    1
   126    39    38    1
   127    39    40    2
   128    48    50   ar
   129    48    47    1
   130   133   132    1
   131    38    35    1
   132    36    35    1
   133    36    42   am
   134   116   118   ar
   135    34    35    1
   136   127   125   ar
   137   130   131    2
   138   130   129    1
   139    43    42    1
   140   126   125   ar
   141   104   103    1
   142   125   124    1
   143   103   101   ar
   144   103   102   ar
   145   101    99   ar
   146   132   129    1
   147   102   100   ar
   148   129   128    1
   149    99    98   ar
   150    84    82   am
   151    98   100   ar
   152    98    97    1
   153    92    91    1
   154    82    83    2
   155    82    81    1
   156    97    94    1
   157   124   123    1
   158    81    78    1
   159   123   120    1
   160    91    90    1
   161    94    95    1
   162    94    93    1
   163    90    89    1
   164    95    96    2
   165   120   121    1
   166   120   119    1
   167    78    77    1
   168    78    79    1
   169    89    86    1
   170    86    85    1
   171    86    87    1
   172   121   122    2
   173    88    87    2
   174    79    80    2
