@<TRIPOS>MOLECULE
tmp/3zj8B00.pdb
 186 185 0 0 0
SMALL
GASTEIGER

@<TRIPOS>ATOM
      1  N        -56.6440  -22.2210   20.4100 N.3    20  GLN20      -0.1245
      2  CA       -57.4180  -23.4420   20.4310 C.3    20  GLN20       0.1566
      3  C        -58.9100  -23.2170   20.3560 C.2    20  GLN20       0.2260
      4  O        -59.6660  -24.1730   20.2640 O.2    20  GLN20      -0.2867
      5  CB       -57.1820  -24.1780   21.7490 C.3    20  GLN20       0.0367
      6  CG       -55.8530  -24.8910   21.9370 C.3    20  GLN20       0.0905
      7  CD       -55.7940  -25.5050   23.3150 C.2    20  GLN20       0.2608
      8  OE1      -55.6390  -24.7980   24.3090 O.2    20  GLN20      -0.2717
      9  NE2      -55.9370  -26.8150   23.3900 N.am   20  GLN20      -0.0878
     10  N        -49.9040  -18.3290   25.6900 N.3   124  HIS124     -0.1226
     11  CA       -50.2610  -19.7270   25.5900 C.3   124  HIS124      0.1752
     12  C        -49.7580  -20.2920   24.2570 C.2   124  HIS124      0.2596
     13  O        -50.5590  -20.8340   23.4520 O.2   124  HIS124     -0.2718
     14  CB       -51.7680  -19.8760   25.7070 C.3   124  HIS124      0.0759
     15  CG       -52.2180  -21.1620   26.3380 C.ar  124  HIS124      0.0818
     16  ND1      -51.9730  -22.4010   25.7790 N.ar  124  HIS124     -0.2268
     17  CD2      -52.9380  -21.3950   27.4640 C.ar  124  HIS124      0.1154
     18  CE1      -52.5040  -23.3420   26.5400 C.ar  124  HIS124      0.1986
     19  NE2      -53.1010  -22.7540   27.5640 N.ar  124  HIS124     -0.2212
     20  N        -48.4400  -20.1540   24.0400 N.am  125  TRP125     -0.1976
     21  CA       -47.7000  -20.7330   22.8890 C.3   125  TRP125      0.1640
     22  C        -47.9820  -20.0650   21.5210 C.2   125  TRP125      0.2290
     23  O        -47.3290  -20.4190   20.5160 O.2   125  TRP125     -0.2864
     24  CB       -47.8730  -22.2670   22.7450 C.3   125  TRP125      0.0576
     25  CG       -47.9150  -23.0480   23.9680 C.ar  125  TRP125      0.0006
     26  CD1      -47.4570  -22.6810   25.1870 C.ar  125  TRP125      0.0946
     27  CD2      -48.4090  -24.3710   24.1040 C.ar  125  TRP125      0.0152
     28  NE1      -47.6410  -23.6910   26.1050 N.ar  125  TRP125     -0.2442
     29  CE2      -48.2280  -24.7490   25.4660 C.ar  125  TRP125      0.0810
     30  CE3      -48.9910  -25.2860   23.2160 C.ar  125  TRP125      0.0012
     31  CZ2      -48.6250  -26.0170   25.9710 C.ar  125  TRP125      0.0191
     32  CZ3      -49.3930  -26.5360   23.7080 C.ar  125  TRP125      0.0001
     33  CH2      -49.1970  -26.8940   25.0840 C.ar  125  TRP125      0.0015
     34  N        -48.0730  -20.3160   30.1790 N.3   169  ASN169     -0.1225
     35  CA       -48.7150  -21.5940   30.3800 C.3   169  ASN169      0.1785
     36  C        -47.8130  -22.7830   29.9180 C.2   169  ASN169      0.2597
     37  O        -47.4300  -22.9210   28.7300 O.2   169  ASN169     -0.2718
     38  CB       -50.1020  -21.5830   29.7140 C.3   169  ASN169      0.1169
     39  CG       -50.7430  -22.9220   29.7380 C.2   169  ASN169      0.2627
     40  OD1      -51.4790  -23.2250   30.6590 O.2   169  ASN169     -0.2716
     41  ND2      -50.4380  -23.7650   28.7390 N.am  169  ASN169     -0.0877
     42  N        -47.4500  -23.6320   30.8600 N.am  170  GLU170     -0.1979
     43  CA       -46.6600  -24.7930   30.5110 C.3   170  GLU170      0.1602
     44  C        -45.4430  -24.4180   29.6770 C.2   170  GLU170      0.2287
     45  O        -45.2540  -24.9630   28.6100 O.2   170  GLU170     -0.2864
     46  CB       -47.5110  -25.7580   29.6850 C.3   170  GLU170      0.0415
     47  CG       -48.7180  -26.2940   30.3800 C.3   170  GLU170      0.1163
     48  CD       -49.2360  -27.5860   29.7540 C.2   170  GLU170      0.3649
     49  OE1      -48.7630  -27.9940   28.6630 O.co2 170  GLU170     -0.2457
     50  OE2      -50.1330  -28.2050   30.3700 O.co2 170  GLU170     -0.2457
     51  N        -42.7340  -25.5840   30.1810 N.3   172  HIS172     -0.1226
     52  CA       -42.1280  -26.8980   29.9280 C.3   172  HIS172      0.1752
     53  C        -42.5680  -27.5010   28.5600 C.2   172  HIS172      0.2596
     54  O        -41.7430  -27.8910   27.7280 O.2   172  HIS172     -0.2718
     55  CB       -42.4080  -27.8920   31.0480 C.3   172  HIS172      0.0759
     56  CG       -41.8220  -29.2420   30.7810 C.ar  172  HIS172      0.0818
     57  ND1      -42.5480  -30.2700   30.2250 N.ar  172  HIS172     -0.2268
     58  CD2      -40.5640  -29.7100   30.9270 C.ar  172  HIS172      0.1154
     59  CE1      -41.7670  -31.3230   30.0670 C.ar  172  HIS172      0.1986
     60  NE2      -40.5590  -31.0100   30.4880 N.ar  172  HIS172     -0.2212
     61  N        -43.8770  -27.5640   28.3360 N.am  173  THR173     -0.1953
     62  CA       -44.4130  -28.1720   27.1200 C.3   173  THR173      0.1897
     63  C        -44.0330  -27.3850   25.8450 C.2   173  THR173      0.2313
     64  O        -43.4990  -27.9680   24.8870 O.2   173  THR173     -0.2863
     65  CB       -45.9130  -28.3740   27.2430 C.3   173  THR173      0.1794
     66  OG1      -46.1730  -29.1380   28.4280 O.3   173  THR173     -0.2208
     67  CG2      -46.4580  -29.0790   25.9760 C.3   173  THR173      0.0378
     68  N        -41.6560  -29.6170   23.5680 N.3   177  ASN177     -0.1240
     69  CA       -42.2430  -30.1020   22.3260 C.3   177  ASN177      0.1653
     70  C        -41.7610  -29.2860   21.1400 C.2   177  ASN177      0.2266
     71  O        -41.7050  -29.7900   20.0010 O.2   177  ASN177     -0.2867
     72  CB       -43.7700  -30.1360   22.4010 C.3   177  ASN177      0.1155
     73  CG       -44.2930  -31.2440   23.3240 C.2   177  ASN177      0.2627
     74  OD1      -43.5160  -32.0180   23.9000 O.2   177  ASN177     -0.2716
     75  ND2      -45.6170  -31.3310   23.4520 N.am  177  ASN177     -0.0877
     76  N        -44.4300  -29.4560   18.1950 N.3   184  PHE184     -0.1241
     77  CA       -45.3280  -28.3410   18.3620 C.3   184  PHE184      0.1605
     78  C        -44.5530  -27.2670   17.7190 C.2   184  PHE184      0.2264
     79  O        -43.3730  -27.4780   17.4560 O.2   184  PHE184     -0.2867
     80  CB       -45.4320  -28.0130   19.8540 C.3   184  PHE184      0.0534
     81  CG       -46.4670  -28.8330   20.5910 C.ar  184  PHE184     -0.0203
     82  CD1      -47.1150  -29.8950   19.9750 C.ar  184  PHE184     -0.0042
     83  CD2      -46.7840  -28.5440   21.8950 C.ar  184  PHE184     -0.0042
     84  CE1      -48.0510  -30.6310   20.6470 C.ar  184  PHE184     -0.0003
     85  CE2      -47.7100  -29.2920   22.5620 C.ar  184  PHE184     -0.0003
     86  CZ       -48.3430  -30.3350   21.9330 C.ar  184  PHE184     -0.0000
     87  N        -46.5390  -27.4780   34.7190 N.3   236  ASN236     -0.1240
     88  CA       -47.2030  -28.7100   34.3650 C.3   236  ASN236      0.1653
     89  C        -46.2690  -29.7820   34.7770 C.2   236  ASN236      0.2266
     90  O        -45.0580  -29.5900   34.6870 O.2   236  ASN236     -0.2867
     91  CB       -47.5280  -28.8030   32.8340 C.3   236  ASN236      0.1155
     92  CG       -46.2870  -28.9890   31.9450 C.2   236  ASN236      0.2627
     93  OD1      -45.6490  -28.0200   31.5490 O.2   236  ASN236     -0.2716
     94  ND2      -45.9620  -30.2240   31.6240 N.am  236  ASN236     -0.0877
     95  N        -38.4220  -31.4880   35.0700 N.3   260  MET260     -0.1245
     96  CA       -39.6840  -31.0870   34.4520 C.3   260  MET260      0.1570
     97  C        -40.3580  -29.9170   35.1830 C.2   260  MET260      0.2261
     98  O        -40.9050  -28.9950   34.5780 O.2   260  MET260     -0.2867
     99  CB       -40.5970  -32.3090   34.3810 C.3   260  MET260      0.0387
    100  CG       -42.0490  -32.0030   34.1390 C.3   260  MET260      0.0595
    101  SD       -42.9530  -33.5340   33.8720 S.3   260  MET260     -0.1393
    102  CE       -42.8780  -33.7660   32.0680 C.3   260  MET260      0.0692
    103  N        -52.1770  -34.1930   34.6820 N.3   308  TYR308     -0.1241
    104  CA       -52.9920  -35.1360   33.9320 C.3   308  TYR308      0.1605
    105  C        -52.7830  -36.5790   34.2970 C.2   308  TYR308      0.2264
    106  O        -53.7080  -37.3750   34.1690 O.2   308  TYR308     -0.2867
    107  CB       -52.8680  -34.9440   32.4060 C.3   308  TYR308      0.0534
    108  CG       -53.5110  -33.6730   31.9490 C.ar  308  TYR308     -0.0201
    109  CD1      -54.8620  -33.6070   31.7160 C.ar  308  TYR308     -0.0009
    110  CD2      -52.7610  -32.5240   31.7990 C.ar  308  TYR308     -0.0009
    111  CE1      -55.4550  -32.4290   31.3330 C.ar  308  TYR308      0.0417
    112  CE2      -53.3320  -31.3410   31.4040 C.ar  308  TYR308      0.0417
    113  CZ       -54.6750  -31.3020   31.1750 C.ar  308  TYR308      0.1957
    114  OH       -55.2270  -30.1110   30.8010 O.3   308  TYR308     -0.2866
    115  N        -51.4930  -42.6470   26.5990 N.3   346  TRP346     -0.1241
    116  CA       -50.6580  -41.8380   27.4820 C.3   346  TRP346      0.1605
    117  C        -51.3400  -41.4520   28.8000 C.2   346  TRP346      0.2264
    118  O        -50.8360  -41.7960   29.8590 O.2   346  TRP346     -0.2867
    119  CB       -50.1130  -40.6020   26.7450 C.3   346  TRP346      0.0550
    120  CG       -49.2760  -39.7350   27.6230 C.ar  346  TRP346      0.0003
    121  CD1      -47.9640  -39.9280   27.9680 C.ar  346  TRP346      0.0946
    122  CD2      -49.7020  -38.5600   28.3120 C.ar  346  TRP346      0.0152
    123  NE1      -47.5460  -38.9340   28.8270 N.ar  346  TRP346     -0.2442
    124  CE2      -48.5970  -38.0770   29.0440 C.ar  346  TRP346      0.0810
    125  CE3      -50.9110  -37.8500   28.3640 C.ar  346  TRP346      0.0012
    126  CZ2      -48.6680  -36.9100   29.8220 C.ar  346  TRP346      0.0191
    127  CZ3      -50.9830  -36.6950   29.1480 C.ar  346  TRP346      0.0001
    128  CH2      -49.8690  -36.2420   29.8690 C.ar  346  TRP346      0.0015
    129  N        -55.3870  -26.6380   35.6250 N.3   374  GLU374     -0.1245
    130  CA       -55.8230  -27.4880   34.5440 C.3   374  GLU374      0.1567
    131  C        -55.9000  -28.9290   35.0380 C.2   374  GLU374      0.2260
    132  O        -54.8660  -29.5230   35.4140 O.2   374  GLU374     -0.2867
    133  CB       -54.8450  -27.3670   33.3910 C.3   374  GLU374      0.0388
    134  CG       -55.4680  -27.3420   32.0530 C.3   374  GLU374      0.1160
    135  CD       -54.5440  -26.8270   30.9800 C.2   374  GLU374      0.3649
    136  OE1      -53.3280  -27.0130   31.0620 O.co2 374  GLU374     -0.2457
    137  OE2      -55.0130  -26.2140   30.0230 O.co2 374  GLU374     -0.2457
    138  N        -60.2060  -28.5120   32.6440 N.3   423  TRP423     -0.1241
    139  CA       -59.8270  -28.3380   31.2490 C.3   423  TRP423      0.1605
    140  C        -60.4530  -29.4880   30.4870 C.2   423  TRP423      0.2264
    141  O        -60.3750  -30.6330   30.9530 O.2   423  TRP423     -0.2867
    142  CB       -58.3100  -28.3970   31.0460 C.3   423  TRP423      0.0550
    143  CG       -57.9090  -28.1010   29.6050 C.ar  423  TRP423      0.0003
    144  CD1      -57.7150  -29.0130   28.5730 C.ar  423  TRP423      0.0946
    145  CD2      -57.7140  -26.8140   29.0310 C.ar  423  TRP423      0.0152
    146  NE1      -57.3860  -28.3650   27.4080 N.ar  423  TRP423     -0.2442
    147  CE2      -57.3690  -27.0150   27.6570 C.ar  423  TRP423      0.0810
    148  CE3      -57.7840  -25.4940   29.5410 C.ar  423  TRP423      0.0012
    149  CZ2      -57.0930  -25.9410   26.7910 C.ar  423  TRP423      0.0191
    150  CZ3      -57.5130  -24.4410   28.6950 C.ar  423  TRP423      0.0001
    151  CH2      -57.1690  -24.6680   27.3220 C.ar  423  TRP423      0.0015
    152  N        -56.7370  -29.4650   19.6940 N.3   430  GLU430     -0.1231
    153  CA       -55.7540  -30.1890   20.5190 C.3   430  GLU430      0.1699
    154  C        -54.3320  -30.3420   19.9020 C.2   430  GLU430      0.2592
    155  O        -53.7970  -31.4570   19.7130 O.2   430  GLU430     -0.2718
    156  CB       -56.3430  -31.5420   20.9220 C.3   430  GLU430      0.0402
    157  CG       -55.6600  -32.1590   22.1430 C.3   430  GLU430      0.1161
    158  CD       -55.1430  -31.1220   23.1430 C.2   430  GLU430      0.3649
    159  OE1      -55.9200  -30.2320   23.5600 O.co2 430  GLU430     -0.2457
    160  OE2      -53.9610  -31.2190   23.5290 O.co2 430  GLU430     -0.2457
    161  N        -53.7590  -29.1810   19.5860 N.am  431  TRP431     -0.1976
    162  CA       -52.4310  -29.0130   19.0110 C.3   431  TRP431      0.1640
    163  C        -52.0370  -30.0330   17.9080 C.2   431  TRP431      0.2290
    164  O        -52.7030  -30.0820   16.8530 O.2   431  TRP431     -0.2864
    165  CB       -51.4300  -28.8910   20.1410 C.3   431  TRP431      0.0576
    166  CG       -51.8640  -27.9430   21.2580 C.ar  431  TRP431      0.0006
    167  CD1      -52.2740  -28.2860   22.5340 C.ar  431  TRP431      0.0946
    168  CD2      -51.9220  -26.5070   21.2040 C.ar  431  TRP431      0.0152
    169  NE1      -52.5710  -27.1540   23.2700 N.ar  431  TRP431     -0.2442
    170  CE2      -52.3530  -26.0530   22.4830 C.ar  431  TRP431      0.0810
    171  CE3      -51.6400  -25.5570   20.2040 C.ar  431  TRP431      0.0012
    172  CZ2      -52.5090  -24.7010   22.7770 C.ar  431  TRP431      0.0191
    173  CZ3      -51.8030  -24.2150   20.4990 C.ar  431  TRP431      0.0001
    174  CH2      -52.2450  -23.8000   21.7720 C.ar  431  TRP431      0.0015
    175  N        -61.5850  -32.8200   25.2610 N.3   439  TYR439     -0.1241
    176  CA       -61.3650  -32.7310   26.7000 C.3   439  TYR439      0.1605
    177  C        -62.5250  -32.1560   27.4780 C.2   439  TYR439      0.2264
    178  O        -62.5960  -32.3150   28.6840 O.2   439  TYR439     -0.2867
    179  CB       -60.1560  -31.8800   27.0240 C.3   439  TYR439      0.0534
    180  CG       -58.8140  -32.5610   26.9330 C.ar  439  TYR439     -0.0201
    181  CD1      -58.1920  -32.7250   25.7090 C.ar  439  TYR439     -0.0009
    182  CD2      -58.1460  -32.9840   28.0790 C.ar  439  TYR439     -0.0009
    183  CE1      -56.9610  -33.3280   25.6150 C.ar  439  TYR439      0.0417
    184  CE2      -56.9050  -33.5790   28.0070 C.ar  439  TYR439      0.0417
    185  CZ       -56.3040  -33.7560   26.7680 C.ar  439  TYR439      0.1957
    186  OH       -55.0480  -34.3530   26.6570 O.3   439  TYR439     -0.2866
@<TRIPOS>BOND
     1   164   163    2
     2    79    78    2
     3    78    77    1
     4   163   162    1
     5    76    77    1
     6    77    80    1
     7   162   161    1
     8   162   165    1
     9   161   154   am
    10   152   153    1
    11   155   154    2
    12    80    81    1
    13   154   153    1
    14    82    81   ar
    15    82    84   ar
    16    71    70    2
    17   165   166    1
    18   171   173   ar
    19   171   168   ar
    20     4     3    2
    21     3     2    1
    22     1     2    1
    23     2     5    1
    24   173   174   ar
    25    23    22    2
    26   153   156    1
    27    81    83   ar
    28    84    86   ar
    29   156   157    1
    30    70    69    1
    31   168   166   ar
    32   168   170   ar
    33   166   167   ar
    34    22    21    1
    35     5     6    1
    36   174   172   ar
    37    83    85   ar
    38    86    85   ar
    39     6     7    1
    40   157   158    1
    41    69    72    1
    42    69    68    1
    43    72    73    1
    44   170   172   ar
    45   170   169   ar
    46   167   169   ar
    47    24    21    1
    48    24    25    1
    49    21    20    1
    50   158   160   ar
    51   158   159   ar
    52    30    32   ar
    53    30    27   ar
    54     7     9   am
    55     7     8    2
    56    73    75   am
    57    73    74    2
    58    13    12    2
    59    32    33   ar
    60    25    27   ar
    61    25    26   ar
    62    20    12   am
    63    27    29   ar
    64    12    11    1
    65    64    63    2
    66    33    31   ar
    67    26    28   ar
    68   175   176    1
    69    29    31   ar
    70    29    28   ar
    71    11    10    1
    72    11    14    1
    73   183   181   ar
    74   183   185   ar
    75    14    15    1
    76   181   180   ar
    77    16    15   ar
    78    16    18   ar
    79    63    62    1
    80    67    65    1
    81    15    17   ar
    82    18    19   ar
    83   115   116    1
    84   186   185    1
    85   176   179    1
    86   176   177    1
    87   119   116    1
    88   119   120    1
    89   185   184   ar
    90   149   151   ar
    91   149   147   ar
    92   180   179    1
    93   180   182   ar
    94    62    65    1
    95    62    61    1
    96    65    66    1
    97   151   150   ar
    98   146   147   ar
    99   146   144   ar
   100    17    19   ar
   101   177   178    2
   102   116   117    1
   103   120   121   ar
   104   120   122   ar
   105   147   145   ar
   106    54    53    2
   107   121   123   ar
   108   184   182   ar
   109   122   125   ar
   110   122   124   ar
   111    61    53   am
   112   125   127   ar
   113    53    52    1
   114   144   143   ar
   115    45    44    2
   116    49    48   ar
   117   150   148   ar
   118    37    36    2
   119    41    39   am
   120   117   118    2
   121   123   124   ar
   122   145   148   ar
   123   145   143   ar
   124   124   126   ar
   125   127   128   ar
   126   143   142    1
   127    44    43    1
   128    46    47    1
   129    46    43    1
   130    38    39    1
   131    38    35    1
   132    39    40    2
   133    48    50   ar
   134    48    47    1
   135   126   128   ar
   136    36    35    1
   137    36    42   am
   138    52    51    1
   139    52    55    1
   140   137   135   ar
   141    59    57   ar
   142    59    60   ar
   143    34    35    1
   144    57    56   ar
   145   140   141    2
   146   140   139    1
   147    60    58   ar
   148    43    42    1
   149    56    58   ar
   150    56    55    1
   151   114   113    1
   152   135   136   ar
   153   135   134    1
   154   142   139    1
   155   113   111   ar
   156   113   112   ar
   157   139   138    1
   158   111   109   ar
   159   112   110   ar
   160    93    92    2
   161    94    92   am
   162   109   108   ar
   163   110   108   ar
   164    92    91    1
   165   108   107    1
   166   134   133    1
   167   102   101    1
   168   107   104    1
   169    91    88    1
   170   133   130    1
   171   101   100    1
   172   104   105    1
   173   104   103    1
   174   100    99    1
   175   106   105    2
   176    88    87    1
   177    88    89    1
   178    99    96    1
   179    96    95    1
   180    96    97    1
   181   130   131    1
   182   130   129    1
   183    98    97    2
   184    90    89    2
   185   131   132    2
