@<TRIPOS>MOLECULE
tmp/3zjcE00.pdb
 166 158 0 0 0
SMALL
GASTEIGER

@<TRIPOS>ATOM
      1  N         15.0360   -1.6060   40.4820 N.3    11  THR11      -0.1203
      2  CA        16.2020   -1.6350   39.6170 C.3    11  THR11       0.1994
      3  C         16.0640   -2.7030   38.5350 C.2    11  THR11       0.2618
      4  O         15.7210   -3.8500   38.8170 O.2    11  THR11      -0.2717
      5  CB        17.4950   -1.8550   40.4390 C.3    11  THR11       0.1784
      6  OG1       18.6160   -1.9710   39.5540 O.3    11  THR11      -0.2211
      7  CG2       17.3990   -3.1070   41.2960 C.3    11  THR11       0.0376
      8  N         16.2870   -2.3030   37.2860 N.am   12  GLY12      -0.1942
      9  CA        16.2520   -3.2330   36.1700 C.3    12  GLY12       0.2014
     10  C         14.9540   -3.2160   35.3890 C.2    12  GLY12       0.2640
     11  O         14.7550   -4.0360   34.4920 O.2    12  GLY12      -0.2714
     12  N         14.0700   -2.2830   35.7280 N.am   13  SER13      -0.1935
     13  CA        12.7320   -2.2440   35.1440 C.3    13  SER13       0.2055
     14  C         12.6900   -1.5610   33.7750 C.2    13  SER13       0.2644
     15  O         11.6920   -1.6450   33.0630 O.2    13  SER13      -0.2714
     16  CB        11.7470   -1.5730   36.1060 C.3    13  SER13       0.2130
     17  OG        12.0710   -0.2080   36.2840 O.3    13  SER13      -0.2179
     18  N         13.7800   -0.8990   33.4040 N.am   14  GLY14      -0.1939
     19  CA        13.8360   -0.1770   32.1450 C.3    14  GLY14       0.2014
     20  C         13.5860    1.3170   32.2670 C.2    14  GLY14       0.2639
     21  O         13.1810    1.9620   31.3000 O.2    14  GLY14      -0.2714
     22  N         13.8310    1.8640   33.4560 N.am   15  LYS15      -0.1963
     23  CA        13.6710    3.2940   33.7140 C.3    15  LYS15       0.1728
     24  C         14.5170    4.1620   32.7890 C.2    15  LYS15       0.2617
     25  O         14.0070    5.0870   32.1610 O.2    15  LYS15      -0.2715
     26  CB        14.0210    3.6140   35.1680 C.3    15  LYS15       0.0311
     27  CG        13.0130    3.0940   36.1790 C.3    15  LYS15       0.0038
     28  CD        13.4340    3.4290   37.6010 C.3    15  LYS15       0.0206
     29  CE        14.8230    2.9050   37.9160 C.3    15  LYS15       0.1093
     30  NZ        14.9100    1.4240   37.9460 N.3    15  LYS15      -0.1314
     31  N         15.8140    3.8780   32.7340 N.am   16  SER16      -0.1936
     32  CA        16.7400    4.6680   31.9320 C.3    16  SER16       0.2055
     33  C         16.4390    4.5210   30.4500 C.2    16  SER16       0.2642
     34  O         16.4690    5.4970   29.7010 O.2    16  SER16      -0.2714
     35  CB        18.1810    4.2580   32.2210 C.3    16  SER16       0.2130
     36  OG        18.6920    4.9680   33.3350 O.3    16  SER16      -0.2179
     37  N         16.1660    3.2880   30.0340 N.am   17  ALA17      -0.1977
     38  CA        15.7270    3.0050   28.6730 C.3    17  ALA17       0.1597
     39  C         14.4930    3.8280   28.3190 C.2    17  ALA17       0.2287
     40  O         14.4400    4.4690   27.2700 O.2    17  ALA17      -0.2864
     41  CB        15.4390    1.5280   28.5130 C.3    17  ALA17       0.0319
     42  N         21.5970    3.0280   29.7400 N.3    30  SER30      -0.1202
     43  CA        20.7200    1.8800   29.9160 C.3    30  SER30       0.2020
     44  C         21.3950    0.6130   29.4050 C.2    30  SER30       0.2619
     45  O         21.6550    0.4790   28.2110 O.2    30  SER30      -0.2717
     46  CB        19.3810    2.0970   29.2020 C.3    30  SER30       0.2103
     47  OG        19.5670    2.3530   27.8230 O.3    30  SER30      -0.2182
     48  N         21.6880   -0.3080   30.3160 N.am   31  ARG31      -0.1965
     49  CA        22.2590   -1.5970   29.9420 C.3    31  ARG31       0.1729
     50  C         21.9210   -2.6360   31.0040 C.2    31  ARG31       0.2616
     51  O         21.4120   -2.2960   32.0690 O.2    31  ARG31      -0.2715
     52  CB        23.7760   -1.4910   29.8010 C.3    31  ARG31       0.0348
     53  CG        24.5120   -1.5320   31.1290 C.3    31  ARG31       0.0492
     54  CD        25.9460   -1.0630   31.0100 C.3    31  ARG31       0.2205
     55  NE        26.6520   -1.2480   32.2730 N.pl3  31  ARG31      -0.0865
     56  CZ        26.9390   -0.2660   33.1190 C.cat  31  ARG31       0.5346
     57  NH1       26.5720    0.9780   32.8440 N.pl3  31  ARG31       0.1354
     58  NH2       27.5840   -0.5320   34.2460 N.pl3  31  ARG31       0.1354
     59  N         22.2220   -3.9000   30.7280 N.am   32  ILE32      -0.1977
     60  CA        21.8800   -4.9670   31.6590 C.3    32  ILE32       0.1596
     61  C         23.0430   -5.2450   32.6080 C.2    32  ILE32       0.2287
     62  O         24.1990   -5.3090   32.1910 O.2    32  ILE32      -0.2864
     63  CB        21.4480   -6.2530   30.9140 C.3    32  ILE32       0.0276
     64  CG1       21.0580   -7.3500   31.9080 C.3    32  ILE32       0.0022
     65  CG2       22.5370   -6.7200   29.9600 C.3    32  ILE32       0.0022
     66  CD1       20.1720   -8.4190   31.3170 C.3    32  ILE32       0.0001
     67  N         24.3860   -5.1980   38.8900 N.3    35  GLN35      -0.1231
     68  CA        24.3550   -4.0850   39.8220 C.3    35  GLN35       0.1698
     69  C         23.4120   -3.0190   39.2960 C.2    35  GLN35       0.2592
     70  O         22.8850   -3.1380   38.1910 O.2    35  GLN35      -0.2718
     71  CB        25.7500   -3.4910   39.9880 C.3    35  GLN35       0.0381
     72  CG        26.5140   -4.0140   41.1850 C.3    35  GLN35       0.0905
     73  CD        27.4040   -2.9540   41.8040 C.2    35  GLN35       0.2608
     74  OE1       28.3330   -2.4620   41.1630 O.2    35  GLN35      -0.2717
     75  NE2       27.1180   -2.5880   43.0490 N.am   35  GLN35      -0.0878
     76  N         23.1920   -1.9790   40.0870 N.am   36  ALA36      -0.1966
     77  CA        22.4290   -0.8380   39.6120 C.3    36  ALA36       0.1728
     78  C         23.3360   -0.0630   38.6740 C.2    36  ALA36       0.2616
     79  O         24.4400    0.3190   39.0510 O.2    36  ALA36      -0.2715
     80  CB        21.9700    0.0330   40.7690 C.3    36  ALA36       0.0334
     81  N         22.8810    0.1660   37.4520 N.am   37  VAL37      -0.1963
     82  CA        23.6750    0.9360   36.5080 C.3    37  VAL37       0.1727
     83  C         23.5420    2.4240   36.8230 C.2    37  VAL37       0.2616
     84  O         24.4560    3.2090   36.5770 O.2    37  VAL37      -0.2715
     85  CB        23.2780    0.6150   35.0390 C.3    37  VAL37       0.0290
     86  CG1       22.2690   -0.5240   34.9990 C.3    37  VAL37       0.0023
     87  CG2       22.7380    1.8430   34.3230 C.3    37  VAL37       0.0023
     88  N         22.4100    2.7930   37.4080 N.am   38  THR38      -0.1951
     89  CA        22.1580    4.1660   37.8050 C.3    38  THR38       0.1897
     90  C         22.1450    4.2250   39.3230 C.2    38  THR38       0.2313
     91  O         21.2340    3.7020   39.9680 O.2    38  THR38      -0.2863
     92  CB        20.8050    4.6820   37.2540 C.3    38  THR38       0.1794
     93  OG1       20.8710    4.8160   35.8280 O.3    38  THR38      -0.2208
     94  CG2       20.4630    6.0250   37.8620 C.3    38  THR38       0.0378
     95  N         15.6850    7.9470   37.8780 N.3    58  THR58      -0.1218
     96  CA        16.0200    7.6200   39.2610 C.3    58  THR58       0.1862
     97  C         16.7190    6.2650   39.3550 C.2    58  THR58       0.2287
     98  O         16.5570    5.4260   38.4710 O.2    58  THR58      -0.2866
     99  CB        14.7590    7.5880   40.1510 C.3    58  THR58       0.1770
    100  OG1       13.8430    6.5970   39.6690 O.3    58  THR58      -0.2211
    101  CG2       14.0860    8.9520   40.1630 C.3    58  THR58       0.0375
    102  N         17.2190    2.5270   41.1610 N.3    60  GLY60      -0.1225
    103  CA        16.2940    1.5700   41.7450 C.3    60  GLY60       0.1811
    104  C         16.1360    1.8160   43.2320 C.2    60  GLY60       0.2280
    105  O         17.1260    1.9110   43.9530 O.2    60  GLY60      -0.2866
    106  N          7.1160   -2.0090   30.4210 N.3   126  THR126     -0.1203
    107  CA         8.1570   -2.1290   29.4120 C.3   126  THR126      0.1994
    108  C          8.1000   -3.5180   28.8000 C.2   126  THR126      0.2617
    109  O          7.2910   -4.3430   29.2170 O.2   126  THR126     -0.2717
    110  CB         9.5530   -1.8780   30.0010 C.3   126  THR126      0.1784
    111  OG1        9.8630   -2.8900   30.9650 O.3   126  THR126     -0.2211
    112  CG2        9.6180   -0.4970   30.6530 C.3   126  THR126      0.0376
    113  N          8.9650   -3.7730   27.8220 N.am  127  ARG127     -0.1979
    114  CA         8.9780   -5.0430   27.1000 C.3   127  ARG127      0.1597
    115  C          7.6440   -5.3030   26.4050 C.2   127  ARG127      0.2287
    116  O          7.1560   -6.4310   26.3870 O.2   127  ARG127     -0.2864
    117  CB         9.3390   -6.2070   28.0300 C.3   127  ARG127      0.0334
    118  CG        10.6010   -5.9730   28.8490 C.3   127  ARG127      0.0492
    119  CD        11.1470   -7.2700   29.4210 C.3   127  ARG127      0.2205
    120  NE        12.3700   -7.0490   30.1880 N.pl3 127  ARG127     -0.0865
    121  CZ        13.5890   -7.3470   29.7510 C.cat 127  ARG127      0.5346
    122  NH1       13.7530   -7.8820   28.5480 N.pl3 127  ARG127      0.1354
    123  NH2       14.6450   -7.1130   30.5180 N.pl3 127  ARG127      0.1354
    124  N          7.0650   -5.4990   23.3970 N.3   129  GLU129     -0.1231
    125  CA         7.2470   -6.3870   22.2550 C.3   129  GLU129      0.1699
    126  C          7.2150   -7.8680   22.6290 C.2   129  GLU129      0.2592
    127  O          7.3100   -8.7250   21.7560 O.2   129  GLU129     -0.2718
    128  CB         8.5510   -6.0690   21.5230 C.3   129  GLU129      0.0402
    129  CG         9.7910   -6.4520   22.2840 C.3   129  GLU129      0.1161
    130  CD        10.2270   -5.3730   23.2410 C.2   129  GLU129      0.3649
    131  OE1        9.5680   -4.3140   23.2900 O.co2 129  GLU129     -0.2457
    132  OE2       11.2310   -5.5850   23.9450 O.co2 129  GLU129     -0.2457
    133  N          7.1050   -8.1700   23.9190 N.am  130  GLU130     -0.1979
    134  CA         7.1720   -9.5560   24.3690 C.3   130  GLU130      0.1602
    135  C          5.8630  -10.3120   24.1580 C.2   130  GLU130      0.2287
    136  O          5.8600  -11.5430   24.0720 O.2   130  GLU130     -0.2864
    137  CB         7.5480   -9.6390   25.8530 C.3   130  GLU130      0.0415
    138  CG         9.0010   -9.3360   26.1600 C.3   130  GLU130      0.1163
    139  CD         9.7990  -10.5950   26.4460 C.2   130  GLU130      0.3649
    140  OE1        9.4890  -11.6300   25.8150 O.co2 130  GLU130     -0.2457
    141  OE2       10.7230  -10.5460   27.2900 O.co2 130  GLU130     -0.2457
    142  N          5.6320    0.5830   26.6320 N.3   161  PHE161     -0.1241
    143  CA         6.7570    1.0520   25.8460 C.3   161  PHE161      0.1605
    144  C          7.5650   -0.1250   25.3290 C.2   161  PHE161      0.2264
    145  O          7.6890   -1.1510   26.0050 O.2   161  PHE161     -0.2867
    146  CB         7.6690    1.9290   26.7090 C.3   161  PHE161      0.0534
    147  CG         7.3660    3.3980   26.6300 C.ar  161  PHE161     -0.0203
    148  CD1        6.0620    3.8560   26.6140 C.ar  161  PHE161     -0.0042
    149  CD2        8.3960    4.3220   26.5830 C.ar  161  PHE161     -0.0042
    150  CE1        5.7930    5.2110   26.5420 C.ar  161  PHE161     -0.0003
    151  CE2        8.1340    5.6700   26.5120 C.ar  161  PHE161     -0.0003
    152  CZ         6.8320    6.1160   26.4930 C.ar  161  PHE161     -0.0000
    153  N         11.3700   -0.2430   24.4230 N.3   163  ASN163     -0.1225
    154  CA        12.6150    0.5120   24.3770 C.3   163  ASN163      0.1785
    155  C         13.7450   -0.3040   23.7810 C.2   163  ASN163      0.2597
    156  O         14.8760   -0.2480   24.2470 O.2   163  ASN163     -0.2718
    157  CB        13.0240    0.9360   25.7750 C.3   163  ASN163      0.1169
    158  CG        11.8560    1.3730   26.6270 C.2   163  ASN163      0.2627
    159  OD1       11.2970    2.4410   26.4300 O.2   163  ASN163     -0.2716
    160  ND2       11.5010    0.5450   27.6110 N.am  163  ASN163     -0.0877
    161  N         13.4490   -1.0150   22.7080 N.am  164  SER164     -0.1952
    162  CA        14.4210   -1.9270   22.1270 C.3   164  SER164      0.1924
    163  C         15.0120   -1.3380   20.8610 C.2   164  SER164      0.2314
    164  O         14.3790   -0.5210   20.1980 O.2   164  SER164     -0.2863
    165  CB        13.7580   -3.2650   21.8200 C.3   164  SER164      0.2116
    166  OG        14.6970   -4.1960   21.3100 O.3   164  SER164     -0.2180
@<TRIPOS>BOND
     1   164   163    2
     2   163   162    1
     3   166   165    1
     4   128   125    1
     5   128   129    1
     6   127   126    2
     7   165   162    1
     8   162   161    1
     9   125   126    1
    10   125   124    1
    11   129   130    1
    12   126   133   am
    13   161   155   am
    14   130   131   ar
    15   130   132   ar
    16   155   156    2
    17   155   154    1
    18   133   134    1
    19   136   135    2
    20   135   134    1
    21   134   137    1
    22   154   153    1
    23   154   157    1
    24   144   143    1
    25   144   145    2
    26   157   158    1
    27   140   139   ar
    28   143   142    1
    29   143   146    1
    30   137   138    1
    31   138   139    1
    32   116   115    2
    33   115   114    1
    34   159   158    2
    35   139   141   ar
    36   152   151   ar
    37   152   150   ar
    38   151   149   ar
    39   150   148   ar
    40   149   147   ar
    41   148   147   ar
    42   158   160   am
    43   147   146    1
    44   114   113    1
    45   114   117    1
    46    40    39    2
    47   113   108   am
    48    47    46    1
    49   117   118    1
    50    45    44    2
    51    39    38    1
    52    41    38    1
    53   122   121    1
    54    38    37    1
    55   108   109    2
    56   108   107    1
    57   118   119    1
    58    46    43    1
    59    44    43    1
    60    44    48   am
    61   107   110    1
    62   107   106    1
    63   119   120    1
    64    34    33    2
    65    42    43    1
    66   121   120    2
    67   121   123    1
    68    52    49    1
    69    52    53    1
    70    49    48    1
    71    49    50    1
    72    65    63    1
    73   110   112    1
    74   110   111    1
    75    37    33   am
    76    33    32    1
    77    59    50   am
    78    59    60    1
    79    63    60    1
    80    63    64    1
    81    50    51    2
    82    54    53    1
    83    54    55    1
    84    21    20    2
    85    66    64    1
    86    60    61    1
    87    32    35    1
    88    32    31    1
    89    19    20    1
    90    19    18    1
    91    25    24    2
    92    62    61    2
    93    35    36    1
    94    20    22   am
    95    55    56    2
    96    31    24   am
    97    24    23    1
    98    57    56    1
    99    15    14    2
   100    56    58    1
   101    18    14   am
   102    22    23    1
   103    23    26    1
   104    14    13    1
   105    87    85    1
   106    11    10    2
   107    86    85    1
   108    85    82    1
   109    13    12    1
   110    13    16    1
   111    26    27    1
   112    10    12   am
   113    10     9    1
   114    93    92    1
   115    16    17    1
   116     9     8    1
   117    27    28    1
   118    82    83    1
   119    82    81    1
   120    84    83    2
   121    83    88   am
   122    92    89    1
   123    92    94    1
   124     8     3   am
   125    88    89    1
   126    81    78   am
   127    28    29    1
   128    89    90    1
   129    95    96    1
   130    29    30    1
   131    70    69    2
   132    98    97    2
   133     3     4    2
   134     3     2    1
   135    78    79    2
   136    78    77    1
   137    67    68    1
   138    96    97    1
   139    96    99    1
   140    69    68    1
   141    69    76   am
   142    90    91    2
   143     6     5    1
   144    77    76    1
   145    77    80    1
   146     2     5    1
   147     2     1    1
   148   100    99    1
   149    68    71    1
   150    71    72    1
   151    99   101    1
   152     5     7    1
   153   102   103    1
   154    74    73    2
   155    72    73    1
   156   103   104    1
   157    73    75   am
   158   104   105    2
