@<TRIPOS>MOLECULE
tmp/3zjjC01.pdb
 96 94 0 0 0
SMALL
GASTEIGER

@<TRIPOS>ATOM
      1  N         58.4800   -5.5860   36.5900 N.3    29  PHE29      -0.1241
      2  CA        57.1130   -6.0140   36.3310 C.3    29  PHE29       0.1605
      3  C         56.9910   -6.2340   34.8590 C.2    29  PHE29       0.2264
      4  O         57.3370   -5.3290   34.0980 O.2    29  PHE29      -0.2867
      5  CB        56.1240   -4.9260   36.7990 C.3    29  PHE29       0.0534
      6  CG        54.6640   -5.3360   36.7300 C.ar   29  PHE29      -0.0203
      7  CD1       53.9500   -5.2080   35.5480 C.ar   29  PHE29      -0.0042
      8  CD2       53.9970   -5.8240   37.8710 C.ar   29  PHE29      -0.0042
      9  CE1       52.5650   -5.5970   35.4770 C.ar   29  PHE29      -0.0003
     10  CE2       52.6330   -6.1820   37.8110 C.ar   29  PHE29      -0.0003
     11  CZ        51.9260   -6.0650   36.6080 C.ar   29  PHE29      -0.0000
     12  N         51.4070   -9.4880   34.9010 N.3    34  GLU34      -0.1231
     13  CA        50.0460   -9.0930   34.5280 C.3    34  GLU34       0.1699
     14  C         49.1380  -10.3280   34.4870 C.2    34  GLU34       0.2592
     15  O         48.0190  -10.2930   34.9670 O.2    34  GLU34      -0.2718
     16  CB        50.0320   -8.2920   33.2190 C.3    34  GLU34       0.0402
     17  CG        49.3140   -8.9350   32.0280 C.3    34  GLU34       0.1161
     18  CD        48.9460   -7.9170   30.9650 C.2    34  GLU34       0.3649
     19  OE1       49.5850   -6.8420   30.9290 O.co2  34  GLU34      -0.2457
     20  OE2       48.0090   -8.1790   30.1730 O.co2  34  GLU34      -0.2457
     21  N         49.6400  -11.4350   33.9370 N.am   35  GLU35      -0.1979
     22  CA        48.9090  -12.7150   34.0080 C.3    35  GLU35       0.1602
     23  C         48.6870  -13.1370   35.4620 C.2    35  GLU35       0.2287
     24  O         47.5780  -13.4900   35.8370 O.2    35  GLU35      -0.2864
     25  CB        49.6590  -13.8250   33.2540 C.3    35  GLU35       0.0415
     26  CG        49.1230  -15.2500   33.4970 C.3    35  GLU35       0.1163
     27  CD        50.0730  -16.3340   32.9790 C.2    35  GLU35       0.3649
     28  OE1       50.9540  -16.0230   32.1410 O.co2  35  GLU35      -0.2457
     29  OE2       49.9470  -17.5080   33.4030 O.co2  35  GLU35      -0.2457
     30  N         48.9470  -11.3260   38.3690 N.3    37  ILE37      -0.1231
     31  CA        48.1500  -10.3940   39.1600 C.3    37  ILE37       0.1692
     32  C         46.6530  -10.6870   38.9140 C.2    37  ILE37       0.2591
     33  O         45.8500  -10.7540   39.8620 O.2    37  ILE37      -0.2718
     34  CB        48.5720   -8.9010   38.9340 C.3    37  ILE37       0.0266
     35  CG1       48.1530   -8.0600   40.1280 C.3    37  ILE37       0.0019
     36  CG2       48.0210   -8.3090   37.6320 C.3    37  ILE37       0.0020
     37  CD1       49.0930   -8.1600   41.3390 C.3    37  ILE37       0.0001
     38  N         46.3160  -10.9410   37.6520 N.am   38  GLN38      -0.1979
     39  CA        44.9650  -11.3080   37.2650 C.3    38  GLN38       0.1601
     40  C         44.5250  -12.6310   37.9170 C.2    38  GLN38       0.2287
     41  O         43.4260  -12.7200   38.4560 O.2    38  GLN38      -0.2864
     42  CB        44.8060  -11.3610   35.7540 C.3    38  GLN38       0.0394
     43  CG        43.3520  -11.4540   35.3620 C.3    38  GLN38       0.0908
     44  CD        43.1530  -11.8230   33.9380 C.2    38  GLN38       0.2608
     45  OE1       42.8670  -12.9870   33.6230 O.2    38  GLN38      -0.2717
     46  NE2       43.2900  -10.8560   33.0510 N.am   38  GLN38      -0.0878
     47  N         43.4740   -3.6350   41.1460 N.3    95  THR95      -0.1203
     48  CA        44.8750   -4.0050   41.0110 C.3    95  THR95       0.1994
     49  C         45.0080   -5.2950   40.1830 C.2    95  THR95       0.2619
     50  O         45.9000   -5.4260   39.3380 O.2    95  THR95      -0.2717
     51  CB        45.5100   -4.1440   42.4270 C.3    95  THR95       0.1784
     52  OG1       45.5320   -2.8590   43.0360 O.3    95  THR95      -0.2211
     53  CG2       46.9180   -4.6940   42.3750 C.3    95  THR95       0.0376
     54  N         44.1120   -6.2310   40.4320 N.am   96  SER96      -0.1937
     55  CA        44.0360   -7.4800   39.6730 C.3    96  SER96       0.2055
     56  C         43.4860   -7.3470   38.2370 C.2    96  SER96       0.2643
     57  O         43.8840   -8.1410   37.3890 O.2    96  SER96      -0.2714
     58  CB        43.1170   -8.4560   40.4010 C.3    96  SER96       0.2130
     59  OG        43.6410   -8.7340   41.6670 O.3    96  SER96      -0.2179
     60  N         42.5350   -6.4270   37.9790 N.am   97  ASN97      -0.1957
     61  CA        41.7650   -6.4870   36.6970 C.3    97  ASN97       0.1819
     62  C         41.7950   -5.3120   35.7280 C.2    97  ASN97       0.2621
     63  O         41.3990   -5.4720   34.5380 O.2    97  ASN97      -0.2715
     64  CB        40.2820   -6.8230   36.9350 C.3    97  ASN97       0.1195
     65  CG        40.0840   -8.1790   37.5880 C.2    97  ASN97       0.2630
     66  OD1       40.5770   -9.1860   37.0970 O.2    97  ASN97      -0.2716
     67  ND2       39.3950   -8.1980   38.7230 N.am   97  ASN97      -0.0877
     68  N         42.1910   -4.1350   36.2090 N.am   98  ARG98      -0.1963
     69  CA        42.2710   -2.9580   35.3480 C.3    98  ARG98       0.1729
     70  C         43.4950   -3.0110   34.4410 C.2    98  ARG98       0.2617
     71  O         44.5590   -3.4340   34.8750 O.2    98  ARG98      -0.2715
     72  CB        42.3660   -1.6880   36.2030 C.3    98  ARG98       0.0348
     73  CG        41.1700   -1.3810   37.0850 C.3    98  ARG98       0.0492
     74  CD        39.9580   -0.9000   36.2570 C.3    98  ARG98       0.2205
     75  NE        38.9660   -0.3890   37.1890 N.pl3  98  ARG98      -0.0865
     76  CZ        37.8380    0.2310   36.8620 C.cat  98  ARG98       0.5346
     77  NH1       37.4980    0.4290   35.5870 N.pl3  98  ARG98       0.1354
     78  NH2       37.0390    0.6410   37.8430 N.pl3  98  ARG98       0.1354
     79  N         43.3480   -2.5880   33.1970 N.am   99  SER99      -0.1936
     80  CA        44.4860   -2.1840   32.3920 C.3    99  SER99       0.2055
     81  C         45.1030   -0.9860   33.1020 C.2    99  SER99       0.2643
     82  O         44.3920   -0.0460   33.4690 O.2    99  SER99      -0.2714
     83  CB        44.0660   -1.7490   30.9910 C.3    99  SER99       0.2130
     84  OG        43.3750   -2.7790   30.3020 O.3    99  SER99      -0.2179
     85  N         46.4150   -1.0400   33.3160 N.am  100  TYR100     -0.1973
     86  CA        47.1190    0.0390   33.9700 C.3   100  TYR100      0.1639
     87  C         47.3770    1.0470   32.8470 C.2   100  TYR100      0.2290
     88  O         48.4550    1.0230   32.2250 O.2   100  TYR100     -0.2864
     89  CB        48.4400   -0.4620   34.5840 C.3   100  TYR100      0.0560
     90  CG        48.3660   -1.4200   35.7630 C.ar  100  TYR100     -0.0198
     91  CD1       47.1510   -1.9340   36.2280 C.ar  100  TYR100     -0.0009
     92  CD2       49.5460   -1.8660   36.3910 C.ar  100  TYR100     -0.0009
     93  CE1       47.1020   -2.8100   37.2770 C.ar  100  TYR100      0.0417
     94  CE2       49.5020   -2.7550   37.4740 C.ar  100  TYR100      0.0417
     95  CZ        48.2920   -3.2230   37.9080 C.ar  100  TYR100      0.1957
     96  OH        48.2420   -4.1220   38.9490 O.3   100  TYR100     -0.2866
@<TRIPOS>BOND
     1    20    18   ar
     2    84    83    1
     3    19    18   ar
     4    18    17    1
     5    83    80    1
     6    17    16    1
     7    28    27   ar
     8    88    87    2
     9    80    81    1
    10    80    79    1
    11    87    86    1
    12    27    29   ar
    13    27    26    1
    14    46    44   am
    15    81    85   am
    16    81    82    2
    17    79    70   am
    18    16    13    1
    19    25    26    1
    20    25    22    1
    21    85    86    1
    22    45    44    2
    23    21    22    1
    24    21    14   am
    25    44    43    1
    26    86    89    1
    27    22    23    1
    28     4     3    2
    29    70    71    2
    30    70    69    1
    31    14    13    1
    32    14    15    2
    33    13    12    1
    34    63    62    2
    35    89    90    1
    36     3     2    1
    37    69    72    1
    38    69    68    1
    39    43    42    1
    40    23    24    2
    41     9     7   ar
    42     9    11   ar
    43     7     6   ar
    44    77    76    1
    45    62    68   am
    46    62    61    1
    47    42    39    1
    48    90    91   ar
    49    90    92   ar
    50    72    73    1
    51    91    93   ar
    52    74    73    1
    53    74    75    1
    54     2     1    1
    55     2     5    1
    56    92    94   ar
    57    11    10   ar
    58    61    64    1
    59    61    60    1
    60     6     5    1
    61     6     8   ar
    62    76    75    2
    63    76    78    1
    64    64    65    1
    65    66    65    2
    66    39    38    1
    67    39    40    1
    68    93    95   ar
    69    57    56    2
    70    94    95   ar
    71    65    67   am
    72    36    34    1
    73    38    32   am
    74    10     8   ar
    75    95    96    1
    76    40    41    2
    77    60    56   am
    78    56    55    1
    79    30    31    1
    80    32    31    1
    81    32    33    2
    82    34    31    1
    83    34    35    1
    84    50    49    2
    85    55    58    1
    86    55    54    1
    87    35    37    1
    88    49    54   am
    89    49    48    1
    90    58    59    1
    91    48    47    1
    92    48    51    1
    93    53    51    1
    94    51    52    1
