@<TRIPOS>MOLECULE
tmp/3zjqA01.pdb
 102 102 0 0 0
SMALL
GASTEIGER

@<TRIPOS>ATOM
      1  N         -0.9060    8.0740   35.7240 N.3    55  TRP55      -0.1227
      2  CA        -1.2690    6.7660   35.1860 C.3    55  TRP55       0.1737
      3  C         -1.7390    5.8270   36.2870 C.2    55  TRP55       0.2595
      4  O         -2.7400    5.1190   36.1260 O.2    55  TRP55      -0.2718
      5  CB        -0.1110    6.1500   34.3880 C.3    55  TRP55       0.0564
      6  CG         0.1550    6.8360   33.0650 C.ar   55  TRP55       0.0003
      7  CD1       -0.7040    7.6340   32.3630 C.ar   55  TRP55       0.0946
      8  CD2        1.3530    6.7540   32.2810 C.ar   55  TRP55       0.0152
      9  NE1       -0.1110    8.0660   31.1990 N.ar   55  TRP55      -0.2442
     10  CE2        1.1510    7.5400   31.1230 C.ar   55  TRP55       0.0810
     11  CE3        2.5810    6.1010   32.4480 C.ar   55  TRP55       0.0012
     12  CZ2        2.1270    7.6830   30.1350 C.ar   55  TRP55       0.0191
     13  CZ3        3.5530    6.2420   31.4630 C.ar   55  TRP55       0.0001
     14  CH2        3.3190    7.0270   30.3210 C.ar   55  TRP55       0.0015
     15  N         -1.0260    5.8440   37.4120 N.am   56  TYR56      -0.1976
     16  CA        -1.3900    5.0370   38.5740 C.3    56  TYR56       0.1639
     17  C         -2.6930    5.4930   39.2330 C.2    56  TYR56       0.2290
     18  O         -3.4410    4.6730   39.7750 O.2    56  TYR56      -0.2864
     19  CB        -0.2390    4.9920   39.5830 C.3    56  TYR56       0.0560
     20  CG         0.6580    3.7840   39.4160 C.ar   56  TYR56      -0.0198
     21  CD1        1.3990    3.5890   38.2470 C.ar   56  TYR56      -0.0009
     22  CD2        0.7660    2.8340   40.4290 C.ar   56  TYR56      -0.0009
     23  CE1        2.2210    2.4670   38.0910 C.ar   56  TYR56       0.0417
     24  CE2        1.5870    1.7170   40.2850 C.ar   56  TYR56       0.0417
     25  CZ         2.3050    1.5350   39.1160 C.ar   56  TYR56       0.1957
     26  OH         3.1040    0.4200   38.9860 O.3    56  TYR56      -0.2866
     27  N         -5.2220    6.8950   37.5610 N.3    58  PHE58      -0.1227
     28  CA        -6.2570    6.3990   36.6650 C.3    58  PHE58       0.1736
     29  C         -6.6090    4.9470   36.9860 C.2    58  PHE58       0.2595
     30  O         -7.7800    4.6270   37.1900 O.2    58  PHE58      -0.2718
     31  CB        -5.8290    6.5510   35.1980 C.3    58  PHE58       0.0547
     32  CG        -6.7370    5.8540   34.2190 C.ar   58  PHE58      -0.0202
     33  CD1       -8.0640    6.2550   34.0680 C.ar   58  PHE58      -0.0042
     34  CD2       -6.2600    4.8040   33.4350 C.ar   58  PHE58      -0.0042
     35  CE1       -8.9070    5.6130   33.1620 C.ar   58  PHE58      -0.0003
     36  CE2       -7.0980    4.1550   32.5190 C.ar   58  PHE58      -0.0003
     37  CZ        -8.4210    4.5570   32.3840 C.ar   58  PHE58      -0.0000
     38  N         -5.5950    4.0810   37.0420 N.am   59  VAL59      -0.1980
     39  CA        -5.8010    2.6560   37.3320 C.3    59  VAL59       0.1595
     40  C         -6.4020    2.4610   38.7270 C.2    59  VAL59       0.2287
     41  O         -7.3110    1.6440   38.9130 O.2    59  VAL59      -0.2864
     42  CB        -4.4880    1.8340   37.1610 C.3    59  VAL59       0.0276
     43  CG1       -4.5620    0.4860   37.8930 C.3    59  VAL59       0.0022
     44  CG2       -4.1970    1.6040   35.6810 C.3    59  VAL59       0.0022
     45  N         -3.5580   -5.8230   39.8820 N.3    69  PHE69      -0.1241
     46  CA        -2.4990   -5.7570   40.8890 C.3    69  PHE69       0.1605
     47  C         -2.9500   -6.3260   42.2400 C.2    69  PHE69       0.2264
     48  O         -2.2380   -6.1870   43.2340 O.2    69  PHE69      -0.2867
     49  CB        -2.0390   -4.3070   41.1040 C.3    69  PHE69       0.0534
     50  CG        -1.2910   -3.7170   39.9440 C.ar   69  PHE69      -0.0203
     51  CD1        0.0870   -3.8920   39.8280 C.ar   69  PHE69      -0.0042
     52  CD2       -1.9590   -2.9480   38.9870 C.ar   69  PHE69      -0.0042
     53  CE1        0.7940   -3.3340   38.7580 C.ar   69  PHE69      -0.0003
     54  CE2       -1.2630   -2.3750   37.9170 C.ar   69  PHE69      -0.0003
     55  CZ         0.1160   -2.5740   37.8020 C.ar   69  PHE69      -0.0000
     56  N          6.5920   -2.9110   39.9110 N.3    84  VAL84      -0.1245
     57  CA         6.2260   -2.6640   38.5120 C.3    84  VAL84       0.1561
     58  C          6.4650   -1.1970   38.1370 C.2    84  VAL84       0.2260
     59  O          6.9450   -0.9060   37.0300 O.2    84  VAL84      -0.2867
     60  CB         4.7480   -3.0830   38.2250 C.3    84  VAL84       0.0252
     61  CG1        4.2980   -2.6580   36.8280 C.3    84  VAL84       0.0019
     62  CG2        4.5740   -4.5860   38.4070 C.3    84  VAL84       0.0019
     63  N          8.1530    0.2900   34.8440 N.3    88  PHE88      -0.1241
     64  CA         7.2820    1.1520   34.0350 C.3    88  PHE88       0.1605
     65  C          7.9500    2.5090   33.7940 C.2    88  PHE88       0.2264
     66  O          7.9060    3.0530   32.6810 O.2    88  PHE88      -0.2867
     67  CB         5.9430    1.3340   34.7680 C.3    88  PHE88       0.0534
     68  CG         4.8210    1.8820   33.9140 C.ar   88  PHE88      -0.0203
     69  CD1        4.7780    1.6680   32.5450 C.ar   88  PHE88      -0.0042
     70  CD2        3.7750    2.5720   34.5090 C.ar   88  PHE88      -0.0042
     71  CE1        3.7290    2.1620   31.7720 C.ar   88  PHE88      -0.0003
     72  CE2        2.7160    3.0620   33.7500 C.ar   88  PHE88      -0.0003
     73  CZ         2.6920    2.8460   32.3740 C.ar   88  PHE88      -0.0000
     74  N          2.4080   -9.3910   30.7460 N.3   115  HIS115     -0.1241
     75  CA         0.9960   -9.0160   30.9000 C.3   115  HIS115      0.1621
     76  C          0.1310  -10.2590   30.7500 C.2   115  HIS115      0.2264
     77  O         -0.9240  -10.3720   31.3750 O.2   115  HIS115     -0.2867
     78  CB         0.5680   -7.9450   29.8750 C.3   115  HIS115      0.0745
     79  CG         1.0710   -6.5700   30.1890 C.ar  115  HIS115      0.0817
     80  ND1        2.3070   -6.1220   29.7810 N.ar  115  HIS115     -0.2268
     81  CD2        0.5120   -5.5480   30.8820 C.ar  115  HIS115      0.1154
     82  CE1        2.4920   -4.8860   30.2090 C.ar  115  HIS115      0.1986
     83  NE2        1.4180   -4.5130   30.8830 N.ar  115  HIS115     -0.2212
     84  N         -5.7600    0.7950   26.7020 N.3   140  PHE140     -0.1241
     85  CA        -4.7950    1.6760   27.3650 C.3   140  PHE140      0.1605
     86  C         -3.9330    2.4970   26.4130 C.2   140  PHE140      0.2264
     87  O         -3.2480    3.4260   26.8540 O.2   140  PHE140     -0.2867
     88  CB        -3.9120    0.8820   28.3330 C.3   140  PHE140      0.0534
     89  CG        -4.4570    0.7930   29.7340 C.ar  140  PHE140     -0.0203
     90  CD1       -5.8330    0.7000   29.9720 C.ar  140  PHE140     -0.0042
     91  CD2       -3.5900    0.7680   30.8190 C.ar  140  PHE140     -0.0042
     92  CE1       -6.3260    0.5960   31.2790 C.ar  140  PHE140     -0.0003
     93  CE2       -4.0720    0.6640   32.1250 C.ar  140  PHE140     -0.0003
     94  CZ        -5.4410    0.5800   32.3510 C.ar  140  PHE140     -0.0000
     95  N         -2.5380    6.0730   27.8350 N.3   144  ILE144     -0.1245
     96  CA        -1.0620    6.1670   27.8130 C.3   144  ILE144      0.1561
     97  C         -0.5660    7.2260   26.8130 C.2   144  ILE144      0.2260
     98  O          0.4210    7.9110   27.0680 O.2   144  ILE144     -0.2867
     99  CB        -0.3670    4.7840   27.5620 C.3   144  ILE144      0.0252
    100  CG1       -0.6580    3.7980   28.7090 C.3   144  ILE144      0.0019
    101  CG2        1.1590    4.9360   27.3690 C.3   144  ILE144      0.0019
    102  CD1       -0.1860    4.2520   30.0910 C.3   144  ILE144      0.0001
@<TRIPOS>BOND
     1    86    87    2
     2    86    85    1
     3    84    85    1
     4    97    98    2
     5    97    96    1
     6    85    88    1
     7   101    99    1
     8    99    96    1
     9    99   100    1
    10    96    95    1
    11    88    89    1
    12   100   102    1
    13    89    90   ar
    14    89    91   ar
    15    80    79   ar
    16    80    82   ar
    17    78    79    1
    18    78    75    1
    19    90    92   ar
    20    12    14   ar
    21    12    10   ar
    22    79    81   ar
    23    82    83   ar
    24    14    13   ar
    25    74    75    1
    26    76    75    1
    27    76    77    2
    28    91    93   ar
    29    81    83   ar
    30    10     9   ar
    31    10     8   ar
    32     9     7   ar
    33    92    94   ar
    34    13    11   ar
    35    71    73   ar
    36    71    69   ar
    37    93    94   ar
    38     8    11   ar
    39     8     6   ar
    40     7     6   ar
    41    73    72   ar
    42    37    36   ar
    43    37    35   ar
    44    36    34   ar
    45    69    68   ar
    46    66    65    2
    47     6     5    1
    48    35    33   ar
    49    34    32   ar
    50    72    70   ar
    51    65    64    1
    52    68    70   ar
    53    68    67    1
    54    64    67    1
    55    64    63    1
    56    33    32   ar
    57    32    31    1
    58     5     2    1
    59     2     1    1
    60     2     3    1
    61    31    28    1
    62    44    42    1
    63     4     3    2
    64     3    15   am
    65    28    29    1
    66    28    27    1
    67    61    60    1
    68    29    38   am
    69    29    30    2
    70    59    58    2
    71    38    39    1
    72    42    39    1
    73    42    43    1
    74    39    40    1
    75    15    16    1
    76    55    54   ar
    77    55    53   ar
    78    54    52   ar
    79    23    21   ar
    80    23    25   ar
    81    58    57    1
    82    60    62    1
    83    60    57    1
    84    21    20   ar
    85    57    56    1
    86    16    17    1
    87    16    19    1
    88    40    41    2
    89    53    51   ar
    90    26    25    1
    91    52    50   ar
    92    25    24   ar
    93    17    18    2
    94    20    19    1
    95    20    22   ar
    96    51    50   ar
    97    45    46    1
    98    50    49    1
    99    24    22   ar
   100    46    49    1
   101    46    47    1
   102    47    48    2
