@<TRIPOS>MOLECULE
tmp/3zjxA00.pdb
 112 106 0 0 0
SMALL
GASTEIGER

@<TRIPOS>ATOM
      1  N        -68.5950   98.7020  141.0400 N.3    72  TYR72      -0.1227
      2  CA       -69.6210   98.6250  142.0500 C.3    72  TYR72       0.1736
      3  C        -70.2180   97.2280  142.0860 C.2    72  TYR72       0.2595
      4  O        -70.7810   96.7770  141.0950 O.2    72  TYR72      -0.2718
      5  CB       -70.7210   99.6420  141.7610 C.3    72  TYR72       0.0548
      6  CG       -71.9210   99.4940  142.6600 C.ar   72  TYR72      -0.0200
      7  CD1      -71.9500  100.0950  143.9060 C.ar   72  TYR72      -0.0009
      8  CD2      -73.0110   98.7330  142.2720 C.ar   72  TYR72      -0.0009
      9  CE1      -73.0380   99.9470  144.7430 C.ar   72  TYR72       0.0417
     10  CE2      -74.1090   98.5800  143.1000 C.ar   72  TYR72       0.0417
     11  CZ       -74.1070   99.1840  144.3380 C.ar   72  TYR72       0.1957
     12  OH       -75.1960   99.0520  145.1480 O.3    72  TYR72      -0.2866
     13  N        -70.1090   96.5610  143.2400 N.am   73  VAL73      -0.1965
     14  CA       -70.5520   95.1840  143.3840 C.3    73  VAL73       0.1730
     15  C        -71.9370   95.0900  144.0240 C.2    73  VAL73       0.2656
     16  O        -72.7770   94.3140  143.5750 O.2    73  VAL73      -0.2711
     17  CB       -69.5540   94.3520  144.1990 C.3    73  VAL73       0.0290
     18  CG1      -70.0990   92.9560  144.4330 C.3    73  VAL73       0.0023
     19  CG2      -68.2080   94.2620  143.4840 C.3    73  VAL73       0.0023
     20  N        -72.1730   95.8580  145.0780 N.am   74  GLY74      -0.1716
     21  CA       -73.4660   95.8390  145.7110 C.2    74  GLY74       0.1480
     22  C        -73.5730   96.6520  146.9920 C.2    74  GLY74       0.2820
     23  O        -72.5940   97.1830  147.4930 O.2    74  GLY74      -0.2669
     24  N        -74.8050   96.7040  147.4910 N.am   75  LYS75      -0.1929
     25  CA       -75.2500   97.5320  148.6030 C.3    75  LYS75       0.1731
     26  C        -76.0220   96.6110  149.5570 C.2    75  LYS75       0.2616
     27  O        -76.7570   95.7310  149.1090 O.2    75  LYS75      -0.2715
     28  CB       -76.2570   98.5500  148.0710 C.3    75  LYS75       0.0312
     29  CG       -76.4930   99.6680  149.0640 C.3    75  LYS75       0.0038
     30  CD       -77.6410  100.5680  148.5540 C.3    75  LYS75       0.0206
     31  CE       -77.2880  101.5680  147.4100 C.3    75  LYS75       0.1093
     32  NZ       -76.9890  100.9520  146.1110 N.3    75  LYS75      -0.1314
     33  N        -75.9030   96.8470  150.8560 N.am   76  ALA76      -0.1977
     34  CA       -76.7630   96.1760  151.8330 C.3    76  ALA76       0.1597
     35  C        -76.9460   97.0250  153.0840 C.2    76  ALA76       0.2287
     36  O        -76.1780   97.9540  153.3410 O.2    76  ALA76      -0.2864
     37  CB       -76.2090   94.8140  152.1990 C.3    76  ALA76       0.0319
     38  N        -73.6320   90.2350  157.3450 N.3    90  SER90      -0.1202
     39  CA       -73.9970   90.4660  155.9520 C.3    90  SER90       0.2020
     40  C        -74.2630   89.1390  155.2590 C.2    90  SER90       0.2618
     41  O        -73.8330   88.0920  155.7240 O.2    90  SER90      -0.2717
     42  CB       -72.8780   91.2020  155.2050 C.3    90  SER90       0.2103
     43  OG       -71.7060   90.3920  155.0580 O.3    90  SER90      -0.2182
     44  N        -74.9570   89.1910  154.1260 N.am   91  GLN91      -0.1979
     45  CA       -75.1160   88.0000  153.2910 C.3    91  GLN91       0.1601
     46  C        -73.8190   87.7180  152.5500 C.2    91  GLN91       0.2287
     47  O        -73.1000   88.6380  152.1780 O.2    91  GLN91      -0.2864
     48  CB       -76.2690   88.1790  152.2870 C.3    91  GLN91       0.0394
     49  CG       -76.0090   89.1510  151.1260 C.3    91  GLN91       0.0908
     50  CD       -76.2800   90.6000  151.4770 C.2    91  GLN91       0.2608
     51  OE1      -75.9250   91.0680  152.5710 O.2    91  GLN91      -0.2717
     52  NE2      -76.9060   91.3230  150.5570 N.am   91  GLN91      -0.0878
     53  N        -71.7300   86.6360  149.1930 N.3    93  PHE93      -0.1227
     54  CA       -71.9600   87.0250  147.7970 C.3    93  PHE93       0.1736
     55  C        -70.8100   86.6170  146.8850 C.2    93  PHE93       0.2596
     56  O        -69.7830   86.0940  147.3430 O.2    93  PHE93      -0.2718
     57  CB       -72.2680   88.5240  147.6790 C.3    93  PHE93       0.0547
     58  CG       -71.1550   89.4270  148.1350 C.ar   93  PHE93      -0.0202
     59  CD1      -70.1700   89.8250  147.2490 C.ar   93  PHE93      -0.0042
     60  CD2      -71.1010   89.8960  149.4420 C.ar   93  PHE93      -0.0042
     61  CE1      -69.1430   90.6600  147.6510 C.ar   93  PHE93      -0.0003
     62  CE2      -70.0720   90.7140  149.8570 C.ar   93  PHE93      -0.0003
     63  CZ       -69.0870   91.0940  148.9580 C.ar   93  PHE93      -0.0000
     64  N        -71.0180   86.8070  145.5830 N.am   94  THR94      -0.1939
     65  CA       -69.9810   86.5660  144.5830 C.3    94  THR94       0.2028
     66  C        -69.8760   87.7680  143.6900 C.2    94  THR94       0.2642
     67  O        -70.8320   88.5150  143.5340 O.2    94  THR94      -0.2714
     68  CB       -70.3220   85.3970  143.6480 C.3    94  THR94       0.1808
     69  OG1      -71.5120   85.7190  142.9220 O.3    94  THR94      -0.2208
     70  CG2      -70.5360   84.1200  144.4180 C.3    94  THR94       0.0379
     71  N        -68.7130   87.9410  143.0870 N.am   95  CYS95      -0.1967
     72  CA       -68.5830   88.8470  141.9630 C.3    95  CYS95       0.1712
     73  C        -67.5110   88.3340  141.0030 C.2    95  CYS95       0.2296
     74  O        -66.6010   87.5940  141.3930 O.2    95  CYS95      -0.2864
     75  CB       -68.2820   90.2660  142.4320 C.3    95  CYS95       0.0983
     76  SG       -66.7360   90.4300  143.3360 S.3    95  CYS95      -0.0798
     77  N        -69.8910   88.7760  156.3610 N.3   155  GLN155     -0.1245
     78  CA       -69.0260   89.6080  157.2130 C.3   155  GLN155      0.1566
     79  C        -69.7430   89.9960  158.5110 C.2   155  GLN155      0.2260
     80  O        -70.9410   90.2880  158.5060 O.2   155  GLN155     -0.2867
     81  CB       -68.6250   90.9060  156.4830 C.3   155  GLN155      0.0367
     82  CG       -67.9680   90.7040  155.1240 C.3   155  GLN155      0.0905
     83  CD       -66.6260   90.0130  155.2050 C.2   155  GLN155      0.2608
     84  OE1      -65.7610   90.4060  155.9900 O.2   155  GLN155     -0.2717
     85  NE2      -66.4370   88.9680  154.3910 N.am  155  GLN155     -0.0878
     86  N        -70.4500   92.6670  161.2850 N.3   157  ILE157     -0.1245
     87  CA       -70.3300   94.1020  161.4610 C.3   157  ILE157      0.1561
     88  C        -70.9200   94.5030  162.8170 C.2   157  ILE157      0.2260
     89  O        -72.0900   94.2350  163.0860 O.2   157  ILE157     -0.2867
     90  CB       -70.9950   94.8520  160.2730 C.3   157  ILE157      0.0252
     91  CG1      -70.2680   94.4940  158.9690 C.3   157  ILE157      0.0019
     92  CG2      -70.9360   96.3600  160.4740 C.3   157  ILE157      0.0019
     93  CD1      -71.0390   94.8490  157.7240 C.3   157  ILE157      0.0001
     94  N        -73.8880   99.2600  153.8860 N.3   167  VAL167     -0.1245
     95  CA       -72.6130   98.7010  153.4870 C.3   167  VAL167      0.1561
     96  C        -72.5500   98.6610  151.9630 C.2   167  VAL167      0.2260
     97  O        -73.4980   98.2080  151.3200 O.2   167  VAL167     -0.2867
     98  CB       -72.4460   97.2920  154.0690 C.3   167  VAL167      0.0252
     99  CG1      -71.0690   96.7570  153.7710 C.3   167  VAL167      0.0019
    100  CG2      -72.6030   97.3260  155.5730 C.3   167  VAL167      0.0019
    101  N        -70.0420   97.3270  148.7320 N.3   169  ALA169     -0.1245
    102  CA       -68.8490   96.6090  148.3020 C.3   169  ALA169      0.1562
    103  C        -68.4630   97.1030  146.9010 C.2   169  ALA169      0.2260
    104  O        -69.3390   97.3130  146.0670 O.2   169  ALA169     -0.2867
    105  CB       -69.0920   95.1190  148.2830 C.3   169  ALA169      0.0290
    106  N        -64.9980   97.3020  151.2380 N.3   242  VAL242     -0.1245
    107  CA       -66.3010   97.4850  151.8250 C.3   242  VAL242      0.1561
    108  C        -66.2760   98.8140  152.5740 C.2   242  VAL242      0.2260
    109  O        -65.3880   99.0670  153.4220 O.2   242  VAL242     -0.2867
    110  CB       -66.6240   96.3010  152.7390 C.3   242  VAL242      0.0252
    111  CG1      -67.7140   96.6510  153.7320 C.3   242  VAL242      0.0019
    112  CG2      -67.0610   95.1010  151.8950 C.3   242  VAL242      0.0019
@<TRIPOS>BOND
     1    73    74    2
     2    73    72    1
     3     1     2    1
     4     4     3    2
     5     5     2    1
     6     5     6    1
     7    72    75    1
     8    72    71    1
     9     2     3    1
    10     3    13   am
    11     8     6   ar
    12     8    10   ar
    13    75    76    1
    14     6     7   ar
    15    69    68    1
    16    71    66   am
    17    10    11   ar
    18    13    14    1
    19    14    15    1
    20    14    17    1
    21    19    17    1
    22    67    66    2
    23    16    15    2
    24    68    70    1
    25    68    65    1
    26    66    65    1
    27     7     9   ar
    28    15    20    1
    29    17    18    1
    30    11     9   ar
    31    11    12    1
    32    65    64    1
    33    20    21    2
    34    64    55   am
    35    21    22    1
    36   104   103    2
    37    32    31    1
    38    55    56    2
    39    55    54    1
    40   103   102    1
    41    22    24   am
    42    22    23    2
    43    59    61   ar
    44    59    58   ar
    45    31    30    1
    46    24    25    1
    47    61    63   ar
    48    57    54    1
    49    57    58    1
    50    54    53    1
    51    28    25    1
    52    28    29    1
    53    58    60   ar
    54   105   102    1
    55   102   101    1
    56    30    29    1
    57    25    26    1
    58    63    62   ar
    59    27    26    2
    60    60    62   ar
    61    26    33   am
    62    52    50   am
    63    33    34    1
    64    49    50    1
    65    49    48    1
    66   106   107    1
    67    97    96    2
    68    50    51    2
    69   107   108    1
    70   107   110    1
    71    34    37    1
    72    34    35    1
    73   112   110    1
    74    96    95    1
    75    47    46    2
    76    48    45    1
    77    46    45    1
    78   108   109    2
    79   110   111    1
    80    35    36    2
    81    45    44    1
    82    95    94    1
    83    95    98    1
    84    99    98    1
    85    98   100    1
    86    44    40   am
    87    85    83   am
    88    43    42    1
    89    82    83    1
    90    82    81    1
    91    83    84    2
    92    42    39    1
    93    40    41    2
    94    40    39    1
    95    39    38    1
    96    77    78    1
    97    81    78    1
    98    78    79    1
    99    93    91    1
   100    80    79    2
   101    91    90    1
   102    90    92    1
   103    90    87    1
   104    86    87    1
   105    87    88    1
   106    88    89    2
