@<TRIPOS>MOLECULE
tmp/3zjzC01.pdb
 130 126 0 0 0
SMALL
GASTEIGER

@<TRIPOS>ATOM
      1  N        -29.0630 -113.0750   37.7430 N.3     8  LEU8       -0.1245
      2  CA       -27.9670 -112.5910   36.8960 C.3     8  LEU8        0.1561
      3  C        -28.3160 -111.2000   36.3820 C.2     8  LEU8        0.2260
      4  O        -27.4640 -110.3150   36.4020 O.2     8  LEU8       -0.2867
      5  CB       -27.7480 -113.5560   35.7130 C.3     8  LEU8        0.0270
      6  CG       -26.6260 -113.2280   34.7320 C.3     8  LEU8        0.0019
      7  CD1      -25.6910 -114.4090   34.5650 C.3     8  LEU8        0.0001
      8  CD2      -27.1860 -112.7880   33.3920 C.3     8  LEU8        0.0001
      9  N        -28.1940 -108.4700   39.2090 N.3    11  VAL11      -0.1231
     10  CA       -26.7890 -108.1600   39.4970 C.3    11  VAL11       0.1692
     11  C        -26.2260 -107.2410   38.3900 C.2    11  VAL11       0.2591
     12  O        -25.5710 -106.2460   38.7040 O.2    11  VAL11      -0.2718
     13  CB       -25.9610 -109.4640   39.7040 C.3    11  VAL11       0.0266
     14  CG1      -24.4640 -109.1900   39.7230 C.3    11  VAL11       0.0020
     15  CG2      -26.3750 -110.1800   40.9910 C.3    11  VAL11       0.0020
     16  N        -26.5240 -107.5590   37.1080 N.am   12  VAL12      -0.1980
     17  CA       -26.1150 -106.7880   35.9250 C.3    12  VAL12       0.1595
     18  C        -26.7580 -105.3930   35.9550 C.2    12  VAL12       0.2287
     19  O        -26.0860 -104.4020   35.6690 O.2    12  VAL12      -0.2864
     20  CB       -26.3810 -107.5810   34.6090 C.3    12  VAL12       0.0276
     21  CG1      -26.5050 -106.6670   33.3940 C.3    12  VAL12       0.0022
     22  CG2      -25.2920 -108.6250   34.3760 C.3    12  VAL12       0.0022
     23  N        -24.9440 -103.2990   38.8400 N.3    15  ILE15      -0.1231
     24  CA       -23.5790 -102.9030   38.4540 C.3    15  ILE15       0.1692
     25  C        -23.6250 -101.7750   37.4040 C.2    15  ILE15       0.2591
     26  O        -22.9330 -100.7690   37.5570 O.2    15  ILE15      -0.2718
     27  CB       -22.7180 -104.1230   38.0090 C.3    15  ILE15       0.0266
     28  CG1      -22.4800 -105.0820   39.1920 C.3    15  ILE15       0.0019
     29  CG2      -21.3730 -103.6720   37.4020 C.3    15  ILE15       0.0020
     30  CD1      -22.1190 -106.4990   38.8120 C.3    15  ILE15       0.0001
     31  N        -24.4620 -101.9340   36.3690 N.am   16  ALA16      -0.1980
     32  CA       -24.6190 -100.9440   35.3170 C.3    16  ALA16       0.1597
     33  C        -25.1640  -99.6020   35.8560 C.2    16  ALA16       0.2287
     34  O        -24.6520  -98.5520   35.4610 O.2    16  ALA16      -0.2864
     35  CB       -25.5160 -101.4870   34.2200 C.3    16  ALA16       0.0319
     36  N        -22.4610  -97.8690   37.6790 N.3    19  MET19      -0.1245
     37  CA       -21.5600  -97.3700   36.6430 C.3    19  MET19       0.1570
     38  C        -22.0590  -96.0950   35.9950 C.2    19  MET19       0.2261
     39  O        -21.2970  -95.1470   35.8540 O.2    19  MET19      -0.2867
     40  CB       -21.3330  -98.4460   35.5780 C.3    19  MET19       0.0387
     41  CG       -20.0080  -99.1240   35.6930 C.3    19  MET19       0.0595
     42  SD       -19.9660 -100.3190   37.0220 S.3    19  MET19      -0.1393
     43  CE       -18.7900  -99.5220   38.1200 C.3    19  MET19       0.0692
     44  N        -20.3910  -92.4410   36.0210 N.3    23  LEU23      -0.1231
     45  CA       -19.9170  -91.9010   34.7460 C.3    23  LEU23       0.1693
     46  C        -20.7010  -90.6740   34.2730 C.2    23  LEU23       0.2592
     47  O        -20.0860  -89.6680   33.9020 O.2    23  LEU23      -0.2718
     48  CB       -19.9090  -92.9920   33.6420 C.3    23  LEU23       0.0284
     49  CG       -18.8650  -94.1230   33.7610 C.3    23  LEU23       0.0019
     50  CD1      -19.1440  -95.2350   32.7680 C.3    23  LEU23       0.0001
     51  CD2      -17.4810  -93.6150   33.5200 C.3    23  LEU23       0.0001
     52  N        -22.0530  -90.7630   34.2830 N.am   24  TYR24      -0.1976
     53  CA       -22.9330  -89.7410   33.7330 C.3    24  TYR24       0.1639
     54  C        -23.8810  -89.0000   34.7050 C.2    24  TYR24       0.2290
     55  O        -24.7870  -88.2810   34.2570 O.2    24  TYR24      -0.2864
     56  CB       -23.7170  -90.3460   32.5570 C.3    24  TYR24       0.0560
     57  CG       -22.9970  -91.4490   31.8040 C.ar   24  TYR24      -0.0198
     58  CD1      -21.9120  -91.1660   30.9810 C.ar   24  TYR24      -0.0009
     59  CD2      -23.4660  -92.7550   31.8300 C.ar   24  TYR24      -0.0009
     60  CE1      -21.2760  -92.1690   30.2520 C.ar   24  TYR24       0.0417
     61  CE2      -22.8490  -93.7610   31.0900 C.ar   24  TYR24       0.0417
     62  CZ       -21.7490  -93.4660   30.3070 C.ar   24  TYR24       0.1957
     63  OH       -21.1420  -94.4480   29.5620 O.3    24  TYR24      -0.2866
     64  N        -19.9550  -87.1770   26.3070 N.3    63  HIS63      -0.1227
     65  CA       -19.1330  -88.3800   26.4040 C.3    63  HIS63       0.1737
     66  C        -19.1920  -89.1240   25.0660 C.2    63  HIS63       0.2438
     67  O        -20.0750  -89.9610   24.8860 O.2    63  HIS63      -0.2733
     68  CB       -19.6120  -89.2870   27.5670 C.3    63  HIS63       0.0758
     69  CG       -19.9820  -88.5430   28.8140 C.ar   63  HIS63       0.0818
     70  ND1      -19.0410  -88.1980   29.7500 N.ar   63  HIS63      -0.2268
     71  CD2      -21.1850  -88.0800   29.2160 C.ar   63  HIS63       0.1154
     72  CE1      -19.6940  -87.5460   30.6930 C.ar   63  HIS63       0.1986
     73  NE2      -20.9890  -87.4580   30.4160 N.ar   63  HIS63      -0.2212
     74  N        -18.2750  -88.8490   24.1100 N.am   64  PRO64      -0.2718
     75  CA       -18.3520  -89.5180   22.8030 C.3    64  PRO64       0.1535
     76  C        -18.2920  -91.0370   22.7640 C.2    64  PRO64       0.2599
     77  O        -18.7470  -91.6320   21.7920 O.2    64  PRO64      -0.2715
     78  CB       -17.2180  -88.8810   22.0040 C.3    64  PRO64       0.0310
     79  CG       -16.3420  -88.2890   22.9950 C.3    64  PRO64       0.0237
     80  CD       -17.1850  -87.8610   24.1310 C.3    64  PRO64       0.0939
     81  N        -17.7410  -91.6650   23.7860 N.am   65  ASN65      -0.1959
     82  CA       -17.6320  -93.1190   23.8180 C.3    65  ASN65       0.1819
     83  C        -18.7890  -93.8030   24.5160 C.2    65  ASN65       0.2621
     84  O        -18.7890  -95.0290   24.5710 O.2    65  ASN65      -0.2715
     85  CB       -16.2880  -93.5820   24.4020 C.3    65  ASN65       0.1195
     86  CG       -15.0990  -93.3000   23.5190 C.2    65  ASN65       0.2630
     87  OD1      -15.1300  -93.4990   22.2990 O.2    65  ASN65      -0.2716
     88  ND2      -14.0080  -92.8540   24.1250 N.am   65  ASN65      -0.0877
     89  N        -19.7830  -93.0400   25.0240 N.am   66  ALA66      -0.1977
     90  CA       -20.9600  -93.5760   25.7410 C.3    66  ALA66       0.1597
     91  C        -21.5520  -94.8590   25.1330 C.2    66  ALA66       0.2287
     92  O        -22.0530  -95.6930   25.8860 O.2    66  ALA66      -0.2864
     93  CB       -22.0440  -92.5110   25.8880 C.3    66  ALA66       0.0319
     94  N        -19.9960  -97.4560   23.9900 N.3    68  VAL68      -0.1231
     95  CA       -19.2220  -98.6050   24.5030 C.3    68  VAL68       0.1692
     96  C        -19.9270  -99.1660   25.7500 C.2    68  VAL68       0.2592
     97  O        -19.7940 -100.3530   26.0380 O.2    68  VAL68      -0.2718
     98  CB       -17.7160  -98.2530   24.7840 C.3    68  VAL68       0.0266
     99  CG1      -16.9080  -99.4740   25.2130 C.3    68  VAL68       0.0020
    100  CG2      -17.0610  -97.6040   23.5710 C.3    68  VAL68       0.0020
    101  N        -20.6610  -98.3130   26.4870 N.am   69  PHE69      -0.1976
    102  CA       -21.3920  -98.7390   27.6740 C.3    69  PHE69       0.1639
    103  C        -22.7960  -99.2090   27.2920 C.2    69  PHE69       0.2290
    104  O        -23.1700 -100.3390   27.6280 O.2    69  PHE69      -0.2864
    105  CB       -21.4490  -97.6080   28.7330 C.3    69  PHE69       0.0560
    106  CG       -22.2800  -97.9250   29.9610 C.ar   69  PHE69      -0.0200
    107  CD1      -23.6410  -97.6490   29.9910 C.ar   69  PHE69      -0.0042
    108  CD2      -21.7020  -98.4950   31.0860 C.ar   69  PHE69      -0.0042
    109  CE1      -24.4130  -97.9740   31.1110 C.ar   69  PHE69      -0.0003
    110  CE2      -22.4680  -98.7910   32.2160 C.ar   69  PHE69      -0.0003
    111  CZ       -23.8200  -98.5430   32.2150 C.ar   69  PHE69      -0.0000
    112  N        -24.7530 -103.0900   26.8900 N.3    73  PHE73      -0.1241
    113  CA       -25.8180 -103.1860   27.9050 C.3    73  PHE73       0.1605
    114  C        -27.1080 -103.6850   27.2590 C.2    73  PHE73       0.2264
    115  O        -27.7270 -104.6000   27.7950 O.2    73  PHE73      -0.2867
    116  CB       -26.0510 -101.8340   28.6430 C.3    73  PHE73       0.0534
    117  CG       -27.2290 -101.8560   29.5960 C.ar   73  PHE73      -0.0203
    118  CD1      -27.0860 -102.3290   30.8960 C.ar   73  PHE73      -0.0042
    119  CD2      -28.4940 -101.4550   29.1720 C.ar   73  PHE73      -0.0042
    120  CE1      -28.1900 -102.3980   31.7510 C.ar   73  PHE73      -0.0003
    121  CE2      -29.6030 -101.5430   30.0220 C.ar   73  PHE73      -0.0003
    122  CZ       -29.4460 -102.0130   31.3010 C.ar   73  PHE73      -0.0000
    123  N        -26.7530 -107.3400   25.8760 N.3    76  LEU76      -0.1245
    124  CA       -26.7780 -108.2780   27.0000 C.3    76  LEU76       0.1561
    125  C        -28.1670 -108.4280   27.6430 C.2    76  LEU76       0.2260
    126  O        -28.6610 -109.5500   27.7490 O.2    76  LEU76      -0.2867
    127  CB       -25.7250 -107.8820   28.0580 C.3    76  LEU76       0.0270
    128  CG       -25.5560 -108.8140   29.2710 C.3    76  LEU76       0.0019
    129  CD1      -24.8720 -110.1170   28.8790 C.3    76  LEU76       0.0001
    130  CD2      -24.7550 -108.1420   30.3600 C.3    76  LEU76       0.0001
@<TRIPOS>BOND
     1    77    76    2
     2    78    75    1
     3    78    79    1
     4    87    86    2
     5    76    75    1
     6    76    81   am
     7    75    74    1
     8    79    80    1
     9    86    88   am
    10    86    85    1
    11   100    98    1
    12    81    82    1
    13    82    85    1
    14    82    83    1
    15    94    95    1
    16    74    80    1
    17    74    66   am
    18    95    98    1
    19    95    96    1
    20    83    84    2
    21    83    89   am
    22    98    99    1
    23    67    66    2
    24    89    90    1
    25    66    65    1
    26    91    90    1
    27    91    92    2
    28    90    93    1
    29    96    97    2
    30    96   101   am
    31   123   124    1
    32    64    65    1
    33    65    68    1
    34   101   102    1
    35   112   113    1
    36   124   125    1
    37   124   127    1
    38   114   115    2
    39   114   113    1
    40   103   104    2
    41   103   102    1
    42    68    69    1
    43   125   126    2
    44   102   105    1
    45   113   116    1
    46   127   128    1
    47   116   117    1
    48   105   106    1
    49    69    71   ar
    50    69    70   ar
    51   129   128    1
    52   119   117   ar
    53   119   121   ar
    54    71    73   ar
    55   128   130    1
    56    63    62    1
    57   117   118   ar
    58    70    72   ar
    59   106   107   ar
    60   106   108   ar
    61   107   109   ar
    62   121   122   ar
    63    60    62   ar
    64    60    58   ar
    65    62    61   ar
    66    73    72   ar
    67   118   120   ar
    68    58    57   ar
    69   108   110   ar
    70    61    59   ar
    71   109   111   ar
    72   122   120   ar
    73    57    59   ar
    74    57    56    1
    75   111   110   ar
    76    56    53    1
    77    50    49    1
    78     8     6    1
    79    21    20    1
    80    51    49    1
    81    48    49    1
    82    48    45    1
    83    53    52    1
    84    53    54    1
    85    47    46    2
    86    35    32    1
    87    55    54    2
    88    46    52   am
    89    46    45    1
    90    22    20    1
    91     7     6    1
    92    20    17    1
    93     6     5    1
    94    45    44    1
    95    32    33    1
    96    32    31    1
    97    34    33    2
    98    40    41    1
    99    40    37    1
   100    19    18    2
   101    41    42    1
   102     5     2    1
   103    39    38    2
   104    17    18    1
   105    17    16    1
   106    38    37    1
   107    31    25   am
   108     3     4    2
   109     3     2    1
   110    37    36    1
   111     2     1    1
   112    42    43    1
   113    16    11   am
   114    29    27    1
   115    25    26    2
   116    25    24    1
   117    27    24    1
   118    27    28    1
   119    11    12    2
   120    11    10    1
   121    24    23    1
   122    30    28    1
   123     9    10    1
   124    10    13    1
   125    13    14    1
   126    13    15    1
