@<TRIPOS>MOLECULE
tmp/3zjzA01.pdb
 129 127 0 0 0
SMALL
GASTEIGER

@<TRIPOS>ATOM
      1  N        -24.3040  -56.3970    5.2530 N.3    11  VAL11      -0.1245
      2  CA       -24.0670  -57.1800    6.4740 C.3    11  VAL11       0.1561
      3  C        -24.7140  -58.5760    6.3500 C.2    11  VAL11       0.2260
      4  O        -24.0910  -59.5710    6.7190 O.2    11  VAL11      -0.2867
      5  CB       -24.5010  -56.3970    7.7460 C.3    11  VAL11       0.0252
      6  CG1      -24.8020  -57.3220    8.9250 C.3    11  VAL11       0.0019
      7  CG2      -23.4490  -55.3570    8.1290 C.3    11  VAL11       0.0019
      8  N        -22.5220  -60.6410    3.7350 N.3    14  ILE14      -0.1231
      9  CA       -21.2200  -61.0300    4.2940 C.3    14  ILE14       0.1692
     10  C        -21.3970  -62.1600    5.3110 C.2    14  ILE14       0.2591
     11  O        -20.6700  -63.1530    5.2380 O.2    14  ILE14      -0.2718
     12  CB       -20.4140  -59.8250    4.8590 C.3    14  ILE14       0.0266
     13  CG1      -20.0160  -58.8630    3.7160 C.3    14  ILE14       0.0019
     14  CG2      -19.1600  -60.2880    5.6360 C.3    14  ILE14       0.0020
     15  CD1      -19.6970  -57.4490    4.1690 C.3    14  ILE14       0.0001
     16  N        -22.3740  -62.0240    6.2280 N.am   15  ALA15      -0.1980
     17  CA       -22.6680  -63.0320    7.2390 C.3    15  ALA15       0.1597
     18  C        -23.1060  -64.3660    6.6220 C.2    15  ALA15       0.2287
     19  O        -22.6290  -65.4060    7.0740 O.2    15  ALA15      -0.2864
     20  CB       -23.7160  -62.5160    8.2030 C.3    15  ALA15       0.0319
     21  N        -20.1050  -66.0460    5.1800 N.3    18  MET18      -0.1245
     22  CA       -19.3250  -66.5540    6.3090 C.3    18  MET18       0.1570
     23  C        -19.9500  -67.8230    6.8840 C.2    18  MET18       0.2261
     24  O        -19.2250  -68.8000    7.1020 O.2    18  MET18      -0.2867
     25  CB       -19.1750  -65.4890    7.4070 C.3    18  MET18       0.0387
     26  CG       -18.1990  -64.3810    7.0720 C.3    18  MET18       0.0595
     27  SD       -18.0610  -63.1240    8.3860 S.3    18  MET18      -0.1393
     28  CE       -17.0880  -64.0250    9.6190 C.3    18  MET18       0.0692
     29  N        -18.4770  -71.5560    7.1270 N.3    22  LEU22      -0.1231
     30  CA       -18.2040  -72.1000    8.4470 C.3    22  LEU22       0.1693
     31  C        -18.9990  -73.3470    8.8050 C.2    22  LEU22       0.2592
     32  O        -18.4060  -74.3320    9.2750 O.2    22  LEU22      -0.2718
     33  CB       -18.3560  -71.0140    9.5480 C.3    22  LEU22       0.0284
     34  CG       -17.2850  -69.9160    9.6150 C.3    22  LEU22       0.0019
     35  CD1      -17.7270  -68.7950   10.5050 C.3    22  LEU22       0.0001
     36  CD2      -15.9350  -70.4650   10.0910 C.3    22  LEU22       0.0001
     37  N        -20.3410  -73.3000    8.6080 N.am   23  TYR23      -0.1976
     38  CA       -21.2560  -74.3490    9.0500 C.3    23  TYR23       0.1639
     39  C        -22.0420  -75.0990    7.9490 C.2    23  TYR23       0.2290
     40  O        -22.9960  -75.8200    8.2550 O.2    23  TYR23      -0.2864
     41  CB       -22.2090  -73.7470   10.0850 C.3    23  TYR23       0.0560
     42  CG       -21.6240  -72.6370   10.9330 C.ar   23  TYR23      -0.0198
     43  CD1      -20.6550  -72.9050   11.8990 C.ar   23  TYR23      -0.0009
     44  CD2      -22.0990  -71.3260   10.8290 C.ar   23  TYR23      -0.0009
     45  CE1      -20.1420  -71.8930   12.7140 C.ar   23  TYR23       0.0417
     46  CE2      -21.5940  -70.3020   11.6400 C.ar   23  TYR23       0.0417
     47  CZ       -20.6180  -70.5930   12.5860 C.ar   23  TYR23       0.1957
     48  OH       -20.1060  -69.6000   13.3930 O.3    23  TYR23      -0.2866
     49  N        -20.8220  -79.0450   17.6800 N.3    61  VAL61      -0.1231
     50  CA       -19.7800  -79.2960   16.6810 C.3    61  VAL61       0.1692
     51  C        -18.7330  -78.1530   16.7270 C.2    61  VAL61       0.2592
     52  O        -17.5350  -78.4290   16.7860 O.2    61  VAL61      -0.2718
     53  CB       -20.3860  -79.5140   15.2680 C.3    61  VAL61       0.0266
     54  CG1      -19.3010  -79.7680   14.2170 C.3    61  VAL61       0.0020
     55  CG2      -21.4040  -80.6610   15.2870 C.3    61  VAL61       0.0020
     56  N        -19.2050  -76.8920   16.7480 N.am   62  HIS62      -0.1962
     57  CA       -18.4020  -75.6720   16.7800 C.3    62  HIS62       0.1772
     58  C        -18.6520  -74.9460   18.0990 C.2    62  HIS62       0.2462
     59  O        -19.5510  -74.1130   18.1630 O.2    62  HIS62      -0.2730
     60  CB       -18.7500  -74.7610   15.5830 C.3    62  HIS62       0.0785
     61  CG       -18.9480  -75.5060   14.2900 C.ar   62  HIS62       0.0821
     62  ND1      -17.8760  -75.8320   13.4680 N.ar   62  HIS62      -0.2267
     63  CD2      -20.0860  -75.9950   13.7370 C.ar   62  HIS62       0.1154
     64  CE1      -18.3980  -76.4940   12.4480 C.ar   62  HIS62       0.1986
     65  NE2      -19.7210  -76.6210   12.5690 N.ar   62  HIS62      -0.2212
     66  N        -17.8830  -75.2280   19.1730 N.am   63  PRO63      -0.2716
     67  CA       -18.1460  -74.5710   20.4730 C.3    63  PRO63       0.1536
     68  C        -18.1290  -73.0430   20.5360 C.2    63  PRO63       0.2599
     69  O        -18.7310  -72.4660   21.4490 O.2    63  PRO63      -0.2715
     70  CB       -17.0970  -75.1900   21.4050 C.3    63  PRO63       0.0310
     71  CG       -16.0570  -75.7410   20.5040 C.3    63  PRO63       0.0237
     72  CD       -16.7780  -76.2010   19.2870 C.3    63  PRO63       0.0939
     73  N        -17.4480  -72.3920   19.6040 N.am   64  ASN64      -0.1959
     74  CA       -17.3640  -70.9400   19.6100 C.3    64  ASN64       0.1819
     75  C        -18.4120  -70.2600   18.7600 C.2    64  ASN64       0.2621
     76  O        -18.4100  -69.0320   18.7130 O.2    64  ASN64      -0.2715
     77  CB       -15.9530  -70.4610   19.2330 C.3    64  ASN64       0.1195
     78  CG       -14.9030  -70.7180   20.2850 C.2    64  ASN64       0.2630
     79  OD1      -15.1260  -70.5440   21.4940 O.2    64  ASN64      -0.2716
     80  ND2      -13.7120  -71.0910   19.8370 N.am   64  ASN64      -0.0877
     81  N        -19.3230  -71.0280   18.1060 N.am   65  ALA65      -0.1977
     82  CA       -20.3850  -70.5000   17.2210 C.3    65  ALA65       0.1597
     83  C        -21.0590  -69.2220   17.7240 C.2    65  ALA65       0.2287
     84  O        -21.4450  -68.3870   16.9050 O.2    65  ALA65      -0.2864
     85  CB       -21.4230  -71.5700   16.9270 C.3    65  ALA65       0.0319
     86  N        -19.6920  -66.6210   19.0770 N.3    67  VAL67      -0.1231
     87  CA       -18.8580  -65.4660   18.6880 C.3    67  VAL67       0.1692
     88  C        -19.3640  -64.8990   17.3480 C.2    67  VAL67       0.2592
     89  O        -19.1680  -63.7190   17.0720 O.2    67  VAL67      -0.2718
     90  CB       -17.3360  -65.8020   18.6350 C.3    67  VAL67       0.0266
     91  CG1      -16.4930  -64.5630   18.3420 C.3    67  VAL67       0.0020
     92  CG2      -16.8690  -66.4520   19.9320 C.3    67  VAL67       0.0020
     93  N        -20.0070  -65.7440   16.5160 N.am   68  PHE68      -0.1976
     94  CA       -20.5580  -65.3210   15.2310 C.3    68  PHE68       0.1639
     95  C        -21.9940  -64.8520   15.4170 C.2    68  PHE68       0.2290
     96  O        -22.3200  -63.7290   15.0340 O.2    68  PHE68      -0.2864
     97  CB       -20.4730  -66.4550   14.1780 C.3    68  PHE68       0.0560
     98  CG       -21.1290  -66.1310   12.8500 C.ar   68  PHE68      -0.0200
     99  CD1      -22.4760  -66.4220   12.6250 C.ar   68  PHE68      -0.0042
    100  CD2      -20.4020  -65.5320   11.8230 C.ar   68  PHE68      -0.0042
    101  CE1      -23.0860  -66.0820   11.4130 C.ar   68  PHE68      -0.0003
    102  CE2      -21.0100  -65.2090   10.6040 C.ar   68  PHE68      -0.0003
    103  CZ       -22.3440  -65.4850   10.4070 C.ar   68  PHE68      -0.0000
    104  N        -23.0150  -61.5310   18.2080 N.3    71  PRO71      -0.2102
    105  CA       -22.7910  -60.2170   17.5750 C.3    71  PRO71       0.1504
    106  C        -23.7230  -59.9390   16.3930 C.2    71  PRO71       0.2575
    107  O        -24.2480  -58.8230   16.3100 O.2    71  PRO71      -0.2718
    108  CB       -21.3250  -60.2840   17.1330 C.3    71  PRO71       0.0282
    109  CG       -20.7110  -61.2480   18.0670 C.3    71  PRO71       0.0208
    110  CD       -21.7620  -62.3100   18.2220 C.3    71  PRO71       0.0893
    111  N        -23.9750  -60.9640   15.5180 N.am   72  PHE72      -0.1977
    112  CA       -24.8880  -60.8710   14.3690 C.3    72  PHE72       0.1639
    113  C        -26.2670  -60.3730   14.8410 C.2    72  PHE72       0.2290
    114  O        -26.8180  -59.4540   14.2370 O.2    72  PHE72      -0.2864
    115  CB       -25.0130  -62.2190   13.6130 C.3    72  PHE72       0.0560
    116  CG       -26.0530  -62.1900   12.5080 C.ar   72  PHE72      -0.0200
    117  CD1      -25.7400  -61.6910   11.2460 C.ar   72  PHE72      -0.0042
    118  CD2      -27.3590  -62.6080   12.7460 C.ar   72  PHE72      -0.0042
    119  CE1      -26.7130  -61.6190   10.2380 C.ar   72  PHE72      -0.0003
    120  CE2      -28.3380  -62.5060   11.7470 C.ar   72  PHE72      -0.0003
    121  CZ       -28.0090  -62.0150   10.4990 C.ar   72  PHE72      -0.0000
    122  N        -26.1160  -56.7150   16.2730 N.3    75  LEU75      -0.1245
    123  CA       -25.9840  -55.7670   15.1690 C.3    75  LEU75       0.1561
    124  C        -27.2660  -55.6150   14.3360 C.2    75  LEU75       0.2260
    125  O        -27.7450  -54.4910   14.1710 O.2    75  LEU75      -0.2867
    126  CB       -24.7870  -56.1510   14.2790 C.3    75  LEU75       0.0270
    127  CG       -24.4460  -55.2110   13.1170 C.3    75  LEU75       0.0019
    128  CD1      -23.8390  -53.8930   13.6150 C.3    75  LEU75       0.0001
    129  CD2      -23.4750  -55.8760   12.1680 C.3    75  LEU75       0.0001
@<TRIPOS>BOND
     1    13    15    1
     2    13    12    1
     3     8     9    1
     4     9    12    1
     5     9    10    1
     6    12    14    1
     7    21    22    1
     8    11    10    2
     9     1     2    1
    10    10    16   am
    11    16    17    1
    12    22    23    1
    13    22    25    1
    14     3     2    1
    15     3     4    2
    16     2     5    1
    17    18    19    2
    18    18    17    1
    19    23    24    2
    20    26    25    1
    21    26    27    1
    22    29    30    1
    23    17    20    1
    24     5     7    1
    25     5     6    1
    26    39    40    2
    27    39    38    1
    28    27    28    1
    29    30    31    1
    30    30    33    1
    31    37    31   am
    32    37    38    1
    33    31    32    2
    34    38    41    1
    35    33    34    1
    36    34    36    1
    37    34    35    1
    38    41    42    1
    39   119   121   ar
    40   119   117   ar
    41   103   102   ar
    42   103   101   ar
    43   121   120   ar
    44   102   100   ar
    45    44    42   ar
    46    44    46   ar
    47    42    43   ar
    48   117   116   ar
    49   101    99   ar
    50    46    47   ar
    51   120   118   ar
    52   100    98   ar
    53    43    45   ar
    54   129   127    1
    55    64    65   ar
    56    64    62   ar
    57   116   118   ar
    58   116   115    1
    59    65    63   ar
    60    47    45   ar
    61    47    48    1
    62    99    98   ar
    63    98    97    1
    64   127   128    1
    65   127   126    1
    66    62    61   ar
    67   115   112    1
    68    63    61   ar
    69   125   124    2
    70    97    94    1
    71    54    53    1
    72   114   113    2
    73   126   123    1
    74    61    60    1
    75   124   123    1
    76   112   113    1
    77   112   111    1
    78    96    95    2
    79   123   122    1
    80    94    95    1
    81    94    93    1
    82    53    55    1
    83    53    50    1
    84   111   106   am
    85    60    57    1
    86   107   106    2
    87   106   105    1
    88    93    88   am
    89    50    51    1
    90    50    49    1
    91    51    56   am
    92    51    52    2
    93    56    57    1
    94    57    58    1
    95    84    83    2
    96    85    82    1
    97    89    88    2
    98   108   105    1
    99   108   109    1
   100    82    83    1
   101    82    81    1
   102    88    87    1
   103   105   104    1
   104   109   110    1
   105    58    59    2
   106    58    66   am
   107    81    75   am
   108   104   110    1
   109    91    90    1
   110    90    87    1
   111    90    92    1
   112    87    86    1
   113    76    75    2
   114    75    74    1
   115    66    72    1
   116    66    67    1
   117    77    74    1
   118    77    78    1
   119    72    71    1
   120    73    74    1
   121    73    68   am
   122    80    78   am
   123    78    79    2
   124    67    68    1
   125    67    70    1
   126    71    70    1
   127    68    69    2
