@<TRIPOS>MOLECULE
tmp/3zk4B03.pdb
 71 68 0 0 0
SMALL
GASTEIGER

@<TRIPOS>ATOM
      1  N        -72.9020   78.4360   72.7190 N.3   474  THR474     -0.1203
      2  CA       -72.3560   77.6850   73.8030 C.3   474  THR474      0.1994
      3  C        -72.2000   78.5300   75.0570 C.2   474  THR474      0.2617
      4  O        -71.7890   78.0170   76.0840 O.2   474  THR474     -0.2717
      5  CB       -71.0020   77.1020   73.4120 C.3   474  THR474      0.1784
      6  OG1      -70.0800   78.1630   73.1070 O.3   474  THR474     -0.2211
      7  CG2      -71.1390   76.1810   72.2200 C.3   474  THR474      0.0376
      8  N        -72.5170   79.8140   74.9510 N.am  475  ASN475     -0.1974
      9  CA       -72.4160   80.7660   76.0630 C.3   475  ASN475      0.1688
     10  C        -73.3590   81.8950   75.7510 C.2   475  ASN475      0.2292
     11  O        -73.4510   82.3200   74.6160 O.2   475  ASN475     -0.2864
     12  CB       -70.9670   81.2340   76.1870 C.3   475  ASN475      0.1181
     13  CG       -70.7570   82.2970   77.2530 C.2   475  ASN475      0.2629
     14  OD1      -71.2350   83.3870   77.1410 O.2   475  ASN475     -0.2716
     15  ND2      -69.9480   81.9910   78.2240 N.am  475  ASN475     -0.0877
     16  N        -66.2960   85.1110   80.4410 N.3   482  LYS482     -0.1231
     17  CA       -65.4260   84.6460   81.5140 C.3   482  LYS482      0.1693
     18  C        -65.1890   83.1470   81.3970 C.2   482  LYS482      0.2593
     19  O        -66.1110   82.3890   81.2010 O.2   482  LYS482     -0.2718
     20  CB       -66.0440   84.9370   82.9030 C.3   482  LYS482      0.0285
     21  CG       -66.5060   86.3640   83.1630 C.3   482  LYS482      0.0035
     22  CD       -65.3580   87.3450   83.2620 C.3   482  LYS482      0.0206
     23  CE       -65.7870   88.7040   83.8150 C.3   482  LYS482      0.1093
     24  NZ       -64.9530   89.8100   83.2620 N.3   482  LYS482     -0.1314
     25  N        -63.9520   82.7140   81.5850 N.am  483  GLY483     -0.1942
     26  CA       -63.6620   81.2880   81.6300 C.3   483  GLY483      0.2014
     27  C        -63.7190   80.5930   80.2830 C.2   483  GLY483      0.2639
     28  O        -63.4270   81.1800   79.2480 O.2   483  GLY483     -0.2714
     29  N        -64.0840   79.3270   80.3400 N.am  484  ASN484     -0.1958
     30  CA       -64.1740   78.4620   79.1610 C.3   484  ASN484      0.1819
     31  C        -65.4970   78.7420   78.4650 C.2   484  ASN484      0.2621
     32  O        -66.5560   78.4930   79.0450 O.2   484  ASN484     -0.2715
     33  CB       -64.1310   77.0300   79.6680 C.3   484  ASN484      0.1195
     34  CG       -64.1510   75.9770   78.5790 C.2   484  ASN484      0.2630
     35  OD1      -64.0000   76.2750   77.4370 O.2   484  ASN484     -0.2716
     36  ND2      -64.2770   74.7020   78.9930 N.am  484  ASN484     -0.0877
     37  N        -65.4320   79.2790   77.2540 N.am  485  LEU485     -0.1963
     38  CA       -66.6250   79.6820   76.5150 C.3   485  LEU485      0.1728
     39  C        -67.2640   78.5610   75.7380 C.2   485  LEU485      0.2616
     40  O        -68.4350   78.6950   75.3320 O.2   485  LEU485     -0.2715
     41  CB       -66.2790   80.8210   75.5880 C.3   485  LEU485      0.0311
     42  CG       -65.5390   81.9940   76.2300 C.3   485  LEU485      0.0022
     43  CD1      -65.4680   83.1650   75.2660 C.3   485  LEU485      0.0001
     44  CD2      -66.1870   82.4270   77.5460 C.3   485  LEU485      0.0001
     45  N        -66.5450   77.4590   75.5480 N.am  486  ASN486     -0.1972
     46  CA       -67.0770   76.2580   74.9480 C.3   486  ASN486      0.1688
     47  C        -67.3980   76.3560   73.4580 C.2   486  ASN486      0.2292
     48  O        -67.9720   75.4240   72.8970 O.2   486  ASN486     -0.2864
     49  CB       -68.3230   75.7600   75.7170 C.3   486  ASN486      0.1181
     50  CG       -67.9650   74.9710   76.9740 C.2   486  ASN486      0.2629
     51  OD1      -66.8630   74.4450   77.0770 O.2   486  ASN486     -0.2716
     52  ND2      -68.9020   74.8860   77.9480 N.am  486  ASN486     -0.0877
     53  N        -61.8350   70.6380   79.3300 N.3   559  CYS559     -0.1221
     54  CA       -62.6080   70.0320   78.2500 C.3   559  CYS559      0.1808
     55  C        -63.7770   70.9100   77.8270 C.2   559  CYS559      0.2602
     56  O        -64.4030   71.5750   78.6470 O.2   559  CYS559     -0.2717
     57  CB       -63.0990   68.6510   78.6480 C.3   559  CYS559      0.0970
     58  SG       -61.7210   67.4640   78.5800 S.3   559  CYS559     -0.0800
     59  N        -64.0580   70.8970   76.5340 N.am  560  SER560     -0.1938
     60  CA       -65.3340   71.4080   76.0160 C.3   560  SER560      0.2055
     61  C        -65.8920   70.3300   75.1200 C.2   560  SER560      0.2642
     62  O        -65.2220   69.3590   74.7820 O.2   560  SER560     -0.2714
     63  CB       -65.1300   72.7010   75.2220 C.3   560  SER560      0.2130
     64  OG       -64.4420   73.7270   75.9640 O.3   560  SER560     -0.2179
     65  N        -67.1320   70.5160   74.6850 N.am  561  VAL561     -0.1977
     66  CA       -67.7030   69.5800   73.6920 C.3   561  VAL561      0.1596
     67  C        -66.8060   69.4940   72.4780 C.2   561  VAL561      0.2287
     68  O        -66.3730   70.5220   71.9250 O.2   561  VAL561     -0.2864
     69  CB       -69.1620   69.9920   73.2880 C.3   561  VAL561      0.0276
     70  CG1      -69.2310   71.4040   72.7390 C.3   561  VAL561      0.0022
     71  CG2      -69.7410   69.0310   72.2670 C.3   561  VAL561      0.0022
@<TRIPOS>BOND
     1    68    67    2
     2     7     5    1
     3    71    69    1
     4    67    66    1
     5     1     2    1
     6    70    69    1
     7    48    47    2
     8     6     5    1
     9    69    66    1
    10     5     2    1
    11    47    46    1
    12    66    65    1
    13     2     3    1
    14    11    10    2
    15    65    61   am
    16    62    61    2
    17    46    45    1
    18    46    49    1
    19     8     3   am
    20     8     9    1
    21     3     4    2
    22    61    60    1
    23    63    64    1
    24    63    60    1
    25    43    42    1
    26    40    39    2
    27    45    39   am
    28    41    42    1
    29    41    38    1
    30    49    50    1
    31    39    38    1
    32    10     9    1
    33    60    59    1
    34     9    12    1
    35    12    13    1
    36    42    44    1
    37    38    37    1
    38    59    55   am
    39    50    51    2
    40    50    52   am
    41    14    13    2
    42    13    15   am
    43    37    31   am
    44    35    34    2
    45    55    54    1
    46    55    56    2
    47    54    57    1
    48    54    53    1
    49    31    32    2
    50    31    30    1
    51    34    36   am
    52    34    33    1
    53    58    57    1
    54    30    33    1
    55    30    29    1
    56    28    27    2
    57    27    29   am
    58    27    26    1
    59    16    17    1
    60    19    18    2
    61    18    17    1
    62    18    25   am
    63    17    20    1
    64    25    26    1
    65    20    21    1
    66    21    22    1
    67    22    23    1
    68    24    23    1
