@<TRIPOS>MOLECULE
tmp/3zk5B01.pdb
 195 182 0 0 0
SMALL
GASTEIGER

@<TRIPOS>ATOM
      1  N         -6.6060  -15.1080  -10.5990 N.3    62  TRP62      -0.1241
      2  CA        -6.7100  -13.6740  -10.6210 C.3    62  TRP62       0.1605
      3  C         -6.6940  -13.0710   -9.2100 C.2    62  TRP62       0.2264
      4  O         -6.2690  -11.9270   -9.0330 O.2    62  TRP62      -0.2867
      5  CB        -7.8800  -13.2080  -11.4800 C.3    62  TRP62       0.0550
      6  CG        -7.5820  -13.3100  -12.9550 C.ar   62  TRP62       0.0003
      7  CD1       -7.7480  -14.3950  -13.7330 C.ar   62  TRP62       0.0946
      8  CD2       -7.0600  -12.2820  -13.8120 C.ar   62  TRP62       0.0152
      9  NE1       -7.3330  -14.1360  -15.0250 N.ar   62  TRP62      -0.2442
     10  CE2       -6.9270  -12.8440  -15.1130 C.ar   62  TRP62       0.0810
     11  CE3       -6.6580  -10.9640  -13.6110 C.ar   62  TRP62       0.0012
     12  CZ2       -6.4490  -12.1120  -16.2140 C.ar   62  TRP62       0.0191
     13  CZ3       -6.2060  -10.2360  -14.6970 C.ar   62  TRP62       0.0001
     14  CH2       -6.0960  -10.8240  -15.9890 C.ar   62  TRP62       0.0015
     15  N        -10.1380   -7.8600  -12.3820 N.3    69  LEU69      -0.1245
     16  CA       -11.1310   -8.2240  -13.4110 C.3    69  LEU69       0.1561
     17  C        -12.3170   -7.2780  -13.4380 C.2    69  LEU69       0.2260
     18  O        -12.6860   -6.7100  -12.4210 O.2    69  LEU69      -0.2867
     19  CB       -11.6130   -9.6430  -13.1970 C.3    69  LEU69       0.0270
     20  CG       -10.4870  -10.6980  -13.3760 C.3    69  LEU69       0.0019
     21  CD1      -11.1030  -12.0880  -13.3500 C.3    69  LEU69       0.0001
     22  CD2       -9.7660  -10.5000  -14.7130 C.3    69  LEU69       0.0001
     23  N        -15.4620  -10.2130  -17.3410 N.3    73  GLU73      -0.1245
     24  CA       -14.3190  -11.1180  -17.2110 C.3    73  GLU73       0.1567
     25  C        -14.5190  -12.0920  -16.0550 C.2    73  GLU73       0.2260
     26  O        -14.3130  -13.3400  -16.1770 O.2    73  GLU73      -0.2867
     27  CB       -13.0190  -10.3060  -17.0690 C.3    73  GLU73       0.0388
     28  CG       -12.6740   -9.5910  -18.3880 C.3    73  GLU73       0.1160
     29  CD       -11.5940   -8.5480  -18.2510 C.2    73  GLU73       0.3649
     30  OE1      -11.1380   -8.2110  -17.1380 O.co2  73  GLU73      -0.2457
     31  OE2      -11.2160   -8.0250  -19.2940 O.co2  73  GLU73      -0.2457
     32  N        -16.4860  -15.5020  -16.1750 N.3    76  LEU76      -0.1231
     33  CA       -16.0180  -16.5780  -17.0140 C.3    76  LEU76       0.1693
     34  C        -14.7020  -17.1230  -16.5060 C.2    76  LEU76       0.2592
     35  O        -14.1140  -17.9770  -17.1260 O.2    76  LEU76      -0.2718
     36  CB       -15.8770  -16.0620  -18.4490 C.3    76  LEU76       0.0284
     37  CG       -17.1310  -15.5750  -19.1930 C.3    76  LEU76       0.0019
     38  CD1      -16.7340  -14.7420  -20.4250 C.3    76  LEU76       0.0001
     39  CD2      -17.8990  -16.7600  -19.6470 C.3    76  LEU76       0.0001
     40  N        -14.2500  -16.6570  -15.3420 N.am   77  ASN77      -0.1974
     41  CA       -12.8720  -16.9440  -14.9190 C.3    77  ASN77       0.1688
     42  C        -12.7620  -18.1420  -13.9580 C.2    77  ASN77       0.2292
     43  O        -11.7040  -18.4530  -13.4450 O.2    77  ASN77      -0.2864
     44  CB       -12.1980  -15.7130  -14.3450 C.3    77  ASN77       0.1181
     45  CG       -12.4620  -15.5330  -12.8810 C.2    77  ASN77       0.2629
     46  OD1      -13.5940  -15.5050  -12.4620 O.2    77  ASN77      -0.2716
     47  ND2      -11.4200  -15.3760  -12.1030 N.am   77  ASN77      -0.0877
     48  N        -12.3680  -21.2120  -14.2860 N.3    79  ASN79      -0.1240
     49  CA       -12.0310  -22.2730  -15.2360 C.3    79  ASN79       0.1653
     50  C        -10.6450  -22.7920  -14.8720 C.2    79  ASN79       0.2266
     51  O         -9.8400  -22.0780  -14.2270 O.2    79  ASN79      -0.2867
     52  CB       -12.0690  -21.7740  -16.7040 C.3    79  ASN79       0.1155
     53  CG       -11.0060  -20.7140  -17.0000 C.2    79  ASN79       0.2627
     54  OD1       -9.8010  -21.0210  -17.1770 O.2    79  ASN79      -0.2716
     55  ND2      -11.4580  -19.4640  -17.1570 N.am   79  ASN79      -0.0877
     56  N         -7.7750  -23.1040  -16.4670 N.3    81  LEU81      -0.1231
     57  CA        -6.5620  -22.4010  -16.9280 C.3    81  LEU81       0.1693
     58  C         -6.2900  -21.2010  -16.0770 C.2    81  LEU81       0.2591
     59  O         -5.1420  -20.7320  -15.9660 O.2    81  LEU81      -0.2718
     60  CB        -6.6930  -21.9440  -18.3880 C.3    81  LEU81       0.0284
     61  CG        -5.4500  -21.3990  -19.1210 C.3    81  LEU81       0.0019
     62  CD1       -4.1370  -22.0880  -18.6610 C.3    81  LEU81       0.0001
     63  CD2       -5.7170  -21.5740  -20.6180 C.3    81  LEU81       0.0001
     64  N         -7.3550  -20.6860  -15.4950 N.am   82  GLU82      -0.1979
     65  CA        -7.2390  -19.5220  -14.6410 C.3    82  GLU82       0.1602
     66  C         -7.3960  -19.9420  -13.1710 C.2    82  GLU82       0.2287
     67  O         -8.0460  -19.2710  -12.3770 O.2    82  GLU82      -0.2864
     68  CB        -8.2780  -18.5150  -15.0490 C.3    82  GLU82       0.0415
     69  CG        -7.9220  -17.9660  -16.4450 C.3    82  GLU82       0.1163
     70  CD        -8.7690  -16.7850  -16.9220 C.2    82  GLU82       0.3649
     71  OE1      -10.0130  -16.9250  -17.0200 O.co2  82  GLU82      -0.2457
     72  OE2       -8.1500  -15.7370  -17.2960 O.co2  82  GLU82      -0.2457
     73  N        -15.0990  -14.7950  -30.2740 N.3   163  THR163     -0.1218
     74  CA       -13.7720  -15.2740  -30.0950 C.3   163  THR163      0.1862
     75  C        -12.7670  -14.3550  -30.8000 C.2   163  THR163      0.2287
     76  O        -11.7390  -14.0010  -30.2430 O.2   163  THR163     -0.2866
     77  CB       -13.7510  -16.7390  -30.5380 C.3   163  THR163      0.1770
     78  OG1      -13.1440  -17.5290  -29.5150 O.3   163  THR163     -0.2211
     79  CG2      -13.0730  -16.8960  -31.8490 C.3   163  THR163      0.0375
     80  N        -12.2340  -11.3100  -28.4420 N.3   166  PHE166     -0.1227
     81  CA       -11.3910  -11.5300  -27.2630 C.3   166  PHE166      0.1736
     82  C         -9.9130  -11.3200  -27.5150 C.2   166  PHE166      0.2595
     83  O         -9.2000  -10.9660  -26.5780 O.2   166  PHE166     -0.2718
     84  CB       -11.5540  -12.9510  -26.6410 C.3   166  PHE166      0.0547
     85  CG       -12.9780  -13.3520  -26.2920 C.ar  166  PHE166     -0.0202
     86  CD1      -13.9190  -12.4190  -25.8660 C.ar  166  PHE166     -0.0042
     87  CD2      -13.3560  -14.7030  -26.3970 C.ar  166  PHE166     -0.0042
     88  CE1      -15.2150  -12.8150  -25.5710 C.ar  166  PHE166     -0.0003
     89  CE2      -14.6250  -15.1180  -26.0830 C.ar  166  PHE166     -0.0003
     90  CZ       -15.5630  -14.1980  -25.6490 C.ar  166  PHE166     -0.0000
     91  N         -9.4180  -11.5840  -28.7280 N.am  167  VAL167     -0.1980
     92  CA        -7.9820  -11.3740  -29.0110 C.3   167  VAL167      0.1595
     93  C         -7.7690  -10.2300  -29.9500 C.2   167  VAL167      0.2287
     94  O         -6.8240   -9.4770  -29.7860 O.2   167  VAL167     -0.2864
     95  CB        -7.2590  -12.5370  -29.7900 C.3   167  VAL167      0.0276
     96  CG1       -6.2940  -13.2720  -28.9230 C.3   167  VAL167      0.0022
     97  CG2       -8.2240  -13.3920  -30.5770 C.3   167  VAL167      0.0022
     98  N        -17.7180  -10.6650  -24.1370 N.3   179  MET179     -0.1245
     99  CA       -17.7750  -11.4820  -22.9380 C.3   179  MET179      0.1570
    100  C        -19.1690  -11.5640  -22.3550 C.2   179  MET179      0.2261
    101  O        -19.6490  -12.6730  -22.0430 O.2   179  MET179     -0.2867
    102  CB       -16.7360  -11.0690  -21.9020 C.3   179  MET179      0.0387
    103  CG       -15.3630  -11.7300  -22.2170 C.3   179  MET179      0.0595
    104  SD       -14.0460  -11.1900  -21.1250 S.3   179  MET179     -0.1393
    105  CE       -13.4530   -9.7560  -21.9840 C.3   179  MET179      0.0692
    106  N        -16.9150  -22.4400  -21.2320 N.3   226  HIS226     -0.1226
    107  CA       -16.2180  -21.2790  -21.8430 C.3   226  HIS226      0.1752
    108  C        -14.8060  -21.6540  -22.2630 C.2   226  HIS226      0.2595
    109  O        -14.3610  -21.4120  -23.4160 O.2   226  HIS226     -0.2718
    110  CB       -16.1420  -20.1130  -20.8290 C.3   226  HIS226      0.0759
    111  CG       -15.0950  -19.1050  -21.1540 C.ar  226  HIS226      0.0818
    112  ND1      -15.2140  -18.2300  -22.2050 N.ar  226  HIS226     -0.2268
    113  CD2      -13.8890  -18.8670  -20.5980 C.ar  226  HIS226      0.1154
    114  CE1      -14.1630  -17.4310  -22.2270 C.ar  226  HIS226      0.1986
    115  NE2      -13.3290  -17.8200  -21.2790 N.ar  226  HIS226     -0.2212
    116  N        -14.1020  -22.2870  -21.3380 N.am  227  ILE227     -0.1980
    117  CA       -12.6820  -22.5350  -21.6030 C.3   227  ILE227      0.1595
    118  C        -12.5020  -23.6400  -22.6460 C.2   227  ILE227      0.2287
    119  O        -11.5800  -23.5680  -23.3930 O.2   227  ILE227     -0.2864
    120  CB       -11.8490  -22.7920  -20.3220 C.3   227  ILE227      0.0276
    121  CG1      -10.3420  -22.6630  -20.5960 C.3   227  ILE227      0.0022
    122  CG2      -11.9900  -24.2370  -19.8290 C.3   227  ILE227      0.0022
    123  CD1       -9.8850  -21.2780  -20.8480 C.3   227  ILE227      0.0001
    124  N        -13.3570  -21.7620  -25.9430 N.3   230  VAL230     -0.1231
    125  CA       -12.4020  -20.7380  -26.4250 C.3   230  VAL230      0.1692
    126  C        -10.9420  -21.1880  -26.5240 C.2   230  VAL230      0.2591
    127  O        -10.2410  -20.7940  -27.4900 O.2   230  VAL230     -0.2718
    128  CB       -12.5640  -19.3120  -25.8300 C.3   230  VAL230      0.0266
    129  CG1      -14.0280  -18.9570  -25.6440 C.3   230  VAL230      0.0020
    130  CG2      -11.8460  -19.1390  -24.5180 C.3   230  VAL230      0.0020
    131  N        -10.4890  -22.0260  -25.5740 N.am  231  ALA231     -0.1980
    132  CA        -9.0580  -22.3480  -25.4370 C.3   231  ALA231      0.1597
    133  C         -8.5420  -22.9190  -26.7150 C.2   231  ALA231      0.2287
    134  O         -7.4230  -22.7170  -27.0690 O.2   231  ALA231     -0.2864
    135  CB        -8.7890  -23.3520  -24.2940 C.3   231  ALA231      0.0319
    136  N         -9.0120  -20.2110  -31.3480 N.3   234  GLU234     -0.1231
    137  CA        -8.0780  -19.4050  -32.1390 C.3   234  GLU234      0.1699
    138  C         -6.7540  -20.1520  -32.2920 C.2   234  GLU234      0.2592
    139  O         -6.0410  -19.9120  -33.2620 O.2   234  GLU234     -0.2718
    140  CB        -7.7460  -18.0370  -31.4850 C.3   234  GLU234      0.0402
    141  CG        -8.9050  -16.9920  -31.4140 C.3   234  GLU234      0.1161
    142  CD        -9.1810  -16.3050  -32.7440 C.2   234  GLU234      0.3649
    143  OE1       -8.4030  -16.4610  -33.7100 O.co2 234  GLU234     -0.2457
    144  OE2      -10.2060  -15.5910  -32.8300 O.co2 234  GLU234     -0.2457
    145  N         -6.4120  -20.9590  -31.2750 N.am  235  THR235     -0.1953
    146  CA        -5.2310  -21.7940  -31.2800 C.3   235  THR235      0.1897
    147  C         -5.3330  -22.7530  -32.4720 C.2   235  THR235      0.2313
    148  O         -4.4810  -22.7460  -33.3730 O.2   235  THR235     -0.2863
    149  CB        -5.0690  -22.6270  -29.9690 C.3   235  THR235      0.1794
    150  OG1       -6.2370  -23.3960  -29.7400 O.3   235  THR235     -0.2208
    151  CG2       -4.8890  -21.7830  -28.8200 C.3   235  THR235      0.0378
    152  N          0.0510  -20.0280  -30.2640 N.3   278  VAL278     -0.1245
    153  CA         0.2260  -19.3510  -28.9730 C.3   278  VAL278      0.1561
    154  C          1.5560  -18.6210  -28.9610 C.2   278  VAL278      0.2260
    155  O          2.5830  -19.2270  -28.7000 O.2   278  VAL278     -0.2867
    156  CB         0.2210  -20.3110  -27.7900 C.3   278  VAL278      0.0252
    157  CG1        0.5820  -19.5300  -26.4720 C.3   278  VAL278      0.0019
    158  CG2       -1.1370  -21.0560  -27.6750 C.3   278  VAL278      0.0019
    159  N          2.4240  -16.0040  -26.8690 N.3   280  SER280     -0.1217
    160  CA         2.7210  -15.9290  -25.4340 C.3   280  SER280      0.1889
    161  C          1.6640  -16.6620  -24.6370 C.2   280  SER280      0.2288
    162  O          0.4590  -16.5170  -24.8850 O.2   280  SER280     -0.2866
    163  CB         2.7170  -14.4910  -24.9200 C.3   280  SER280      0.2089
    164  OG         3.6450  -13.6830  -25.5970 O.3   280  SER280     -0.2183
    165  N         -0.7040  -17.7930  -21.3970 N.3   282  THR282     -0.1218
    166  CA        -1.6640  -16.9950  -20.7040 C.3   282  THR282      0.1862
    167  C         -1.0850  -16.4660  -19.3850 C.2   282  THR282      0.2287
    168  O         -0.0810  -16.9810  -18.8520 O.2   282  THR282     -0.2866
    169  CB        -3.0350  -17.7740  -20.5030 C.3   282  THR282      0.1770
    170  OG1       -2.8980  -18.7740  -19.4780 O.3   282  THR282     -0.2211
    171  CG2       -3.4410  -18.4540  -21.7970 C.3   282  THR282      0.0375
    172  N         -2.0610   -8.8550  -31.5270 N.3   380  ASN380     -0.1240
    173  CA        -2.0490   -9.4290  -30.1780 C.3   380  ASN380      0.1653
    174  C         -1.0090  -10.4890  -29.8960 C.2   380  ASN380      0.2266
    175  O         -1.2920  -11.6760  -30.1380 O.2   380  ASN380     -0.2867
    176  CB        -3.4590   -9.9070  -29.7130 C.3   380  ASN380      0.1155
    177  CG        -3.6330   -9.8760  -28.1430 C.2   380  ASN380      0.2627
    178  OD1       -2.6510   -9.7320  -27.3840 O.2   380  ASN380     -0.2716
    179  ND2       -4.8890  -10.0250  -27.6700 N.am  380  ASN380     -0.0877
    180  N         -0.2340  -12.4120  -27.8420 N.3   382  MET382     -0.1230
    181  CA        -0.6890  -13.7000  -27.3310 C.3   382  MET382      0.1702
    182  C         -0.9620  -14.7410  -28.4500 C.2   382  MET382      0.2592
    183  O         -0.6040  -15.9080  -28.3120 O.2   382  MET382     -0.2718
    184  CB        -1.9550  -13.5590  -26.4950 C.3   382  MET382      0.0401
    185  CG        -1.7710  -13.0290  -25.0610 C.3   382  MET382      0.0596
    186  SD        -2.6770  -14.1430  -23.9240 S.3   382  MET382     -0.1393
    187  CE        -3.8110  -14.8810  -25.0410 C.3   382  MET382      0.0692
    188  N         -1.6370  -14.3150  -29.5180 N.am  383  ILE383     -0.1980
    189  CA        -1.8720  -15.2080  -30.6560 C.3   383  ILE383      0.1595
    190  C         -1.1550  -14.7090  -31.9020 C.2   383  ILE383      0.2287
    191  O         -1.1490  -13.4930  -32.1770 O.2   383  ILE383     -0.2864
    192  CB        -3.3620  -15.4050  -30.9280 C.3   383  ILE383      0.0276
    193  CG1       -4.0390  -16.0030  -29.7090 C.3   383  ILE383      0.0022
    194  CG2       -3.6090  -16.3280  -32.1180 C.3   383  ILE383      0.0022
    195  CD1       -3.8340  -17.4770  -29.5620 C.3   383  ILE383      0.0001
@<TRIPOS>BOND
     1   143   142   ar
     2   148   147    2
     3   139   138    2
     4   144   142   ar
     5   142   141    1
     6   147   146    1
     7   138   137    1
     8   138   145   am
     9   191   190    2
    10   137   140    1
    11   137   136    1
    12   194   192    1
    13   190   189    1
    14    79    77    1
    15   172   173    1
    16   140   141    1
    17   146   145    1
    18   146   149    1
    19   192   189    1
    20   192   193    1
    21    75    76    2
    22    75    74    1
    23   189   188    1
    24    97    95    1
    25    77    74    1
    26    77    78    1
    27    73    74    1
    28   152   153    1
    29   173   174    1
    30   173   176    1
    31   175   174    2
    32   149   150    1
    33   149   151    1
    34    93    94    2
    35    93    92    1
    36    95    92    1
    37    95    96    1
    38   176   177    1
    39   193   195    1
    40   188   182   am
    41    92    91    1
    42   153   154    1
    43   153   156    1
    44   154   155    2
    45    91    82   am
    46   182   183    2
    47   182   181    1
    48    80    81    1
    49   177   179   am
    50   177   178    2
    51   180   181    1
    52   156   158    1
    53   156   157    1
    54    82    81    1
    55    82    83    2
    56   127   126    2
    57   181   184    1
    58    81    84    1
    59   134   133    2
    60   159   160    1
    61   133   132    1
    62    84    85    1
    63   126   125    1
    64   126   131   am
    65   184   185    1
    66   125   124    1
    67   125   128    1
    68    87    85   ar
    69    87    89   ar
    70    85    86   ar
    71    89    90   ar
    72    86    88   ar
    73   128   129    1
    74   128   130    1
    75    90    88   ar
    76   164   163    1
    77   131   132    1
    78   132   135    1
    79   160   163    1
    80   160   161    1
    81   185   186    1
    82   187   186    1
    83   162   161    2
    84    98    99    1
    85   109   108    2
    86   119   118    2
    87    99   100    1
    88    99   102    1
    89   118   117    1
    90   100   101    2
    91   108   107    1
    92   108   116   am
    93   114   112   ar
    94   114   115   ar
    95   103   102    1
    96   103   104    1
    97   112   111   ar
    98   105   104    1
    99   107   106    1
   100   107   110    1
   101   171   169    1
   102   117   116    1
   103   117   120    1
   104   165   166    1
   105   115   113   ar
   106   111   110    1
   107   111   113   ar
   108   123   121    1
   109   166   169    1
   110   166   167    1
   111    63    61    1
   112   121   120    1
   113   169   170    1
   114    38    37    1
   115   120   122    1
   116    39    37    1
   117   167   168    2
   118    31    29   ar
   119    37    36    1
   120    61    62    1
   121    61    60    1
   122    36    33    1
   123    28    29    1
   124    28    27    1
   125    60    57    1
   126    29    30   ar
   127    23    24    1
   128    72    70   ar
   129    24    27    1
   130    24    25    1
   131    54    53    2
   132    55    53   am
   133    35    34    2
   134    71    70   ar
   135    33    34    1
   136    33    32    1
   137    53    52    1
   138    57    56    1
   139    57    58    1
   140    70    69    1
   141    52    49    1
   142    34    40   am
   143    69    68    1
   144    12    14   ar
   145    12    10   ar
   146    26    25    2
   147    58    59    2
   148    58    64   am
   149    14    13   ar
   150    64    65    1
   151    40    41    1
   152    49    50    1
   153    49    48    1
   154    10     9   ar
   155    10     8   ar
   156    68    65    1
   157     9     7   ar
   158    41    44    1
   159    41    42    1
   160    50    51    2
   161    22    20    1
   162    13    11   ar
   163    65    66    1
   164    44    45    1
   165    42    43    2
   166     8    11   ar
   167     8     6   ar
   168     7     6   ar
   169    17    16    1
   170    17    18    2
   171    16    19    1
   172    16    15    1
   173    20    21    1
   174    20    19    1
   175    66    67    2
   176     6     5    1
   177    45    46    2
   178    45    47   am
   179     5     2    1
   180     2     1    1
   181     2     3    1
   182     3     4    2
