@<TRIPOS>MOLECULE
tmp/3zk6A01.pdb
 87 84 0 0 0
SMALL
GASTEIGER

@<TRIPOS>ATOM
      1  N         23.2880   39.5210  -10.0960 N.3    40  ALA40      -0.1245
      2  CA        22.8650   40.3160   -8.9430 C.3    40  ALA40       0.1562
      3  C         23.7690   41.5390   -8.7400 C.2    40  ALA40       0.2260
      4  O         23.2970   42.6790   -8.6470 O.2    40  ALA40      -0.2867
      5  CB        22.8280   39.4470   -7.6750 C.3    40  ALA40       0.0290
      6  N         23.2280   44.1130  -11.4230 N.3    43  GLU43      -0.1231
      7  CA        21.9590   44.8130  -11.2600 C.3    43  GLU43       0.1699
      8  C         22.0550   45.8250  -10.1400 C.2    43  GLU43       0.2592
      9  O         21.5520   46.9410  -10.2580 O.2    43  GLU43      -0.2718
     10  CB        20.8260   43.8310  -10.9760 C.3    43  GLU43       0.0402
     11  CG        19.4290   44.4060  -11.2380 C.3    43  GLU43       0.1161
     12  CD        19.1110   44.6620  -12.7340 C.2    43  GLU43       0.3649
     13  OE1       20.0260   44.6450  -13.5950 O.co2  43  GLU43      -0.2457
     14  OE2       17.9180   44.8830  -13.0510 O.co2  43  GLU43      -0.2457
     15  N         22.7060   45.4320   -9.0510 N.am   44  PHE44      -0.1976
     16  CA        22.9550   46.3580   -7.9600 C.3    44  PHE44       0.1639
     17  C         23.7810   47.5720   -8.4140 C.2    44  PHE44       0.2290
     18  O         23.4740   48.7030   -8.0580 O.2    44  PHE44      -0.2864
     19  CB        23.6500   45.6610   -6.7730 C.3    44  PHE44       0.0560
     20  CG        23.9860   46.6070   -5.6450 C.ar   44  PHE44      -0.0200
     21  CD1       22.9830   47.1100   -4.8230 C.ar   44  PHE44      -0.0042
     22  CD2       25.2940   47.0360   -5.4420 C.ar   44  PHE44      -0.0042
     23  CE1       23.2810   47.9980   -3.8140 C.ar   44  PHE44      -0.0003
     24  CE2       25.5950   47.9260   -4.4350 C.ar   44  PHE44      -0.0003
     25  CZ        24.5890   48.4110   -3.6240 C.ar   44  PHE44      -0.0000
     26  N         21.1840   50.4830   -8.4530 N.3    48  TYR48      -0.1241
     27  CA        21.1130   50.8960   -7.0400 C.3    48  TYR48       0.1605
     28  C         22.3300   51.5400   -6.3420 C.2    48  TYR48       0.2264
     29  O         22.1610   52.5070   -5.6040 O.2    48  TYR48      -0.2867
     30  CB        20.6230   49.7280   -6.1890 C.3    48  TYR48       0.0534
     31  CG        19.4220   49.0160   -6.7670 C.ar   48  TYR48      -0.0201
     32  CD1       18.1470   49.5670   -6.6750 C.ar   48  TYR48      -0.0009
     33  CD2       19.5610   47.7860   -7.4050 C.ar   48  TYR48      -0.0009
     34  CE1       17.0420   48.9110   -7.2060 C.ar   48  TYR48       0.0417
     35  CE2       18.4620   47.1220   -7.9370 C.ar   48  TYR48       0.0417
     36  CZ        17.2080   47.6890   -7.8350 C.ar   48  TYR48       0.1957
     37  OH        16.1230   47.0250   -8.3610 O.3    48  TYR48      -0.2866
     38  N         24.3200   53.6390   -6.8110 N.3    50  ARG50      -0.1231
     39  CA        24.3210   55.0960   -6.9920 C.3    50  ARG50       0.1694
     40  C         23.6880   55.8070   -5.7890 C.2    50  ARG50       0.2592
     41  O         24.0180   56.9530   -5.4700 O.2    50  ARG50      -0.2718
     42  CB        23.5480   55.4470   -8.2840 C.3    50  ARG50       0.0321
     43  CG        23.9010   56.7770   -8.9730 C.3    50  ARG50       0.0489
     44  CD        23.0540   56.9790  -10.2490 C.3    50  ARG50       0.2205
     45  NE        23.4360   58.1540  -11.0460 N.pl3  50  ARG50      -0.0865
     46  CZ        22.9320   58.4480  -12.2470 C.cat  50  ARG50       0.5346
     47  NH1       22.0230   57.6530  -12.7970 N.pl3  50  ARG50       0.1354
     48  NH2       23.3330   59.5350  -12.9050 N.pl3  50  ARG50       0.1354
     49  N         22.7750   55.1170   -5.1210 N.am   51  ALA51      -0.1966
     50  CA        22.0060   55.7180   -4.0460 C.3    51  ALA51       0.1728
     51  C         22.7980   55.7540   -2.7460 C.2    51  ALA51       0.2616
     52  O         22.6080   56.6570   -1.9310 O.2    51  ALA51      -0.2715
     53  CB        20.6980   54.9590   -3.8500 C.3    51  ALA51       0.0334
     54  N         23.6860   54.7760   -2.5580 N.am   52  PHE52      -0.1974
     55  CA        24.4050   54.6010   -1.2890 C.3    52  PHE52       0.1639
     56  C         25.6920   55.4230   -1.0970 C.2    52  PHE52       0.2290
     57  O         26.3710   55.7980   -2.0590 O.2    52  PHE52      -0.2864
     58  CB        24.6720   53.1090   -1.0390 C.3    52  PHE52       0.0560
     59  CG        23.4250   52.3210   -0.8510 C.ar   52  PHE52      -0.0200
     60  CD1       22.7300   52.3890    0.3440 C.ar   52  PHE52      -0.0042
     61  CD2       22.9090   51.5620   -1.8840 C.ar   52  PHE52      -0.0042
     62  CE1       21.5510   51.6830    0.5150 C.ar   52  PHE52      -0.0003
     63  CE2       21.7360   50.8510   -1.7210 C.ar   52  PHE52      -0.0003
     64  CZ        21.0520   50.9100   -0.5220 C.ar   52  PHE52      -0.0000
     65  N         20.3740   41.2770   -0.4070 N.3    85  GLY85      -0.1225
     66  CA        20.8350   42.4480   -1.1330 C.3    85  GLY85       0.1811
     67  C         22.1070   43.0280   -0.5410 C.2    85  GLY85       0.2280
     68  O         22.9840   43.5120   -1.2570 O.2    85  GLY85      -0.2866
     69  N         24.9430   40.9510   -1.7130 N.3    88  VAL88      -0.1245
     70  CA        25.2720   41.3430   -3.0770 C.3    88  VAL88       0.1561
     71  C         26.1640   42.5860   -3.0570 C.2    88  VAL88       0.2260
     72  O         27.2260   42.6130   -3.6900 O.2    88  VAL88      -0.2867
     73  CB        24.0120   41.6570   -3.8610 C.3    88  VAL88       0.0252
     74  CG1       24.3790   42.2980   -5.1660 C.3    88  VAL88       0.0019
     75  CG2       23.1890   40.3820   -4.0720 C.3    88  VAL88       0.0019
     76  N         16.8600   35.0170   -7.0060 N.3   142  TYR142     -0.1241
     77  CA        17.5010   36.0070   -7.8840 C.3   142  TYR142      0.1605
     78  C         18.0270   35.4810   -9.2320 C.2   142  TYR142      0.2264
     79  O         18.8060   36.1600   -9.9090 O.2   142  TYR142     -0.2867
     80  CB        18.6010   36.7700   -7.1250 C.3   142  TYR142      0.0534
     81  CG        18.0990   37.4640   -5.8750 C.ar  142  TYR142     -0.0201
     82  CD1       17.4320   38.6740   -5.9490 C.ar  142  TYR142     -0.0009
     83  CD2       18.2690   36.8950   -4.6270 C.ar  142  TYR142     -0.0009
     84  CE1       16.9550   39.3000   -4.8100 C.ar  142  TYR142      0.0417
     85  CE2       17.8020   37.5170   -3.4840 C.ar  142  TYR142      0.0417
     86  CZ        17.1430   38.7200   -3.5830 C.ar  142  TYR142      0.1957
     87  OH        16.6700   39.3480   -2.4490 O.3   142  TYR142     -0.2866
@<TRIPOS>BOND
     1    13    12   ar
     2    14    12   ar
     3    48    46    1
     4    47    46    1
     5    12    11    1
     6    46    45    2
     7     6     7    1
     8     7    10    1
     9     7     8    1
    10    11    10    1
    11    45    44    1
    12     9     8    2
    13    44    43    1
    14     8    15   am
    15     1     2    1
    16    79    78    2
    17    78    77    1
    18    15    16    1
    19    43    42    1
    20     2     3    1
    21     2     5    1
    22     3     4    2
    23    26    27    1
    24    17    18    2
    25    17    16    1
    26    37    36    1
    27    42    39    1
    28    16    19    1
    29    35    36   ar
    30    35    33   ar
    31    77    80    1
    32    77    76    1
    33    36    34   ar
    34    33    31   ar
    35    34    32   ar
    36    80    81    1
    37    27    28    1
    38    27    30    1
    39    39    38    1
    40    39    40    1
    41    19    20    1
    42    31    32   ar
    43    31    30    1
    44    28    29    2
    45    82    81   ar
    46    82    84   ar
    47    81    83   ar
    48    40    41    2
    49    40    49   am
    50    20    22   ar
    51    20    21   ar
    52    22    24   ar
    53    74    73    1
    54    49    50    1
    55    21    23   ar
    56    84    86   ar
    57    83    85   ar
    58    24    25   ar
    59    75    73    1
    60    50    53    1
    61    50    51    1
    62    73    70    1
    63    23    25   ar
    64    72    71    2
    65    86    85   ar
    66    86    87    1
    67    70    71    1
    68    70    69    1
    69    51    54   am
    70    51    52    2
    71    54    55    1
    72    57    56    2
    73    61    63   ar
    74    61    59   ar
    75    63    64   ar
    76    55    56    1
    77    55    58    1
    78    68    67    2
    79    66    67    1
    80    66    65    1
    81    58    59    1
    82    59    60   ar
    83    64    62   ar
    84    60    62   ar
