@<TRIPOS>MOLECULE
tmp/3zk6A00.pdb
 129 123 0 0 0
SMALL
GASTEIGER

@<TRIPOS>ATOM
      1  N         22.7060   45.4320   -9.0510 N.3    44  PHE44      -0.1241
      2  CA        22.9550   46.3580   -7.9600 C.3    44  PHE44       0.1605
      3  C         23.7810   47.5720   -8.4140 C.2    44  PHE44       0.2264
      4  O         23.4740   48.7030   -8.0580 O.2    44  PHE44      -0.2867
      5  CB        23.6500   45.6610   -6.7730 C.3    44  PHE44       0.0534
      6  CG        23.9860   46.6070   -5.6450 C.ar   44  PHE44      -0.0203
      7  CD1       22.9830   47.1100   -4.8230 C.ar   44  PHE44      -0.0042
      8  CD2       25.2940   47.0360   -5.4420 C.ar   44  PHE44      -0.0042
      9  CE1       23.2810   47.9980   -3.8140 C.ar   44  PHE44      -0.0003
     10  CE2       25.5950   47.9260   -4.4350 C.ar   44  PHE44      -0.0003
     11  CZ        24.5890   48.4110   -3.6240 C.ar   44  PHE44      -0.0000
     12  N         23.5330   51.0000   -6.5380 N.3    49  ARG49      -0.1245
     13  CA        24.7430   51.4550   -5.8230 C.3    49  ARG49       0.1563
     14  C         24.8920   52.9840   -5.7930 C.2    49  ARG49       0.2260
     15  O         25.4900   53.5370   -4.8630 O.2    49  ARG49      -0.2867
     16  CB        25.9890   50.7860   -6.4330 C.3    49  ARG49       0.0307
     17  CG        27.3310   51.2670   -5.9080 C.3    49  ARG49       0.0489
     18  CD        28.3300   51.4220   -7.0620 C.3    49  ARG49       0.2205
     19  NE        29.0470   50.1830   -7.3610 N.pl3  49  ARG49      -0.0865
     20  CZ        29.8100   49.9940   -8.4350 C.cat  49  ARG49       0.5346
     21  NH1       29.9480   50.9590   -9.3380 N.pl3  49  ARG49       0.1354
     22  NH2       30.4320   48.8350   -8.6100 N.pl3  49  ARG49       0.1354
     23  N         23.6860   54.7760   -2.5580 N.3    52  PHE52      -0.1227
     24  CA        24.4050   54.6010   -1.2890 C.3    52  PHE52       0.1736
     25  C         25.6920   55.4230   -1.0970 C.2    52  PHE52       0.2596
     26  O         26.3710   55.7980   -2.0590 O.2    52  PHE52      -0.2718
     27  CB        24.6720   53.1090   -1.0390 C.3    52  PHE52       0.0547
     28  CG        23.4250   52.3210   -0.8510 C.ar   52  PHE52      -0.0202
     29  CD1       22.7300   52.3890    0.3440 C.ar   52  PHE52      -0.0042
     30  CD2       22.9090   51.5620   -1.8840 C.ar   52  PHE52      -0.0042
     31  CE1       21.5510   51.6830    0.5150 C.ar   52  PHE52      -0.0003
     32  CE2       21.7360   50.8510   -1.7210 C.ar   52  PHE52      -0.0003
     33  CZ        21.0520   50.9100   -0.5220 C.ar   52  PHE52      -0.0000
     34  N         26.0060   55.6950    0.1660 N.am   53  SER53      -0.1938
     35  CA        27.2600   56.3280    0.5520 C.3    53  SER53       0.2055
     36  C         28.4390   55.5780   -0.0470 C.2    53  SER53       0.2643
     37  O         28.4890   54.3510    0.0110 O.2    53  SER53      -0.2714
     38  CB        27.3860   56.3310    2.0770 C.3    53  SER53       0.2130
     39  OG        28.6930   56.7010    2.4850 O.3    53  SER53      -0.2179
     40  N         29.3850   56.3030   -0.6320 N.am   54  ASP54      -0.1957
     41  CA        30.5420   55.6390   -1.2090 C.3    54  ASP54       0.1840
     42  C         31.4060   55.1000   -0.0830 C.2    54  ASP54       0.2622
     43  O         32.1610   55.8500    0.5380 O.2    54  ASP54      -0.2715
     44  CB        31.3450   56.5930   -2.0880 C.3    54  ASP54       0.1450
     45  CG        32.1690   55.8620   -3.1270 C.2    54  ASP54       0.3671
     46  OD1       32.2330   54.6130   -3.0480 O.co2  54  ASP54      -0.2456
     47  OD2       32.7490   56.5300   -4.0130 O.co2  54  ASP54      -0.2456
     48  N         31.2670   53.8050    0.1970 N.am   55  LEU55      -0.1963
     49  CA        32.0390   53.1580    1.2580 C.3    55  LEU55       0.1728
     50  C         33.4920   53.0470    0.8570 C.2    55  LEU55       0.2616
     51  O         34.3630   52.8330    1.7020 O.2    55  LEU55      -0.2715
     52  CB        31.5040   51.7720    1.5600 C.3    55  LEU55       0.0311
     53  CG        30.2900   51.7500    2.4720 C.3    55  LEU55       0.0022
     54  CD1       29.8150   50.3130    2.7050 C.3    55  LEU55       0.0001
     55  CD2       30.6610   52.4220    3.7760 C.3    55  LEU55       0.0001
     56  N         33.7530   53.1900   -0.4390 N.am   56  THR56      -0.1951
     57  CA        35.1270   53.2650   -0.9020 C.3    56  THR56       0.1897
     58  C         35.7330   54.5960   -0.4800 C.2    56  THR56       0.2313
     59  O         36.9470   54.7020   -0.3530 O.2    56  THR56      -0.2863
     60  CB        35.2630   53.0630   -2.4290 C.3    56  THR56       0.1794
     61  OG1       34.8260   54.2390   -3.1180 O.3    56  THR56      -0.2208
     62  CG2       34.4480   51.8700   -2.8770 C.3    56  THR56       0.0378
     63  N         29.2600   48.5820    8.0110 N.3    76  GLU76      -0.1231
     64  CA        28.2830   49.6280    7.7250 C.3    76  GLU76       0.1699
     65  C         27.1830   49.1630    6.7790 C.2    76  GLU76       0.2592
     66  O         26.1170   49.7690    6.7250 O.2    76  GLU76      -0.2718
     67  CB        28.9670   50.8730    7.1610 C.3    76  GLU76       0.0402
     68  CG        29.6660   51.6950    8.2280 C.3    76  GLU76       0.1161
     69  CD        30.2820   52.9630    7.6770 C.2    76  GLU76       0.3649
     70  OE1       29.5310   53.8020    7.1300 O.co2  76  GLU76      -0.2457
     71  OE2       31.5180   53.1170    7.7920 O.co2  76  GLU76      -0.2457
     72  N         27.4560   48.0970    6.0330 N.am   77  LEU77      -0.1980
     73  CA        26.4680   47.4560    5.1760 C.3    77  LEU77       0.1596
     74  C         25.5250   46.5830    5.9830 C.2    77  LEU77       0.2287
     75  O         24.4960   46.1390    5.4760 O.2    77  LEU77      -0.2864
     76  CB        27.1670   46.5430    4.1890 C.3    77  LEU77       0.0297
     77  CG        27.7990   47.1140    2.9360 C.3    77  LEU77       0.0022
     78  CD1       28.5830   46.0070    2.2390 C.3    77  LEU77       0.0001
     79  CD2       26.6930   47.6040    2.0510 C.3    77  LEU77       0.0001
     80  N         20.9690   40.7060    4.9520 N.3    83  ASN83      -0.1240
     81  CA        19.9810   40.1610    4.0180 C.3    83  ASN83       0.1653
     82  C         20.6630   39.9370    2.6600 C.2    83  ASN83       0.2266
     83  O         21.8530   40.2670    2.4940 O.2    83  ASN83      -0.2867
     84  CB        18.7280   41.0390    3.8960 C.3    83  ASN83       0.1155
     85  CG        19.0050   42.4060    3.2700 C.2    83  ASN83       0.2627
     86  OD1       19.9990   42.6120    2.5660 O.2    83  ASN83      -0.2716
     87  ND2       18.1040   43.3490    3.5190 N.am   83  ASN83      -0.0877
     88  N         20.3740   41.2770   -0.4070 N.3    85  GLY85      -0.1210
     89  CA        20.8350   42.4480   -1.1330 C.3    85  GLY85       0.1956
     90  C         22.1070   43.0280   -0.5410 C.2    85  GLY85       0.2611
     91  O         22.9840   43.5120   -1.2570 O.2    85  GLY85      -0.2717
     92  N         22.2150   42.9880    0.7790 N.am   86  ARG86      -0.1979
     93  CA        23.3730   43.5640    1.4220 C.3    86  ARG86       0.1597
     94  C         24.5690   42.6770    1.1450 C.2    86  ARG86       0.2287
     95  O         25.7000   43.1460    1.0550 O.2    86  ARG86      -0.2864
     96  CB        23.1200   43.7340    2.9180 C.3    86  ARG86       0.0334
     97  CG        22.2340   44.9260    3.2240 C.3    86  ARG86       0.0492
     98  CD        21.7980   44.9390    4.6770 C.3    86  ARG86       0.2205
     99  NE        20.5430   45.6650    4.8320 N.pl3  86  ARG86      -0.0865
    100  CZ        19.8390   45.7180    5.9560 C.cat  86  ARG86       0.5346
    101  NH1       20.2640   45.0830    7.0390 N.pl3  86  ARG86       0.1354
    102  NH2       18.7050   46.4020    5.9940 N.pl3  86  ARG86       0.1354
    103  N         25.7330   43.5920   -2.2950 N.3    89  ALA89      -0.1245
    104  CA        26.4670   44.8450   -2.1320 C.3    89  ALA89       0.1562
    105  C         27.8750   44.6120   -1.5810 C.2    89  ALA89       0.2260
    106  O         28.8390   45.2510   -2.0010 O.2    89  ALA89      -0.2867
    107  CB        25.6940   45.7880   -1.2140 C.3    89  ALA89       0.0290
    108  N         29.8680   43.4650   -4.4960 N.3    92  SER92      -0.1202
    109  CA        30.1000   44.7140   -5.2130 C.3    92  SER92       0.2020
    110  C         31.2300   45.5240   -4.6040 C.2    92  SER92       0.2618
    111  O         32.1680   45.9330   -5.3010 O.2    92  SER92      -0.2717
    112  CB        28.8450   45.5670   -5.2050 C.3    92  SER92       0.2103
    113  OG        28.2420   45.5350   -6.4780 O.3    92  SER92      -0.2182
    114  N         31.1280   45.7500   -3.2990 N.am   93  PHE93      -0.1975
    115  CA        32.1230   46.5160   -2.5690 C.3    93  PHE93       0.1639
    116  C         33.5330   45.9690   -2.7920 C.2    93  PHE93       0.2290
    117  O         34.4370   46.7130   -3.1840 O.2    93  PHE93      -0.2864
    118  CB        31.7740   46.5930   -1.0780 C.3    93  PHE93       0.0560
    119  CG        32.6910   47.4820   -0.3020 C.ar   93  PHE93      -0.0200
    120  CD1       32.8430   48.8130   -0.6590 C.ar   93  PHE93      -0.0042
    121  CD2       33.4210   46.9870    0.7770 C.ar   93  PHE93      -0.0042
    122  CE1       33.7120   49.6430    0.0450 C.ar   93  PHE93      -0.0003
    123  CE2       34.2990   47.8080    1.4960 C.ar   93  PHE93      -0.0003
    124  CZ        34.4440   49.1350    1.1340 C.ar   93  PHE93      -0.0000
    125  N         34.7940   46.5740   -6.2520 N.3    96  ALA96      -0.1245
    126  CA        35.1810   47.9810   -6.3120 C.3    96  ALA96       0.1562
    127  C         36.5850   48.1990   -5.7790 C.2    96  ALA96       0.2260
    128  O         37.4160   48.8180   -6.4450 O.2    96  ALA96      -0.2867
    129  CB        34.1980   48.8260   -5.5540 C.3    96  ALA96       0.0290
@<TRIPOS>BOND
     1    21    20    1
     2     1     2    1
     3    22    20    1
     4    20    19    2
     5     3     4    2
     6     3     2    1
     7     2     5    1
     8    19    18    1
     9    18    17    1
    10     5     6    1
    11    12    13    1
    12   113   112    1
    13   128   127    2
    14    16    17    1
    15    16    13    1
    16   126   125    1
    17   126   127    1
    18   126   129    1
    19    13    14    1
    20    14    15    2
    21     6     8   ar
    22     6     7   ar
    23     8    10   ar
    24   111   110    2
    25   109   112    1
    26   109   110    1
    27   109   108    1
    28     7     9   ar
    29   110   114   am
    30    10    11   ar
    31    47    45   ar
    32     9    11   ar
    33   114   115    1
    34   117   116    2
    35    45    46   ar
    36    45    44    1
    37    61    60    1
    38    62    60    1
    39   116   115    1
    40   115   118    1
    41    23    24    1
    42    60    57    1
    43   103   104    1
    44   104   105    1
    45   104   107    1
    46    44    41    1
    47    26    25    2
    48   106   105    2
    49    30    32   ar
    50    30    28   ar
    51    32    33   ar
    52    24    25    1
    53    24    27    1
    54    91    90    2
    55    41    40    1
    56    41    42    1
    57    89    90    1
    58    89    88    1
    59    25    34   am
    60   118   119    1
    61    27    28    1
    62    57    58    1
    63    57    56    1
    64    28    29   ar
    65   120   119   ar
    66   120   122   ar
    67    40    36   am
    68    90    92   am
    69    33    31   ar
    70    58    59    2
    71    56    50   am
    72   119   121   ar
    73    42    48   am
    74    42    43    2
    75    36    37    2
    76    36    35    1
    77   122   124   ar
    78    34    35    1
    79    48    49    1
    80    29    31   ar
    81    35    38    1
    82   121   123   ar
    83    92    93    1
    84    50    49    1
    85    50    51    2
    86    95    94    2
    87   124   123   ar
    88    94    93    1
    89    49    52    1
    90    93    96    1
    91    52    53    1
    92    79    77    1
    93    38    39    1
    94    78    77    1
    95    53    54    1
    96    53    55    1
    97    83    82    2
    98    86    85    2
    99    82    81    1
   100    96    97    1
   101    77    76    1
   102    97    98    1
   103    85    87   am
   104    85    84    1
   105    84    81    1
   106    81    80    1
   107    76    73    1
   108    98    99    1
   109    99   100    2
   110    73    74    1
   111    73    72    1
   112    75    74    2
   113   100   102    1
   114   100   101    1
   115    72    65   am
   116    66    65    2
   117    65    64    1
   118    70    69   ar
   119    67    64    1
   120    67    68    1
   121    69    71   ar
   122    69    68    1
   123    64    63    1
