@<TRIPOS>MOLECULE
tmp/3zk7A01.pdb
 110 105 0 0 0
SMALL
GASTEIGER

@<TRIPOS>ATOM
      1  N         -3.5080   -7.8930   28.7790 N.3    34  ASP34      -0.1225
      2  CA        -4.2640   -7.5630   29.9820 C.3    34  ASP34       0.1790
      3  C         -4.2290   -8.7500   30.9680 C.2    34  ASP34       0.2440
      4  O         -4.7990   -9.7890   30.6520 O.2    34  ASP34      -0.2733
      5  CB        -5.7050   -7.2230   29.5780 C.3    34  ASP34       0.1423
      6  CG        -6.5180   -6.5850   30.6980 C.2    34  ASP34       0.3668
      7  OD1       -6.1920   -6.8280   31.8910 O.co2  34  ASP34      -0.2456
      8  OD2       -7.5130   -5.9060   30.3860 O.co2  34  ASP34      -0.2456
      9  N         -3.5900   -8.5970   32.1500 N.am   35  PRO35      -0.2718
     10  CA        -3.4650   -9.7310   33.0890 C.3    35  PRO35       0.1535
     11  C         -4.6380   -9.9320   34.0160 C.2    35  PRO35       0.2598
     12  O         -4.6210  -10.8900   34.7960 O.2    35  PRO35      -0.2715
     13  CB        -2.2200   -9.3510   33.8830 C.3    35  PRO35       0.0310
     14  CG        -2.2850   -7.8850   33.9540 C.3    35  PRO35       0.0237
     15  CD        -2.9140   -7.4050   32.6920 C.3    35  PRO35       0.0939
     16  N         -5.6160   -9.0370   33.9620 N.am   36  HIS36      -0.1974
     17  CA        -6.7980   -9.1350   34.7810 C.3    36  HIS36       0.1656
     18  C         -7.8370   -9.9070   34.0040 C.2    36  HIS36       0.2291
     19  O         -8.4480  -10.8400   34.5380 O.2    36  HIS36      -0.2864
     20  CB        -7.2810   -7.7410   35.1700 C.3    36  HIS36       0.0771
     21  CG        -8.5580   -7.7690   35.9290 C.ar   36  HIS36       0.0820
     22  ND1       -8.6180   -8.2790   37.2140 N.ar   36  HIS36      -0.2267
     23  CD2       -9.7900   -7.3490   35.5620 C.ar   36  HIS36       0.1154
     24  CE1       -9.8840   -8.1510   37.5920 C.ar   36  HIS36       0.1986
     25  NE2      -10.6350   -7.6380   36.6080 N.ar   36  HIS36      -0.2212
     26  N         -5.6610   -9.8200   41.1380 N.3    61  LEU61      -0.1245
     27  CA        -5.3140   -9.5020   39.7680 C.3    61  LEU61       0.1561
     28  C         -5.9390  -10.5030   38.8130 C.2    61  LEU61       0.2260
     29  O         -6.6070  -10.1300   37.8690 O.2    61  LEU61      -0.2867
     30  CB        -3.8030   -9.4990   39.5670 C.3    61  LEU61       0.0270
     31  CG        -3.3480   -9.0040   38.2010 C.3    61  LEU61       0.0019
     32  CD1       -3.7760   -7.5610   37.9680 C.3    61  LEU61       0.0001
     33  CD2       -1.8490   -9.1300   38.0800 C.3    61  LEU61       0.0001
     34  N         -4.5880   -4.7190   43.3630 N.3   107  PRO107     -0.2102
     35  CA        -3.5910   -5.6900   42.8780 C.3   107  PRO107      0.1504
     36  C         -2.2160   -5.1520   42.4820 C.2   107  PRO107      0.2575
     37  O         -1.3430   -5.9740   42.3160 O.2   107  PRO107     -0.2718
     38  CB        -4.2510   -6.2770   41.6090 C.3   107  PRO107      0.0282
     39  CG        -5.1160   -5.1550   41.1110 C.3   107  PRO107      0.0208
     40  CD        -5.6790   -4.5470   42.3880 C.3   107  PRO107      0.0893
     41  N         -2.0730   -3.8320   42.3260 N.am  108  HIS108     -0.1976
     42  CA        -0.9180   -3.2130   41.6640 C.3   108  HIS108      0.1656
     43  C          0.2940   -2.9860   42.5350 C.2   108  HIS108      0.2291
     44  O          0.9020   -1.9050   42.4990 O.2   108  HIS108     -0.2864
     45  CB        -1.3200   -1.8710   41.0590 C.3   108  HIS108      0.0771
     46  CG        -2.5200   -1.9510   40.1800 C.ar  108  HIS108      0.0820
     47  ND1       -3.7510   -1.7480   40.6320 N.ar  108  HIS108     -0.2267
     48  CD2       -2.6390   -2.2540   38.8420 C.ar  108  HIS108      0.1154
     49  CE1       -4.6130   -1.8990   39.6380 C.ar  108  HIS108      0.1986
     50  NE2       -3.9300   -2.2020   38.5430 N.ar  108  HIS108     -0.2212
     51  N         -6.3340    5.6180   35.0430 N.3   174  GLU174     -0.1245
     52  CA        -6.8530    4.7060   36.0460 C.3   174  GLU174      0.1567
     53  C         -6.0820    4.9160   37.3360 C.2   174  GLU174      0.2260
     54  O         -4.9170    5.2280   37.2970 O.2   174  GLU174     -0.2867
     55  CB        -6.6790    3.2560   35.5840 C.3   174  GLU174      0.0388
     56  CG        -7.2890    2.2250   36.5220 C.3   174  GLU174      0.1160
     57  CD        -6.9190    0.7850   36.2050 C.2   174  GLU174      0.3649
     58  OE1       -6.1410    0.5330   35.2770 O.co2 174  GLU174     -0.2457
     59  OE2       -7.3920   -0.1070   36.9120 O.co2 174  GLU174     -0.2457
     60  N         -4.2820    3.2250   39.3460 N.3   176  ALA176     -0.1245
     61  CA        -3.5380    1.9850   39.4710 C.3   176  ALA176      0.1562
     62  C         -2.1770    2.1900   40.1210 C.2   176  ALA176      0.2260
     63  O         -1.4150    1.2620   40.2640 O.2   176  ALA176     -0.2867
     64  CB        -3.3460    1.3710   38.0970 C.3   176  ALA176      0.0290
     65  N        -10.0740    1.9620   39.9250 N.3   194  ILE194     -0.1231
     66  CA        -9.8870    0.5890   39.5620 C.3   194  ILE194      0.1692
     67  C        -11.2350   -0.1250   39.5720 C.2   194  ILE194      0.2592
     68  O        -12.0410    0.1140   40.4440 O.2   194  ILE194     -0.2718
     69  CB        -8.9510   -0.1020   40.5630 C.3   194  ILE194      0.0266
     70  CG1       -7.5140    0.3890   40.3820 C.3   194  ILE194      0.0019
     71  CG2       -9.0350   -1.6070   40.4020 C.3   194  ILE194      0.0020
     72  CD1       -6.6250    0.0740   41.5590 C.3   194  ILE194      0.0001
     73  N        -11.4520   -1.0120   38.6080 N.am  195  ASN195     -0.1974
     74  CA       -12.7390   -1.7370   38.4970 C.3   195  ASN195      0.1688
     75  C        -13.9400   -0.8060   38.3060 C.2   195  ASN195      0.2292
     76  O        -14.9980   -1.0680   38.8550 O.2   195  ASN195     -0.2864
     77  CB       -12.9650   -2.6220   39.7270 C.3   195  ASN195      0.1181
     78  CG       -12.0330   -3.8290   39.7720 C.2   195  ASN195      0.2629
     79  OD1      -11.5070   -4.2690   38.7530 O.2   195  ASN195     -0.2716
     80  ND2      -11.8240   -4.3620   40.9610 N.am  195  ASN195     -0.0877
     81  N        -15.2240    3.7630   31.5570 N.3   199  GLU199     -0.1245
     82  CA       -13.9290    4.4240   31.6180 C.3   199  GLU199      0.1567
     83  C        -13.8450    5.6460   30.7070 C.2   199  GLU199      0.2260
     84  O        -13.8830    5.5050   29.4920 O.2   199  GLU199     -0.2867
     85  CB       -12.8380    3.4300   31.2150 C.3   199  GLU199      0.0388
     86  CG       -12.7480    2.2340   32.1530 C.3   199  GLU199      0.1160
     87  CD       -11.7060    1.2100   31.7420 C.2   199  GLU199      0.3649
     88  OE1      -11.2760    1.2300   30.5650 O.co2 199  GLU199     -0.2457
     89  OE2      -11.3400    0.3610   32.5900 O.co2 199  GLU199     -0.2457
     90  N         -1.1100    1.3130   28.0170 N.3   225  SER225     -0.1217
     91  CA        -2.0640    0.2390   27.7570 C.3   225  SER225      0.1889
     92  C         -3.5340    0.6840   27.7610 C.2   225  SER225      0.2288
     93  O         -4.4310   -0.1380   27.7070 O.2   225  SER225     -0.2866
     94  CB        -1.8530   -0.9210   28.7380 C.3   225  SER225      0.2089
     95  OG        -2.1910   -0.6010   30.0810 O.3   225  SER225     -0.2183
     96  N          2.1630    0.1870   33.1830 N.3   248  THR248     -0.1203
     97  CA         1.3840   -0.2220   34.3270 C.3   248  THR248      0.1994
     98  C          1.6000   -1.6750   34.6600 C.2   248  THR248      0.2617
     99  O          2.1590   -1.9370   35.6460 O.2   248  THR248     -0.2717
    100  CB        -0.1180   -0.0380   34.1320 C.3   248  THR248      0.1784
    101  OG1       -0.5060   -0.6290   32.8970 O.3   248  THR248     -0.2211
    102  CG2       -0.4750    1.3950   34.1330 C.3   248  THR248      0.0376
    103  N          1.1310   -2.6130   33.8500 N.am  249  ASP249     -0.1973
    104  CA         1.1000   -4.0120   34.2780 C.3   249  ASP249      0.1709
    105  C          1.8230   -4.9550   33.3400 C.2   249  ASP249      0.2293
    106  O          1.5180   -6.1370   33.2540 O.2   249  ASP249     -0.2864
    107  CB        -0.3470   -4.4760   34.4640 C.3   249  ASP249      0.1436
    108  CG        -1.1660   -4.3000   33.2130 C.2   249  ASP249      0.3671
    109  OD1       -0.5670   -4.0460   32.1620 O.co2 249  ASP249     -0.2456
    110  OD2       -2.3910   -4.4040   33.2790 O.co2 249  ASP249     -0.2456
@<TRIPOS>BOND
     1    93    92    2
     2    91    92    1
     3    91    90    1
     4    91    94    1
     5    94    95    1
     6     1     2    1
     7    84    83    2
     8     5     2    1
     9     5     6    1
    10     2     3    1
    11     8     6   ar
    12    88    87   ar
    13     4     3    2
    14     6     7   ar
    15    83    82    1
    16     3     9   am
    17    85    82    1
    18    85    86    1
    19    81    82    1
    20    87    86    1
    21    87    89   ar
    22     9    15    1
    23     9    10    1
    24   109   108   ar
    25    15    14    1
    26   101   100    1
    27    10    13    1
    28    10    11    1
    29    96    97    1
    30   108   110   ar
    31   108   107    1
    32   106   105    2
    33   105   104    1
    34   103   104    1
    35   103    98   am
    36    13    14    1
    37    16    11   am
    38    16    17    1
    39    18    19    2
    40    18    17    1
    41    11    12    2
    42   100   102    1
    43   100    97    1
    44   104   107    1
    45    97    98    1
    46    98    99    2
    47    17    20    1
    48    51    52    1
    49    20    21    1
    50    58    57   ar
    51    23    21   ar
    52    23    25   ar
    53    55    52    1
    54    55    56    1
    55    21    22   ar
    56    52    53    1
    57    57    56    1
    58    57    59   ar
    59    25    24   ar
    60    22    24   ar
    61    54    53    2
    62    29    28    2
    63    32    31    1
    64    33    31    1
    65    64    61    1
    66    31    30    1
    67    75    74    1
    68    75    76    2
    69    74    73    1
    70    74    77    1
    71    50    48   ar
    72    50    49   ar
    73    73    67   am
    74    79    78    2
    75    28    27    1
    76    48    46   ar
    77    60    61    1
    78    61    62    1
    79    66    67    1
    80    66    65    1
    81    66    69    1
    82    30    27    1
    83    67    68    2
    84    49    47   ar
    85    77    78    1
    86    27    26    1
    87    78    80   am
    88    62    63    2
    89    46    47   ar
    90    46    45    1
    91    70    69    1
    92    70    72    1
    93    71    69    1
    94    45    42    1
    95    39    38    1
    96    39    40    1
    97    38    35    1
    98    42    41    1
    99    42    43    1
   100    37    36    2
   101    41    36   am
   102    40    34    1
   103    36    35    1
   104    44    43    2
   105    35    34    1
