@<TRIPOS>MOLECULE
tmp/3zkbD00.pdb
 206 197 0 0 0
SMALL
GASTEIGER

@<TRIPOS>ATOM
      1  N        -19.0880  -24.5460   20.3600 N.3    42  GLU42      -0.1231
      2  CA       -20.0660  -24.0560   19.3960 C.3    42  GLU42       0.1699
      3  C        -20.5530  -25.1300   18.4670 C.2    42  GLU42       0.2592
      4  O        -21.7580  -25.3030   18.3330 O.2    42  GLU42      -0.2718
      5  CB       -19.5630  -22.8230   18.6160 C.3    42  GLU42       0.0402
      6  CG       -19.3180  -21.5800   19.4650 C.3    42  GLU42       0.1161
      7  CD       -20.5030  -20.8660   20.0970 C.2    42  GLU42       0.3649
      8  OE1      -21.6040  -21.4570   20.1800 O.co2  42  GLU42      -0.2457
      9  OE2      -20.3140  -19.7080   20.5310 O.co2  42  GLU42      -0.2457
     10  N        -19.6400  -25.9010   17.8920 N.am   43  VAL43      -0.1980
     11  CA       -19.9970  -26.9720   16.9620 C.3    43  VAL43       0.1595
     12  C        -20.7170  -28.1420   17.6710 C.2    43  VAL43       0.2287
     13  O        -21.7680  -28.5830   17.1940 O.2    43  VAL43      -0.2864
     14  CB       -18.7870  -27.4260   16.1130 C.3    43  VAL43       0.0276
     15  CG1      -19.2280  -28.3700   15.0010 C.3    43  VAL43       0.0022
     16  CG2      -18.0850  -26.2110   15.5160 C.3    43  VAL43       0.0022
     17  N        -22.3060  -28.0520   20.5740 N.3    45  ASP45      -0.1225
     18  CA       -23.5300  -27.4890   21.1480 C.3    45  ASP45       0.1805
     19  C        -24.6930  -27.6460   20.1980 C.2    45  ASP45       0.2598
     20  O        -25.7690  -28.0660   20.6290 O.2    45  ASP45      -0.2718
     21  CB       -23.3370  -26.0190   21.5520 C.3    45  ASP45       0.1424
     22  CG       -22.6150  -25.7710   22.8820 C.2    45  ASP45       0.3668
     23  OD1      -22.3840  -26.7580   23.6370 O.co2  45  ASP45      -0.2456
     24  OD2      -22.2670  -24.5870   23.1650 O.co2  45  ASP45      -0.2456
     25  N        -24.4380  -27.3730   18.8890 N.am   46  ASN46      -0.1960
     26  CA       -25.3640  -27.4900   17.7560 C.3    46  ASN46       0.1819
     27  C        -25.7890  -28.9290   17.5600 C.2    46  ASN46       0.2621
     28  O        -26.9750  -29.1790   17.3610 O.2    46  ASN46      -0.2715
     29  CB       -24.6910  -27.0090   16.4870 C.3    46  ASN46       0.1195
     30  CG       -24.4930  -25.5280   16.3870 C.2    46  ASN46       0.2630
     31  OD1      -24.9890  -24.7480   17.2010 O.2    46  ASN46      -0.2716
     32  ND2      -23.8060  -25.1070   15.3350 N.am   46  ASN46      -0.0877
     33  N        -24.8190  -29.8720   17.6300 N.am   47  ALA47      -0.1977
     34  CA       -25.0710  -31.3120   17.5250 C.3    47  ALA47       0.1597
     35  C        -25.9000  -31.7940   18.7190 C.2    47  ALA47       0.2287
     36  O        -26.8830  -32.4920   18.5020 O.2    47  ALA47      -0.2864
     37  CB       -23.7630  -32.0790   17.4370 C.3    47  ALA47       0.0319
     38  N        -29.6720  -30.9910   18.7640 N.3    50  GLU50      -0.1245
     39  CA       -30.4120  -31.9300   17.9360 C.3    50  GLU50       0.1567
     40  C        -30.8320  -33.1610   18.7430 C.2    50  GLU50       0.2260
     41  O        -31.8480  -33.8000   18.4380 O.2    50  GLU50      -0.2867
     42  CB       -29.5810  -32.3230   16.7070 C.3    50  GLU50       0.0388
     43  CG       -29.7630  -31.3890   15.5170 C.3    50  GLU50       0.1160
     44  CD       -31.1050  -31.4130   14.7940 C.2    50  GLU50       0.3649
     45  OE1      -31.9240  -32.3310   15.0310 O.co2  50  GLU50      -0.2457
     46  OE2      -31.3410  -30.4920   13.9830 O.co2  50  GLU50      -0.2457
     47  N        -23.0410  -35.6540   14.0430 N.3    73  ASP73      -0.1239
     48  CA       -24.3060  -35.9850   14.6670 C.3    73  ASP73       0.1674
     49  C        -25.1630  -36.7110   13.6500 C.2    73  ASP73       0.2266
     50  O        -24.9840  -36.5130   12.4470 O.2    73  ASP73      -0.2867
     51  CB       -25.0320  -34.7250   15.1550 C.3    73  ASP73       0.1410
     52  CG       -25.4100  -33.7500   14.0550 C.2    73  ASP73       0.3668
     53  OD1      -26.3280  -34.0660   13.2670 O.co2  73  ASP73      -0.2456
     54  OD2      -24.8180  -32.6560   14.0100 O.co2  73  ASP73      -0.2456
     55  N        -29.9810  -32.6370   10.0230 N.3    77  GLY77      -0.1210
     56  CA       -29.1350  -32.0590    8.9970 C.3    77  GLY77       0.1956
     57  C        -29.3850  -30.5740    8.8600 C.2    77  GLY77       0.2612
     58  O        -30.5460  -30.1410    8.8540 O.2    77  GLY77      -0.2717
     59  N        -28.2920  -29.7810    8.7650 N.am   78  ILE78      -0.1966
     60  CA       -28.3600  -28.3390    8.5400 C.3    78  ILE78       0.1712
     61  C        -29.1530  -28.1750    7.2150 C.2    78  ILE78       0.2458
     62  O        -28.7510  -28.7620    6.1970 O.2    78  ILE78      -0.2730
     63  CB       -26.9340  -27.7340    8.4120 C.3    78  ILE78       0.0289
     64  CG1      -26.1490  -27.8450    9.7150 C.3    78  ILE78       0.0022
     65  CG2      -26.9710  -26.2860    7.9010 C.3    78  ILE78       0.0023
     66  CD1      -24.7370  -28.3090    9.5460 C.3    78  ILE78       0.0001
     67  N        -30.3000  -27.4500    7.2020 N.am   79  PRO79      -0.2727
     68  CA       -31.0580  -27.3180    5.9530 C.3    79  PRO79       0.1402
     69  C        -30.1740  -26.8930    4.7910 C.2    79  PRO79       0.2269
     70  O        -29.3060  -26.0390    4.9380 O.2    79  PRO79      -0.2865
     71  CB       -32.1600  -26.3270    6.3150 C.3    79  PRO79       0.0296
     72  CG       -32.3560  -26.5330    7.7780 C.3    79  PRO79       0.0237
     73  CD       -30.9600  -26.7050    8.2930 C.3    79  PRO79       0.0939
     74  N        -26.3510  -19.9440    7.4110 N.3    93  VAL93      -0.1245
     75  CA       -26.0610  -20.4930    8.7220 C.3    93  VAL93       0.1561
     76  C        -24.5500  -20.4640    9.0550 C.2    93  VAL93       0.2260
     77  O        -24.1890  -20.3370   10.2360 O.2    93  VAL93      -0.2867
     78  CB       -26.7110  -21.8920    8.7420 C.3    93  VAL93       0.0252
     79  CG1      -25.8950  -22.9310    9.4910 C.3    93  VAL93       0.0019
     80  CG2      -28.1400  -21.8090    9.2580 C.3    93  VAL93       0.0019
     81  N        -28.3180  -15.2280   12.3480 N.3    99  ALA99      -0.1231
     82  CA       -29.1640  -16.0520   11.4970 C.3    99  ALA99       0.1694
     83  C        -29.1410  -17.4860   12.0220 C.2    99  ALA99       0.2593
     84  O        -28.0630  -18.0390   12.2430 O.2    99  ALA99      -0.2718
     85  CB       -28.6710  -16.0050   10.0550 C.3    99  ALA99       0.0304
     86  N        -30.3220  -18.0590   12.2320 N.am  100  GLY100     -0.1942
     87  CA       -30.4790  -19.4220   12.7270 C.3   100  GLY100      0.2014
     88  C        -31.9290  -19.8360   12.8860 C.2   100  GLY100      0.2639
     89  O        -32.8400  -19.1080   12.4750 O.2   100  GLY100     -0.2714
     90  N        -32.1440  -21.0060   13.4750 N.am  101  GLY101     -0.1939
     91  CA       -33.4860  -21.5330   13.6970 C.3   101  GLY101      0.2014
     92  C        -33.8110  -21.7500   15.1570 C.2   101  GLY101      0.2639
     93  O        -34.5840  -22.6550   15.4860 O.2   101  GLY101     -0.2714
     94  N        -33.2210  -20.9230   16.0410 N.am  102  LYS102     -0.1963
     95  CA       -33.3650  -21.0410   17.4910 C.3   102  LYS102      0.1728
     96  C        -33.9180  -19.7740   18.1250 C.2   102  LYS102      0.2616
     97  O        -33.8850  -19.6250   19.3580 O.2   102  LYS102     -0.2715
     98  CB       -32.0180  -21.4450   18.1220 C.3   102  LYS102      0.0311
     99  CG       -31.7220  -22.9320   18.0010 C.3   102  LYS102      0.0038
    100  CD       -30.2510  -23.2030   17.8580 C.3   102  LYS102      0.0206
    101  CE       -29.9680  -24.6520   17.5820 C.3   102  LYS102      0.1093
    102  NZ       -28.5220  -24.9710   17.7270 N.3   102  LYS102     -0.1314
    103  N        -34.4320  -18.8660   17.2740 N.am  103  PHE103     -0.1974
    104  CA       -35.0550  -17.6070   17.6780 C.3   103  PHE103      0.1639
    105  C        -36.4960  -17.8400   18.1490 C.2   103  PHE103      0.2290
    106  O        -37.0030  -17.0670   18.9670 O.2   103  PHE103     -0.2864
    107  CB       -34.9730  -16.5570   16.5550 C.3   103  PHE103      0.0560
    108  CG       -33.5610  -16.1400   16.1990 C.ar  103  PHE103     -0.0200
    109  CD1      -32.6240  -15.8630   17.1940 C.ar  103  PHE103     -0.0042
    110  CD2      -33.1770  -15.9890   14.8740 C.ar  103  PHE103     -0.0042
    111  CE1      -31.3290  -15.4560   16.8670 C.ar  103  PHE103     -0.0003
    112  CE2      -31.8740  -15.5930   14.5480 C.ar  103  PHE103     -0.0003
    113  CZ       -30.9620  -15.3240   15.5470 C.ar  103  PHE103     -0.0000
    114  N        -36.4080  -26.1480   17.5060 N.3   108  TYR108     -0.1241
    115  CA       -35.7750  -26.6080   18.7350 C.3   108  TYR108      0.1605
    116  C        -36.5010  -25.9990   19.9300 C.2   108  TYR108      0.2264
    117  O        -36.2870  -24.8250   20.2220 O.2   108  TYR108     -0.2867
    118  CB       -34.2940  -26.1900   18.7680 C.3   108  TYR108      0.0534
    119  CG       -33.4220  -26.6890   17.6360 C.ar  108  TYR108     -0.0201
    120  CD1      -33.2420  -25.9290   16.4860 C.ar  108  TYR108     -0.0009
    121  CD2      -32.6650  -27.8450   17.7740 C.ar  108  TYR108     -0.0009
    122  CE1      -32.3920  -26.3500   15.4670 C.ar  108  TYR108      0.0417
    123  CE2      -31.8050  -28.2730   16.7670 C.ar  108  TYR108      0.0417
    124  CZ       -31.6790  -27.5270   15.6110 C.ar  108  TYR108      0.1957
    125  OH       -30.8140  -27.9320   14.6320 O.3   108  TYR108     -0.2866
    126  N        -28.1490  -23.1630   21.9560 N.3   113  GLY113     -0.1210
    127  CA       -27.9810  -22.1820   20.8910 C.3   113  GLY113      0.1956
    128  C        -29.1700  -21.2500   20.8750 C.2   113  GLY113      0.2612
    129  O        -30.3000  -21.7110   21.0770 O.2   113  GLY113     -0.2717
    130  N        -28.9190  -19.9290   20.7100 N.am  114  LEU114     -0.1965
    131  CA       -29.9720  -18.9000   20.7500 C.3   114  LEU114      0.1728
    132  C        -29.6250  -17.5820   20.0470 C.2   114  LEU114      0.2616
    133  O        -30.5320  -16.8120   19.7810 O.2   114  LEU114     -0.2715
    134  CB       -30.4030  -18.6250   22.2120 C.3   114  LEU114      0.0311
    135  CG       -29.6020  -17.6150   23.0560 C.3   114  LEU114      0.0022
    136  CD1      -30.3430  -17.2630   24.3390 C.3   114  LEU114      0.0001
    137  CD2      -28.1960  -18.1040   23.3540 C.3   114  LEU114      0.0001
    138  N        -28.3400  -17.3130   19.7750 N.am  115  HIS115     -0.1959
    139  CA       -27.8560  -16.0690   19.1640 C.3   115  HIS115      0.1787
    140  C        -27.7270  -16.0480   17.6070 C.2   115  HIS115      0.2621
    141  O        -27.7010  -14.9670   17.0170 O.2   115  HIS115     -0.2715
    142  CB       -26.5150  -15.6980   19.7980 C.3   115  HIS115      0.0785
    143  CG       -26.6260  -15.3910   21.2560 C.ar  115  HIS115      0.0821
    144  ND1      -25.6550  -15.7800   22.1450 N.ar  115  HIS115     -0.2267
    145  CD2      -27.6070  -14.7580   21.9380 C.ar  115  HIS115      0.1154
    146  CE1      -26.0590  -15.3610   23.3330 C.ar  115  HIS115      0.1986
    147  NE2      -27.2310  -14.7490   23.2570 N.ar  115  HIS115     -0.2212
    148  N        -27.6490  -17.2160   16.9700 N.am  116  GLY116     -0.1940
    149  CA       -27.4890  -17.3380   15.5250 C.3   116  GLY116      0.2014
    150  C        -26.1080  -16.8710   15.1320 C.2   116  GLY116      0.2639
    151  O        -25.9430  -16.2330   14.0980 O.2   116  GLY116     -0.2714
    152  N        -25.1000  -17.2000   15.9630 N.am  117  VAL117     -0.1963
    153  CA       -23.7250  -16.7210   15.8290 C.3   117  VAL117      0.1727
    154  C        -22.6490  -17.8780   15.8060 C.2   117  VAL117      0.2617
    155  O        -21.7100  -17.8320   14.9990 O.2   117  VAL117     -0.2715
    156  CB       -23.5510  -15.6730   16.9830 C.3   117  VAL117      0.0290
    157  CG1      -22.1750  -15.6650   17.6180 C.3   117  VAL117      0.0023
    158  CG2      -23.9540  -14.2780   16.5230 C.3   117  VAL117      0.0023
    159  N        -22.8320  -18.8780   16.6700 N.am  118  GLY118     -0.1940
    160  CA       -21.9340  -20.0110   16.8850 C.3   118  GLY118      0.2014
    161  C        -21.0300  -20.4990   15.7660 C.2   118  GLY118      0.2639
    162  O        -19.8350  -20.2080   15.7510 O.2   118  GLY118     -0.2714
    163  N        -21.5830  -21.2880   14.8550 N.am  119  VAL119     -0.1963
    164  CA       -20.8510  -21.9310   13.7640 C.3   119  VAL119      0.1727
    165  C        -20.3280  -20.9180   12.6870 C.2   119  VAL119      0.2616
    166  O        -19.3770  -21.2370   11.9720 O.2   119  VAL119     -0.2715
    167  CB       -21.7010  -23.0890   13.1820 C.3   119  VAL119      0.0290
    168  CG1      -22.7840  -22.6080   12.2170 C.3   119  VAL119      0.0023
    169  CG2      -20.8270  -24.1660   12.5660 C.3   119  VAL119      0.0023
    170  N        -20.9170  -19.7060   12.6110 N.am  120  SER120     -0.1950
    171  CA       -20.4830  -18.6370   11.7000 C.3   120  SER120      0.1924
    172  C        -19.1570  -18.0790   12.2120 C.2   120  SER120      0.2314
    173  O        -18.2760  -17.7550   11.4150 O.2   120  SER120     -0.2863
    174  CB       -21.5110  -17.5100   11.6600 C.3   120  SER120      0.2116
    175  OG       -22.8210  -17.9860   11.9110 O.3   120  SER120     -0.2180
    176  N        -25.3930  -34.4590   10.3230 N.3   163  SER163     -0.1217
    177  CA       -24.4670  -33.3950    9.9300 C.3   163  SER163      0.1889
    178  C        -23.0630  -33.6710   10.4320 C.2   163  SER163      0.2288
    179  O        -22.8730  -34.1550   11.5510 O.2   163  SER163     -0.2866
    180  CB       -24.9380  -32.0340   10.4280 C.3   163  SER163      0.2089
    181  OG       -26.0110  -31.5410    9.6460 O.3   163  SER163     -0.2183
    182  N        -19.4940  -31.5760   10.5680 N.3   165  VAL165     -0.1245
    183  CA       -18.8300  -30.2970   10.4350 C.3   165  VAL165      0.1561
    184  C        -17.3660  -30.5410   10.7920 C.2   165  VAL165      0.2260
    185  O        -17.0750  -31.2650   11.7480 O.2   165  VAL165     -0.2867
    186  CB       -19.5140  -29.2450   11.3520 C.3   165  VAL165      0.0252
    187  CG1      -18.9330  -27.8530   11.1360 C.3   165  VAL165      0.0019
    188  CG2      -21.0310  -29.2330   11.1530 C.3   165  VAL165      0.0019
    189  N        -21.8780  -14.7250   24.2980 N.3   340  GLN340     -0.1245
    190  CA       -21.6900  -15.9200   23.4990 C.3   340  GLN340      0.1566
    191  C        -21.1060  -17.0270   24.2790 C.2   340  GLN340      0.2260
    192  O        -21.4960  -18.1750   24.0700 O.2   340  GLN340     -0.2867
    193  CB       -20.8310  -15.6070   22.2880 C.3   340  GLN340      0.0367
    194  CG       -20.9900  -16.5970   21.1440 C.3   340  GLN340      0.0905
    195  CD       -22.4160  -16.9430   20.8760 C.2   340  GLN340      0.2608
    196  OE1      -23.2920  -16.0820   20.8380 O.2   340  GLN340     -0.2717
    197  NE2      -22.6710  -18.2070   20.6570 N.am  340  GLN340     -0.0878
    198  N        -21.6020  -17.5950   27.3030 N.3   342  LYS342     -0.1245
    199  CA       -22.7440  -18.0400   28.0990 C.3   342  LYS342      0.1561
    200  C        -22.3500  -18.5690   29.4490 C.2   342  LYS342      0.2260
    201  O        -22.7500  -19.6690   29.8210 O.2   342  LYS342     -0.2867
    202  CB       -23.5050  -19.1210   27.3020 C.3   342  LYS342      0.0271
    203  CG       -24.0150  -18.6450   25.9410 C.3   342  LYS342      0.0035
    204  CD       -24.3250  -19.8000   25.0380 C.3   342  LYS342      0.0206
    205  CE       -24.6280  -19.3560   23.6410 C.3   342  LYS342      0.1093
    206  NZ       -25.2470  -20.4520   22.8720 N.3   342  LYS342     -0.1314
@<TRIPOS>BOND
     1    69    70    2
     2    69    68    1
     3    68    71    1
     4    68    67    1
     5    62    61    2
     6    71    72    1
     7    67    61   am
     8    67    73    1
     9    61    60    1
    10    74    75    1
    11    72    73    1
    12    65    63    1
    13    63    60    1
    14    63    64    1
    15    60    59    1
    16    75    78    1
    17    75    76    1
    18    78    80    1
    19    78    79    1
    20    59    57   am
    21    58    57    2
    22    57    56    1
    23    56    55    1
    24    76    77    2
    25    66    64    1
    26   181   180    1
    27   177   176    1
    28   177   180    1
    29   177   178    1
    30    85    82    1
    31   178   179    2
    32   183   182    1
    33   183   184    1
    34   183   186    1
    35   184   185    2
    36   187   186    1
    37   188   186    1
    38   173   172    2
    39    82    83    1
    40    82    81    1
    41   174   171    1
    42   174   175    1
    43   171   172    1
    44   171   170    1
    45   166   165    2
    46    83    86   am
    47    83    84    2
    48   168   167    1
    49    86    87    1
    50    50    49    2
    51    89    88    2
    52   169   167    1
    53   170   165   am
    54   165   164    1
    55    87    88    1
    56    88    90   am
    57   167   164    1
    58    53    52   ar
    59    90    91    1
    60    49    48    1
    61    91    92    1
    62   164   163    1
    63    46    44   ar
    64    54    52   ar
    65    47    48    1
    66    52    51    1
    67   151   150    2
    68   112   110   ar
    69   112   113   ar
    70   125   124    1
    71    48    51    1
    72    44    45   ar
    73    44    43    1
    74   163   161   am
    75   110   108   ar
    76   155   154    2
    77    15    14    1
    78   150   149    1
    79   150   152   am
    80    92    93    2
    81    92    94   am
    82    32    30   am
    83   122   124   ar
    84   122   120   ar
    85    16    14    1
    86    43    42    1
    87   149   148    1
    88   113   111   ar
    89   124   123   ar
    90   162   161    2
    91   161   160    1
    92   154   153    1
    93   154   159   am
    94   153   152    1
    95   153   156    1
    96    94    95    1
    97    14    11    1
    98   108   107    1
    99   108   109   ar
   100    30    29    1
   101    30    31    2
   102   120   119   ar
   103    29    26    1
   104   158   156    1
   105   107   104    1
   106   159   160    1
   107    42    39    1
   108   123   121   ar
   109   111   109   ar
   110    11    12    1
   111    11    10    1
   112   148   140   am
   113   156   157    1
   114   141   140    2
   115    13    12    2
   116   103   104    1
   117   103    96   am
   118    28    27    2
   119    37    34    1
   120    95    98    1
   121    95    96    1
   122   114   115    1
   123    34    33    1
   124    34    35    1
   125    27    33   am
   126    27    26    1
   127   101   102    1
   128   101   100    1
   129   140   139    1
   130   119   121   ar
   131   119   118    1
   132   104   105    1
   133    26    25    1
   134   100    99    1
   135    10     3   am
   136    39    40    1
   137    39    38    1
   138    99    98    1
   139    96    97    2
   140   105   106    2
   141     4     3    2
   142    41    40    2
   143     3     2    1
   144    36    35    2
   145     5     2    1
   146     5     6    1
   147   115   118    1
   148   115   116    1
   149    25    19   am
   150   139   138    1
   151   139   142    1
   152     2     1    1
   153     6     7    1
   154   138   132   am
   155   133   132    2
   156   142   143    1
   157   116   117    2
   158   132   131    1
   159     7     8   ar
   160     7     9   ar
   161    19    20    2
   162    19    18    1
   163    17    18    1
   164   197   195   am
   165   130   131    1
   166   130   128   am
   167   131   134    1
   168   196   195    2
   169   128   127    1
   170   128   129    2
   171   195   194    1
   172   127   126    1
   173   194   193    1
   174    18    21    1
   175   143   145   ar
   176   143   144   ar
   177    21    22    1
   178   145   147   ar
   179   144   146   ar
   180   134   135    1
   181   193   190    1
   182   206   205    1
   183    22    24   ar
   184    22    23   ar
   185   135   137    1
   186   135   136    1
   187   147   146   ar
   188   190   191    1
   189   190   189    1
   190   205   204    1
   191   192   191    2
   192   204   203    1
   193   203   202    1
   194   202   199    1
   195   198   199    1
   196   199   200    1
   197   200   201    2
