@<TRIPOS>MOLECULE
tmp/3zkeG00.pdb
 76 71 0 0 0
SMALL
GASTEIGER

@<TRIPOS>ATOM
      1  N        -33.6200  -20.4650   30.7100 N.3    30  ILE30      -0.1231
      2  CA       -32.8420  -21.1580   29.6770 C.3    30  ILE30       0.1692
      3  C        -33.2740  -22.6130   29.6270 C.2    30  ILE30       0.2592
      4  O        -33.2300  -23.3310   30.6350 O.2    30  ILE30      -0.2718
      5  CB       -31.3440  -21.0420   29.9620 C.3    30  ILE30       0.0266
      6  CG1      -30.9270  -19.5550   29.9730 C.3    30  ILE30       0.0019
      7  CG2      -30.5380  -21.7700   28.9230 C.3    30  ILE30       0.0020
      8  CD1      -29.5130  -19.3590   30.4690 C.3    30  ILE30       0.0001
      9  N        -33.6970  -23.0010   28.4340 N.am   31  GLU31      -0.1966
     10  CA       -34.2110  -24.3420   28.1450 C.3    31  GLU31       0.1733
     11  C        -33.4200  -25.4860   28.8110 C.2    31  GLU31       0.2616
     12  O        -34.0160  -26.3520   29.4750 O.2    31  GLU31      -0.2715
     13  CB       -34.2880  -24.5390   26.6180 C.3    31  GLU31       0.0429
     14  CG       -35.3840  -23.6850   25.9900 C.3    31  GLU31       0.1163
     15  CD       -35.2470  -23.5770   24.4950 C.2    31  GLU31       0.3649
     16  OE1      -34.1910  -23.9720   23.9420 O.co2  31  GLU31      -0.2457
     17  OE2      -36.1800  -23.1250   23.8730 O.co2  31  GLU31      -0.2457
     18  N        -32.1040  -25.4680   28.6340 N.am   32  LYS32      -0.1977
     19  CA       -31.2050  -26.4260   29.2490 C.3    32  LYS32       0.1596
     20  C        -31.3340  -26.5600   30.7860 C.2    32  LYS32       0.2287
     21  O        -31.2340  -27.7000   31.3580 O.2    32  LYS32      -0.2864
     22  CB       -29.7570  -26.0400   28.9430 C.3    32  LYS32       0.0298
     23  CG       -28.7490  -27.0710   29.3800 C.3    32  LYS32       0.0038
     24  CD       -27.4750  -26.4640   29.8990 C.3    32  LYS32       0.0206
     25  CE       -26.9390  -25.3480   29.0900 C.3    32  LYS32       0.1093
     26  NZ       -25.8790  -24.7160   29.8990 N.3    32  LYS32      -0.1314
     27  N        -32.6750  -29.5840   32.8280 N.3    36  ALA36      -0.1245
     28  CA       -31.8520  -30.1620   33.8840 C.3    36  ALA36       0.1562
     29  C        -32.6280  -30.3010   35.1530 C.2    36  ALA36       0.2260
     30  O        -32.5220  -31.3360   35.8370 O.2    36  ALA36      -0.2867
     31  CB       -30.5710  -29.3050   34.1420 C.3    36  ALA36       0.0290
     32  N        -35.1340  -33.1890   34.7210 N.3    39  LYS39      -0.1231
     33  CA       -34.4450  -34.4950   34.6500 C.3    39  LYS39       0.1693
     34  C        -34.0550  -34.9070   36.0420 C.2    39  LYS39       0.2591
     35  O        -34.3270  -36.0450   36.4520 O.2    39  LYS39      -0.2718
     36  CB       -33.2580  -34.4570   33.7090 C.3    39  LYS39       0.0285
     37  CG       -32.4030  -35.7320   33.5900 C.3    39  LYS39       0.0035
     38  CD       -31.3300  -35.8420   34.6860 C.3    39  LYS39       0.0206
     39  CE       -30.1510  -36.7270   34.2530 C.3    39  LYS39       0.1093
     40  NZ       -30.4820  -38.1560   34.1960 N.3    39  LYS39      -0.1314
     41  N        -33.4110  -33.9760   36.7510 N.am   40  LYS40      -0.1980
     42  CA       -32.8420  -34.2770   38.0850 C.3    40  LYS40       0.1596
     43  C        -33.8930  -34.6400   39.0970 C.2    40  LYS40       0.2287
     44  O        -33.6840  -35.5580   39.8600 O.2    40  LYS40      -0.2864
     45  CB       -31.9920  -33.1050   38.6120 C.3    40  LYS40       0.0298
     46  CG       -30.6360  -33.0800   37.9770 C.3    40  LYS40       0.0038
     47  CD       -30.0390  -31.6910   38.0650 C.3    40  LYS40       0.0206
     48  CE       -28.6320  -31.6960   37.5510 C.3    40  LYS40       0.1093
     49  NZ       -28.2440  -30.2650   37.4160 N.3    40  LYS40      -0.1314
     50  N        -32.8560  -43.8500   34.9070 N.3    49  THR49      -0.1218
     51  CA       -32.1910  -42.7150   34.3110 C.3    49  THR49       0.1862
     52  C        -33.0960  -42.0060   33.3120 C.2    49  THR49       0.2287
     53  O        -33.5350  -42.5850   32.2860 O.2    49  THR49      -0.2866
     54  CB       -30.9140  -43.1680   33.5810 C.3    49  THR49       0.1770
     55  OG1      -30.1140  -43.9440   34.4820 O.3    49  THR49      -0.2211
     56  CG2      -30.1200  -41.9770   33.1060 C.3    49  THR49       0.0375
     57  N        -34.1460  -38.5180   30.8280 N.3    51  HIS51      -0.1241
     58  CA       -33.5430  -37.5740   29.8700 C.3    51  HIS51       0.1621
     59  C        -34.6350  -36.5610   29.5470 C.2    51  HIS51       0.2264
     60  O        -35.8550  -36.8950   29.4890 O.2    51  HIS51      -0.2867
     61  CB       -33.0510  -38.2860   28.6290 C.3    51  HIS51       0.0745
     62  CG       -32.3100  -39.5660   28.9300 C.ar   51  HIS51       0.0817
     63  ND1      -30.9920  -39.5920   29.2650 N.ar   51  HIS51      -0.2268
     64  CD2      -32.7790  -40.8950   29.0500 C.ar   51  HIS51       0.1154
     65  CE1      -30.6080  -40.8700   29.4930 C.ar   51  HIS51       0.1986
     66  NE2      -31.6840  -41.6730   29.3350 N.ar   51  HIS51      -0.2212
     67  N        -34.6820  -44.0630   30.1380 N.3    84  SER84      -0.1202
     68  CA       -34.0180  -45.0880   29.4400 C.3    84  SER84       0.2020
     69  C        -32.6640  -45.3070   30.0710 C.2    84  SER84       0.2619
     70  O        -31.7870  -44.3980   30.0030 O.2    84  SER84      -0.2717
     71  CB       -33.8020  -44.6690   28.0200 C.3    84  SER84       0.2103
     72  OG       -32.9140  -45.5840   27.4340 O.3    84  SER84      -0.2182
     73  N        -32.4800  -46.5120   30.5980 N.am   85  GLY85      -0.1956
     74  CA       -31.2440  -46.8850   31.3360 C.3    85  GLY85       0.1869
     75  C        -31.5170  -46.6790   32.8320 C.2    85  GLY85       0.2309
     76  O        -32.6970  -46.5320   33.2920 O.2    85  GLY85      -0.2863
@<TRIPOS>BOND
     1    17    15   ar
     2    16    15   ar
     3    15    14    1
     4    14    13    1
     5    13    10    1
     6    72    71    1
     7    71    68    1
     8    10     9    1
     9    10    11    1
    10     9     3   am
    11    61    62    1
    12    61    58    1
    13    18    11   am
    14    18    19    1
    15    11    12    2
    16     7     5    1
    17    62    64   ar
    18    62    63   ar
    19    22    19    1
    20    22    23    1
    21    64    66   ar
    22    25    26    1
    23    25    24    1
    24    19    20    1
    25    63    65   ar
    26    66    65   ar
    27    23    24    1
    28    68    69    1
    29    68    67    1
    30    60    59    2
    31    59    58    1
    32     3     2    1
    33     3     4    2
    34     2     5    1
    35     2     1    1
    36    58    57    1
    37     5     6    1
    38     6     8    1
    39    70    69    2
    40    69    73   am
    41    73    74    1
    42    20    21    2
    43    74    75    1
    44    53    52    2
    45    27    28    1
    46    75    76    2
    47    56    54    1
    48    52    51    1
    49    54    51    1
    50    54    55    1
    51    37    36    1
    52    37    38    1
    53    36    33    1
    54    28    31    1
    55    28    29    1
    56    40    39    1
    57    39    38    1
    58    51    50    1
    59    33    32    1
    60    33    34    1
    61    29    30    2
    62    34    35    2
    63    34    41   am
    64    41    42    1
    65    49    48    1
    66    48    47    1
    67    46    47    1
    68    46    45    1
    69    42    45    1
    70    42    43    1
    71    43    44    2
