@<TRIPOS>MOLECULE
tmp/3zkeE00.pdb
 166 163 0 0 0
SMALL
GASTEIGER

@<TRIPOS>ATOM
      1  N        -19.6100  -30.4440   21.4260 N.3     6  ASN6       -0.1240
      2  CA       -19.2730  -31.2130   22.6010 C.3     6  ASN6        0.1653
      3  C        -19.2790  -32.6780   22.1680 C.2     6  ASN6        0.2266
      4  O        -20.1780  -33.1180   21.4930 O.2     6  ASN6       -0.2867
      5  CB       -20.3010  -30.9230   23.7180 C.3     6  ASN6        0.1155
      6  CG       -19.8330  -31.3780   25.1160 C.2     6  ASN6        0.2627
      7  OD1      -18.9550  -32.2400   25.2850 O.2     6  ASN6       -0.2716
      8  ND2      -20.4790  -30.8490   26.1210 N.am    6  ASN6       -0.0877
      9  N        -18.0340  -36.8040   23.5640 N.3     8  ASP8       -0.1239
     10  CA       -17.3310  -37.8000   24.3260 C.3     8  ASP8        0.1674
     11  C        -17.5070  -39.0480   23.5180 C.2     8  ASP8        0.2266
     12  O        -18.4540  -39.8270   23.7470 O.2     8  ASP8       -0.2867
     13  CB       -17.8720  -37.9330   25.7530 C.3     8  ASP8        0.1410
     14  CG       -17.2150  -39.0920   26.5010 C.2     8  ASP8        0.3668
     15  OD1      -16.1450  -39.5260   26.0730 O.co2   8  ASP8       -0.2456
     16  OD2      -17.7700  -39.6300   27.4640 O.co2   8  ASP8       -0.2456
     17  N        -33.7350  -26.7470   15.7520 N.3    56  ARG56      -0.1231
     18  CA       -33.0990  -25.4310   15.7290 C.3    56  ARG56       0.1694
     19  C        -33.1830  -24.7020   17.0540 C.2    56  ARG56       0.2592
     20  O        -32.4070  -23.7730   17.3130 O.2    56  ARG56      -0.2718
     21  CB       -33.7070  -24.5830   14.6340 C.3    56  ARG56       0.0321
     22  CG       -33.1590  -25.1350   13.3390 C.3    56  ARG56       0.0489
     23  CD       -33.5460  -24.3150   12.1560 C.3    56  ARG56       0.2205
     24  NE       -34.8710  -24.5550   11.8850 N.pl3  56  ARG56      -0.0865
     25  CZ       -35.6800  -23.5930   11.9680 C.cat  56  ARG56       0.5346
     26  NH1      -35.2360  -22.4560   12.2820 N.pl3  56  ARG56       0.1354
     27  NH2      -36.9030  -23.8240   11.7550 N.pl3  56  ARG56       0.1354
     28  N        -34.0750  -25.1620   17.9140 N.am   57  ASN57      -0.1960
     29  CA       -34.2230  -24.5630   19.2290 C.3    57  ASN57       0.1819
     30  C        -34.5450  -25.5830   20.3020 C.2    57  ASN57       0.2621
     31  O        -35.6830  -26.1050   20.3940 O.2    57  ASN57      -0.2715
     32  CB       -35.3040  -23.5110   19.1770 C.3    57  ASN57       0.1195
     33  CG       -35.5110  -22.8460   20.5260 C.2    57  ASN57       0.2630
     34  OD1      -36.4530  -23.1370   21.2270 O.2    57  ASN57      -0.2716
     35  ND2      -34.6240  -21.9610   20.8840 N.am   57  ASN57      -0.0877
     36  N        -33.5360  -25.9370   21.0850 N.am   58  PHE58      -0.1960
     37  CA       -33.7970  -26.7880   22.2500 C.3    58  PHE58       0.1771
     38  C        -32.6570  -26.7480   23.2410 C.2    58  PHE58       0.2620
     39  O        -31.5100  -26.4570   22.8700 O.2    58  PHE58      -0.2715
     40  CB       -34.1530  -28.2780   21.8540 C.3    58  PHE58       0.0574
     41  CG       -33.0210  -29.0130   21.2500 C.ar   58  PHE58      -0.0200
     42  CD1      -32.7270  -28.8790   19.8760 C.ar   58  PHE58      -0.0042
     43  CD2      -32.1850  -29.8090   22.0440 C.ar   58  PHE58      -0.0042
     44  CE1      -31.6440  -29.5330   19.3200 C.ar   58  PHE58      -0.0003
     45  CE2      -31.0940  -30.5170   21.4730 C.ar   58  PHE58      -0.0003
     46  CZ       -30.8330  -30.3790   20.1190 C.ar   58  PHE58      -0.0000
     47  N        -32.9760  -27.0950   24.4800 N.am   59  GLY59      -0.1940
     48  CA       -31.9500  -27.3460   25.5020 C.3    59  GLY59       0.2014
     49  C        -32.2550  -28.7480   25.9970 C.2    59  GLY59       0.2640
     50  O        -33.3770  -29.2750   25.7840 O.2    59  GLY59      -0.2714
     51  N        -31.2290  -29.4110   26.5330 N.am   60  SER60      -0.1935
     52  CA       -31.3930  -30.7960   26.9560 C.3    60  SER60       0.2055
     53  C        -30.5470  -31.0500   28.1540 C.2    60  SER60       0.2643
     54  O        -29.5990  -30.3200   28.4720 O.2    60  SER60      -0.2714
     55  CB       -30.9680  -31.7630   25.8380 C.3    60  SER60       0.2130
     56  OG       -29.5690  -31.7960   25.6930 O.3    60  SER60      -0.2179
     57  N        -30.8930  -32.1030   28.8410 N.am   61  TYR61      -0.1959
     58  CA       -30.0290  -32.6080   29.9270 C.3    61  TYR61       0.1771
     59  C        -30.2420  -34.1200   29.9120 C.2    61  TYR61       0.2619
     60  O        -31.3470  -34.5920   30.1200 O.2    61  TYR61      -0.2715
     61  CB       -30.3820  -31.9570   31.3020 C.3    61  TYR61       0.0574
     62  CG       -29.2640  -32.1640   32.3080 C.ar   61  TYR61      -0.0198
     63  CD1      -28.0710  -31.4150   32.2540 C.ar   61  TYR61      -0.0009
     64  CD2      -29.3810  -33.1670   33.2780 C.ar   61  TYR61      -0.0009
     65  CE1      -27.0170  -31.6660   33.1640 C.ar   61  TYR61       0.0417
     66  CE2      -28.3670  -33.4280   34.1820 C.ar   61  TYR61       0.0417
     67  CZ       -27.1880  -32.6790   34.1430 C.ar   61  TYR61       0.1957
     68  OH       -26.2300  -33.0050   35.1020 O.3    61  TYR61      -0.2866
     69  N        -29.1980  -34.8600   29.5810 N.am   62  VAL62      -0.1963
     70  CA       -29.3850  -36.2600   29.3270 C.3    62  VAL62       0.1727
     71  C        -28.2210  -36.9210   29.9890 C.2    62  VAL62       0.2617
     72  O        -27.2610  -36.2440   30.3470 O.2    62  VAL62      -0.2715
     73  CB       -29.3950  -36.5810   27.7740 C.3    62  VAL62       0.0290
     74  CG1      -30.4270  -35.6940   27.0450 C.3    62  VAL62       0.0023
     75  CG2      -28.0200  -36.3780   27.1420 C.3    62  VAL62       0.0023
     76  N        -28.2850  -38.2500   30.1000 N.am   63  THR63      -0.1937
     77  CA       -27.2160  -39.0180   30.6830 C.3    63  THR63       0.2028
     78  C        -26.8080  -40.0750   29.6530 C.2    63  THR63       0.2642
     79  O        -27.6670  -40.6680   29.0210 O.2    63  THR63      -0.2714
     80  CB       -27.7190  -39.6870   31.9790 C.3    63  THR63       0.1808
     81  OG1      -28.0710  -38.6850   32.9330 O.3    63  THR63      -0.2208
     82  CG2      -26.6790  -40.6560   32.5980 C.3    63  THR63       0.0379
     83  N        -25.5220  -40.3240   29.5020 N.am   64  HIS64      -0.1959
     84  CA       -25.0310  -41.1820   28.4450 C.3    64  HIS64       0.1787
     85  C        -23.8990  -42.0480   28.9200 C.2    64  HIS64       0.2620
     86  O        -23.2000  -41.7060   29.8840 O.2    64  HIS64      -0.2715
     87  CB       -24.5240  -40.3440   27.2650 C.3    64  HIS64       0.0785
     88  CG       -23.3120  -39.5250   27.5970 C.ar   64  HIS64       0.0821
     89  ND1      -22.0520  -40.0510   27.6110 N.ar   64  HIS64      -0.2267
     90  CD2      -23.1830  -38.1680   27.9440 C.ar   64  HIS64       0.1154
     91  CE1      -21.1700  -39.0720   27.9380 C.ar   64  HIS64       0.1986
     92  NE2      -21.8680  -37.9240   28.1340 N.ar   64  HIS64      -0.2212
     93  N        -23.7020  -43.1710   28.2240 N.am   65  GLU65      -0.1963
     94  CA       -22.5550  -44.0410   28.4610 C.3    65  GLU65       0.1733
     95  C        -21.3310  -43.3170   28.0360 C.2    65  GLU65       0.2617
     96  O        -21.3690  -42.5520   27.0670 O.2    65  GLU65      -0.2715
     97  CB       -22.6960  -45.3360   27.6790 C.3    65  GLU65       0.0429
     98  CG       -23.8240  -46.1600   28.2830 C.3    65  GLU65       0.1163
     99  CD       -24.0860  -47.4830   27.5690 C.2    65  GLU65       0.3649
    100  OE1      -23.3040  -47.8650   26.6590 O.co2  65  GLU65      -0.2457
    101  OE2      -25.1000  -48.1470   27.9270 O.co2  65  GLU65      -0.2457
    102  N        -20.2540  -43.5410   28.7730 N.am   66  THR66      -0.1951
    103  CA       -18.9200  -42.9790   28.4900 C.3    66  THR66       0.1897
    104  C        -18.5510  -43.2790   27.0650 C.2    66  THR66       0.2313
    105  O        -18.8570  -44.3900   26.5670 O.2    66  THR66      -0.2863
    106  CB       -17.8200  -43.6390   29.3870 C.3    66  THR66       0.1794
    107  OG1      -18.2190  -43.5780   30.7500 O.3    66  THR66      -0.2208
    108  CG2      -16.5300  -42.8950   29.2960 C.3    66  THR66       0.0378
    109  N        -21.3260  -39.9840   23.2960 N.3    69  PHE69      -0.1241
    110  CA       -22.0490  -38.7500   23.2810 C.3    69  PHE69       0.1605
    111  C        -21.5510  -37.7690   22.2410 C.2    69  PHE69       0.2264
    112  O        -20.3240  -37.5080   22.1610 O.2    69  PHE69      -0.2867
    113  CB       -22.0050  -38.0740   24.6630 C.3    69  PHE69       0.0534
    114  CG       -22.6940  -36.6870   24.6950 C.ar   69  PHE69      -0.0203
    115  CD1      -22.0030  -35.5500   24.3620 C.ar   69  PHE69      -0.0042
    116  CD2      -24.0010  -36.5590   25.0990 C.ar   69  PHE69      -0.0042
    117  CE1      -22.6150  -34.2870   24.4130 C.ar   69  PHE69      -0.0003
    118  CE2      -24.6120  -35.3180   25.1830 C.ar   69  PHE69      -0.0003
    119  CZ       -23.9100  -34.1530   24.8380 C.ar   69  PHE69      -0.0000
    120  N        -22.7180  -33.8150   20.3190 N.3    71  TYR71      -0.1241
    121  CA       -23.5950  -32.6910   20.1040 C.3    71  TYR71       0.1605
    122  C        -22.9630  -31.8070   19.0750 C.2    71  TYR71       0.2264
    123  O        -21.8590  -31.3050   19.2850 O.2    71  TYR71      -0.2867
    124  CB       -23.8170  -31.8930   21.3950 C.3    71  TYR71       0.0534
    125  CG       -24.7260  -30.6880   21.2010 C.ar   71  TYR71      -0.0201
    126  CD1      -26.0470  -30.8490   20.7260 C.ar   71  TYR71      -0.0009
    127  CD2      -24.2500  -29.3810   21.4570 C.ar   71  TYR71      -0.0009
    128  CE1      -26.8910  -29.7770   20.5620 C.ar   71  TYR71       0.0417
    129  CE2      -25.0880  -28.2720   21.3120 C.ar   71  TYR71       0.0417
    130  CZ       -26.3800  -28.4480   20.8750 C.ar   71  TYR71       0.1957
    131  OH       -27.2340  -27.3680   20.7540 O.3    71  TYR71      -0.2866
    132  N        -23.4610  -29.2420   15.1510 N.3    73  TYR73      -0.1241
    133  CA       -24.3370  -28.4440   14.2830 C.3    73  TYR73       0.1605
    134  C        -24.0290  -28.8290   12.8870 C.2    73  TYR73       0.2264
    135  O        -22.8630  -29.0270   12.5370 O.2    73  TYR73      -0.2867
    136  CB       -24.0880  -26.9450   14.4440 C.3    73  TYR73       0.0534
    137  CG       -24.7870  -26.3430   15.6160 C.ar   73  TYR73      -0.0201
    138  CD1      -24.2730  -26.4630   16.8910 C.ar   73  TYR73      -0.0009
    139  CD2      -25.9730  -25.6250   15.4370 C.ar   73  TYR73      -0.0009
    140  CE1      -24.9180  -25.9050   17.9820 C.ar   73  TYR73       0.0417
    141  CE2      -26.6380  -25.0480   16.5000 C.ar   73  TYR73       0.0417
    142  CZ       -26.0960  -25.1890   17.7750 C.ar   73  TYR73       0.1957
    143  OH       -26.6820  -24.6250   18.8720 O.3    73  TYR73      -0.2866
    144  N        -29.1100  -28.2410   15.0520 N.3    78  ALA78      -0.1245
    145  CA       -28.2620  -28.9230   16.0390 C.3    78  ALA78       0.1562
    146  C        -28.7110  -30.3690   16.1760 C.2    78  ALA78       0.2260
    147  O        -29.9400  -30.6660   16.1520 O.2    78  ALA78      -0.2867
    148  CB       -28.3590  -28.2280   17.4060 C.3    78  ALA78       0.0290
    149  N        -28.1880  -33.8690   18.6190 N.3    80  LEU80      -0.1245
    150  CA       -27.7600  -34.5360   19.8560 C.3    80  LEU80       0.1561
    151  C        -27.9010  -36.0210   19.6650 C.2    80  LEU80       0.2260
    152  O        -29.0130  -36.5200   19.4310 O.2    80  LEU80      -0.2867
    153  CB       -28.6340  -34.0540   21.0210 C.3    80  LEU80       0.0270
    154  CG       -28.5350  -34.7720   22.3570 C.3    80  LEU80       0.0019
    155  CD1      -27.1040  -34.7070   22.9000 C.3    80  LEU80       0.0001
    156  CD2      -29.5300  -34.1930   23.3860 C.3    80  LEU80       0.0001
    157  N        -27.6250  -44.5670   25.7730 N.3    84  SER84      -0.1202
    158  CA       -27.9080  -44.8680   27.1790 C.3    84  SER84       0.2020
    159  C        -29.0120  -45.9070   27.2310 C.2    84  SER84       0.2619
    160  O        -30.1140  -45.6880   26.7090 O.2    84  SER84      -0.2717
    161  CB       -28.3630  -43.6330   27.9030 C.3    84  SER84       0.2103
    162  OG       -29.6880  -43.7550   28.1230 O.3    84  SER84      -0.2182
    163  N        -28.6840  -47.0320   27.8550 N.am   85  GLY85      -0.1956
    164  CA       -29.4830  -48.2320   27.7780 C.3    85  GLY85       0.1869
    165  C        -28.9450  -49.1380   26.6580 C.2    85  GLY85       0.2309
    166  O        -27.8930  -48.8350   26.0140 O.2    85  GLY85      -0.2863
@<TRIPOS>BOND
     1    27    25    1
     2    24    25    2
     3    24    23    1
     4    25    26    1
     5    23    22    1
     6   135   134    2
     7   134   133    1
     8    22    21    1
     9   133   136    1
    10   133   132    1
    11   136   137    1
    12    21    18    1
    13   144   145    1
    14   139   137   ar
    15   139   141   ar
    16   137   138   ar
    17    18    17    1
    18    18    19    1
    19   145   146    1
    20   145   148    1
    21   147   146    2
    22   141   142   ar
    23   138   140   ar
    24    19    20    2
    25    19    28   am
    26   142   140   ar
    27   142   143    1
    28    28    29    1
    29   149   150    1
    30   122   123    2
    31   122   121    1
    32    32    29    1
    33    32    33    1
    34    29    30    1
    35    44    42   ar
    36    44    46   ar
    37   152   151    2
    38   151   150    1
    39   150   153    1
    40    42    41   ar
    41   121   120    1
    42   121   124    1
    43    46    45   ar
    44    30    31    2
    45    30    36   am
    46    33    35   am
    47    33    34    2
    48   128   126   ar
    49   128   130   ar
    50   126   125   ar
    51   131   130    1
    52   130   129   ar
    53   153   154    1
    54    36    37    1
    55   125   124    1
    56   125   127   ar
    57    41    40    1
    58    41    43   ar
    59   129   127   ar
    60     1     2    1
    61    45    43   ar
    62     4     3    2
    63    40    37    1
    64   112   111    2
    65     3     2    1
    66   111   110    1
    67    37    38    1
    68   154   155    1
    69   154   156    1
    70     2     5    1
    71    39    38    2
    72    38    47   am
    73   110   109    1
    74   110   113    1
    75    11    12    2
    76    11    10    1
    77     9    10    1
    78     5     6    1
    79    10    13    1
    80   115   117   ar
    81   115   114   ar
    82   117   119   ar
    83    47    48    1
    84   113   114    1
    85   114   116   ar
    86   119   118   ar
    87   116   118   ar
    88     6     7    2
    89     6     8   am
    90    48    49    1
    91    56    55    1
    92    13    14    1
    93   157   158    1
    94    50    49    2
    95    55    52    1
    96    49    51   am
    97   166   165    2
    98    15    14   ar
    99    14    16   ar
   100    51    52    1
   101   105   104    2
   102   165   164    1
   103   100    99   ar
   104   160   159    2
   105    52    53    1
   106    74    73    1
   107   104   103    1
   108    96    95    2
   109    75    73    1
   110   158   159    1
   111   158   161    1
   112   159   163   am
   113    87    88    1
   114    87    84    1
   115    99   101   ar
   116    99    98    1
   117    88    89   ar
   118    88    90   ar
   119    89    91   ar
   120    97    98    1
   121    97    94    1
   122    73    70    1
   123   164   163    1
   124   161   162    1
   125    91    92   ar
   126    90    92   ar
   127    95    94    1
   128    95   102   am
   129    53    54    2
   130    53    57   am
   131    93    94    1
   132    93    85   am
   133    84    85    1
   134    84    83    1
   135   103   102    1
   136   103   106    1
   137    57    58    1
   138    85    86    2
   139    79    78    2
   140   108   106    1
   141    70    69    1
   142    70    71    1
   143   106   107    1
   144    83    78   am
   145    69    59   am
   146    78    77    1
   147    59    58    1
   148    59    60    2
   149    58    61    1
   150    71    76   am
   151    71    72    2
   152    76    77    1
   153    77    80    1
   154    61    62    1
   155    80    82    1
   156    80    81    1
   157    63    62   ar
   158    63    65   ar
   159    62    64   ar
   160    65    67   ar
   161    64    66   ar
   162    67    66   ar
   163    67    68    1
