@<TRIPOS>MOLECULE
tmp/3zkeG01.pdb
 171 169 0 0 0
SMALL
GASTEIGER

@<TRIPOS>ATOM
      1  N        -48.4190  -36.8190   23.7030 N.3     6  ASN6       -0.1225
      2  CA       -48.0530  -38.2310   23.6140 C.3     6  ASN6        0.1785
      3  C        -47.5670  -38.6850   24.9290 C.2     6  ASN6        0.2597
      4  O        -46.6820  -38.0580   25.5480 O.2     6  ASN6       -0.2718
      5  CB       -47.0000  -38.5080   22.5340 C.3     6  ASN6        0.1169
      6  CG       -46.9900  -39.9710   22.0710 C.2     6  ASN6        0.2627
      7  OD1      -47.5470  -40.8380   22.7220 O.2     6  ASN6       -0.2716
      8  ND2      -46.3360  -40.2430   20.9420 N.am    6  ASN6       -0.0877
      9  N        -48.1080  -39.8100   25.3810 N.am    7  ALA7       -0.1966
     10  CA       -47.7360  -40.3130   26.6950 C.3     7  ALA7        0.1728
     11  C        -47.8640  -41.8080   26.8000 C.2     7  ALA7        0.2616
     12  O        -48.8110  -42.4210   26.2700 O.2     7  ALA7       -0.2715
     13  CB       -48.5020  -39.6290   27.8170 C.3     7  ALA7        0.0334
     14  N        -46.8860  -42.4060   27.4710 N.am    8  ASP8       -0.1971
     15  CA       -46.9750  -43.7500   27.8810 C.3     8  ASP8        0.1709
     16  C        -46.4720  -43.6460   29.2640 C.2     8  ASP8        0.2293
     17  O        -45.2510  -43.8120   29.5060 O.2     8  ASP8       -0.2864
     18  CB       -46.0890  -44.6660   27.0020 C.3     8  ASP8        0.1436
     19  CG       -46.0050  -46.1200   27.5680 C.2     8  ASP8        0.3671
     20  OD1      -46.9280  -46.5130   28.2920 O.co2   8  ASP8       -0.2456
     21  OD2      -44.9910  -46.8580   27.3270 O.co2   8  ASP8       -0.2456
     22  N        -38.4790  -25.2070   21.3920 N.3    56  ARG56      -0.1231
     23  CA       -39.5580  -24.7650   20.5080 C.3    56  ARG56       0.1694
     24  C        -39.4500  -25.3670   19.1100 C.2    56  ARG56       0.2592
     25  O        -40.4490  -25.3910   18.3840 O.2    56  ARG56      -0.2718
     26  CB       -39.5640  -23.2230   20.4090 C.3    56  ARG56       0.0321
     27  CG       -40.0120  -22.6270   21.7270 C.3    56  ARG56       0.0489
     28  CD       -39.4050  -21.3110   22.0910 C.3    56  ARG56       0.2205
     29  NE       -38.7950  -20.6070   20.9960 N.pl3  56  ARG56      -0.0865
     30  CZ       -39.4160  -19.5900   20.4640 C.cat  56  ARG56       0.5346
     31  NH1      -40.5730  -19.2950   20.9380 N.pl3  56  ARG56       0.1354
     32  NH2      -38.9360  -18.8950   19.4740 N.pl3  56  ARG56       0.1354
     33  N        -38.2650  -25.8620   18.7350 N.am   57  ASN57      -0.1960
     34  CA       -38.1260  -26.5160   17.4420 C.3    57  ASN57       0.1819
     35  C        -37.2160  -27.7240   17.4890 C.2    57  ASN57       0.2621
     36  O        -35.9910  -27.5890   17.5590 O.2    57  ASN57      -0.2715
     37  CB       -37.5860  -25.5370   16.3970 C.3    57  ASN57       0.1195
     38  CG       -37.4190  -26.2040   15.0310 C.2    57  ASN57       0.2630
     39  OD1      -36.3070  -26.4920   14.5950 O.2    57  ASN57      -0.2716
     40  ND2      -38.5180  -26.5180   14.3950 N.am   57  ASN57      -0.0877
     41  N        -37.7970  -28.9070   17.4630 N.am   58  PHE58      -0.1960
     42  CA       -36.9950  -30.1160   17.4260 C.3    58  PHE58       0.1771
     43  C        -37.8180  -31.3060   17.0170 C.2    58  PHE58       0.2620
     44  O        -39.0530  -31.3400   17.1890 O.2    58  PHE58      -0.2715
     45  CB       -36.1950  -30.3410   18.7440 C.3    58  PHE58       0.0574
     46  CG       -37.0380  -30.6760   19.9180 C.ar   58  PHE58      -0.0200
     47  CD1      -37.5880  -29.6700   20.6840 C.ar   58  PHE58      -0.0042
     48  CD2      -37.2960  -32.0080   20.2660 C.ar   58  PHE58      -0.0042
     49  CE1      -38.4060  -29.9690   21.7850 C.ar   58  PHE58      -0.0003
     50  CE2      -38.1040  -32.3300   21.3870 C.ar   58  PHE58      -0.0003
     51  CZ       -38.6930  -31.3010   22.1400 C.ar   58  PHE58      -0.0000
     52  N        -37.1370  -32.2730   16.4410 N.am   59  GLY59      -0.1940
     53  CA       -37.7590  -33.6150   16.2530 C.3    59  GLY59       0.2014
     54  C        -36.8420  -34.6050   16.9960 C.2    59  GLY59       0.2640
     55  O        -35.6700  -34.3550   17.2240 O.2    59  GLY59      -0.2714
     56  N        -37.3860  -35.7080   17.4290 N.am   60  SER60      -0.1935
     57  CA       -36.5710  -36.6370   18.1870 C.3    60  SER60       0.2055
     58  C        -36.9600  -38.0470   17.8100 C.2    60  SER60       0.2643
     59  O        -38.0680  -38.2910   17.3110 O.2    60  SER60      -0.2714
     60  CB       -36.8760  -36.5080   19.6800 C.3    60  SER60       0.2130
     61  OG       -38.0950  -37.1540   19.9890 O.3    60  SER60      -0.2179
     62  N        -36.0830  -38.9750   18.1540 N.am   61  TYR61      -0.1959
     63  CA       -36.4610  -40.3690   18.0310 C.3    61  TYR61       0.1771
     64  C        -35.6770  -41.0980   19.0990 C.2    61  TYR61       0.2619
     65  O        -34.4730  -41.1130   19.0490 O.2    61  TYR61      -0.2715
     66  CB       -36.1000  -40.9150   16.6520 C.3    61  TYR61       0.0574
     67  CG       -36.7990  -42.2450   16.4040 C.ar   61  TYR61      -0.0198
     68  CD1      -38.1650  -42.2960   16.1210 C.ar   61  TYR61      -0.0009
     69  CD2      -36.0990  -43.4540   16.4980 C.ar   61  TYR61      -0.0009
     70  CE1      -38.8390  -43.5280   15.9200 C.ar   61  TYR61       0.0417
     71  CE2      -36.7580  -44.7080   16.2800 C.ar   61  TYR61       0.0417
     72  CZ       -38.0940  -44.7300   16.0050 C.ar   61  TYR61       0.1957
     73  OH       -38.7080  -45.9260   15.8050 O.3    61  TYR61      -0.2866
     74  N        -36.3710  -41.6300   20.0940 N.am   62  VAL62      -0.1963
     75  CA       -35.7130  -42.0670   21.2700 C.3    62  VAL62       0.1727
     76  C        -36.3340  -43.3820   21.6660 C.2    62  VAL62       0.2617
     77  O        -37.3340  -43.7770   21.0960 O.2    62  VAL62      -0.2715
     78  CB       -35.8930  -41.0540   22.4520 C.3    62  VAL62       0.0290
     79  CG1      -35.4270  -39.6510   22.0670 C.3    62  VAL62       0.0023
     80  CG2      -37.3370  -40.9780   22.9060 C.3    62  VAL62       0.0023
     81  N        -35.7280  -44.0620   22.6380 N.am   63  THR63      -0.1937
     82  CA       -36.2950  -45.2920   23.1480 C.3    63  THR63       0.2028
     83  C        -36.5060  -45.1840   24.6420 C.2    63  THR63       0.2642
     84  O        -35.6350  -44.6500   25.3680 O.2    63  THR63      -0.2714
     85  CB       -35.3710  -46.4690   22.8200 C.3    63  THR63       0.1808
     86  OG1      -35.1970  -46.5070   21.4140 O.3    63  THR63      -0.2208
     87  CG2      -36.0040  -47.8420   23.2540 C.3    63  THR63       0.0379
     88  N        -37.6420  -45.6630   25.1180 N.am   64  HIS64      -0.1959
     89  CA       -37.8980  -45.5640   26.5200 C.3    64  HIS64       0.1787
     90  C        -38.4200  -46.8250   27.1190 C.2    64  HIS64       0.2620
     91  O        -39.0160  -47.6600   26.4240 O.2    64  HIS64      -0.2715
     92  CB       -38.9300  -44.4770   26.7350 C.3    64  HIS64       0.0785
     93  CG       -40.2610  -44.7940   26.1300 C.ar   64  HIS64       0.0821
     94  ND1      -41.2330  -45.4430   26.8090 N.ar   64  HIS64      -0.2267
     95  CD2      -40.7860  -44.4910   24.8850 C.ar   64  HIS64       0.1154
     96  CE1      -42.2890  -45.5720   26.0360 C.ar   64  HIS64       0.1986
     97  NE2      -42.0290  -44.9610   24.8630 N.ar   64  HIS64      -0.2212
     98  N        -38.3230  -46.9020   28.4390 N.am   65  GLU65      -0.1963
     99  CA       -38.9670  -47.9660   29.1880 C.3    65  GLU65       0.1733
    100  C        -40.4640  -47.8050   29.1540 C.2    65  GLU65       0.2617
    101  O        -41.0130  -46.6550   29.1750 O.2    65  GLU65      -0.2715
    102  CB       -38.4990  -47.9540   30.6420 C.3    65  GLU65       0.0429
    103  CG       -37.0140  -48.2790   30.7800 C.3    65  GLU65       0.1163
    104  CD       -36.5410  -48.2910   32.2270 C.2    65  GLU65       0.3649
    105  OE1      -37.3810  -48.0570   33.1500 O.co2  65  GLU65      -0.2457
    106  OE2      -35.3180  -48.5000   32.4380 O.co2  65  GLU65      -0.2457
    107  N        -41.1440  -48.9550   29.1320 N.am   66  THR66      -0.1951
    108  CA       -42.5920  -49.0040   29.1570 C.3    66  THR66       0.1897
    109  C        -43.1190  -48.1040   30.2480 C.2    66  THR66       0.2313
    110  O        -42.6190  -48.1370   31.3600 O.2    66  THR66      -0.2863
    111  CB       -43.0570  -50.4740   29.4860 C.3    66  THR66       0.1794
    112  OG1      -42.5380  -51.3280   28.4790 O.3    66  THR66      -0.2208
    113  CG2      -44.5060  -50.6190   29.4600 C.3    66  THR66       0.0378
    114  N        -42.6160  -42.3170   29.4580 N.3    69  PHE69      -0.1241
    115  CA       -42.4710  -41.4600   28.3290 C.3    69  PHE69       0.1605
    116  C        -43.5890  -40.4400   28.3220 C.2    69  PHE69       0.2264
    117  O        -44.7710  -40.8170   28.3930 O.2    69  PHE69      -0.2867
    118  CB       -42.5240  -42.2560   26.9810 C.3    69  PHE69       0.0534
    119  CG       -42.4880  -41.3350   25.7340 C.ar   69  PHE69      -0.0203
    120  CD1      -43.6740  -40.7750   25.1980 C.ar   69  PHE69      -0.0042
    121  CD2      -41.2920  -41.0240   25.1090 C.ar   69  PHE69      -0.0042
    122  CE1      -43.6400  -39.9750   24.0380 C.ar   69  PHE69      -0.0003
    123  CE2      -41.2580  -40.2180   23.9840 C.ar   69  PHE69      -0.0003
    124  CZ       -42.4240  -39.6660   23.4620 C.ar   69  PHE69      -0.0000
    125  N        -44.5860  -36.5000   26.1810 N.3    71  TYR71      -0.1241
    126  CA       -44.2250  -35.4300   25.2880 C.3    71  TYR71       0.1605
    127  C        -45.4170  -34.4900   25.3580 C.2    71  TYR71       0.2264
    128  O        -46.5480  -34.8770   25.0730 O.2    71  TYR71      -0.2867
    129  CB       -44.0320  -35.9390   23.8580 C.3    71  TYR71       0.0534
    130  CG       -43.8160  -34.8380   22.8440 C.ar   71  TYR71      -0.0201
    131  CD1      -42.7110  -33.9960   22.9340 C.ar   71  TYR71      -0.0009
    132  CD2      -44.7010  -34.6460   21.7920 C.ar   71  TYR71      -0.0009
    133  CE1      -42.4810  -33.0360   22.0070 C.ar   71  TYR71       0.0417
    134  CE2      -44.5170  -33.6470   20.8600 C.ar   71  TYR71       0.0417
    135  CZ       -43.4060  -32.8410   20.9760 C.ar   71  TYR71       0.1957
    136  OH       -43.1560  -31.8600   20.0540 O.3    71  TYR71      -0.2866
    137  N        -46.6440  -29.9240   25.7160 N.3    73  TYR73      -0.1241
    138  CA       -46.4150  -28.5120   25.5010 C.3    73  TYR73       0.1605
    139  C        -46.8260  -27.7600   26.7390 C.2    73  TYR73       0.2264
    140  O        -47.7780  -28.0790   27.4230 O.2    73  TYR73      -0.2867
    141  CB       -47.2100  -27.9970   24.2870 C.3    73  TYR73       0.0534
    142  CG       -46.5500  -28.2070   22.9300 C.ar   73  TYR73      -0.0201
    143  CD1      -46.6890  -29.4100   22.2460 C.ar   73  TYR73      -0.0009
    144  CD2      -45.8110  -27.1820   22.3280 C.ar   73  TYR73      -0.0009
    145  CE1      -46.1000  -29.6070   20.9990 C.ar   73  TYR73       0.0417
    146  CE2      -45.2130  -27.3510   21.0710 C.ar   73  TYR73       0.0417
    147  CZ       -45.3810  -28.5630   20.4150 C.ar   73  TYR73       0.1957
    148  OH       -44.7970  -28.7150   19.1890 O.3    73  TYR73      -0.2866
    149  N        -42.0620  -27.1170   23.8620 N.3    78  ALA78      -0.1245
    150  CA       -42.2880  -28.5750   23.9030 C.3    78  ALA78       0.1562
    151  C        -41.3240  -29.1970   24.9140 C.2    78  ALA78       0.2260
    152  O        -40.2040  -28.7470   25.0430 O.2    78  ALA78      -0.2867
    153  CB       -42.0790  -29.1960   22.5320 C.3    78  ALA78       0.0290
    154  N        -39.8180  -32.9700   26.2630 N.3    80  LEU80      -0.1245
    155  CA       -39.7170  -34.4300   26.0870 C.3    80  LEU80       0.1561
    156  C        -38.9810  -34.9830   27.3250 C.2    80  LEU80       0.2260
    157  O        -37.8410  -34.5710   27.6300 O.2    80  LEU80      -0.2867
    158  CB       -38.9520  -34.7930   24.8110 C.3    80  LEU80       0.0270
    159  CG       -38.5540  -36.2590   24.6320 C.3    80  LEU80       0.0019
    160  CD1      -39.8540  -37.1160   24.4600 C.3    80  LEU80       0.0001
    161  CD2      -37.6020  -36.5040   23.4120 C.3    80  LEU80       0.0001
    162  N        -34.6820  -44.0630   30.1380 N.3    84  SER84      -0.1202
    163  CA       -34.0180  -45.0880   29.4400 C.3    84  SER84       0.2020
    164  C        -32.6640  -45.3070   30.0710 C.2    84  SER84       0.2619
    165  O        -31.7870  -44.3980   30.0030 O.2    84  SER84      -0.2717
    166  CB       -33.8020  -44.6690   28.0200 C.3    84  SER84       0.2103
    167  OG       -32.9140  -45.5840   27.4340 O.3    84  SER84      -0.2182
    168  N        -32.4800  -46.5120   30.5980 N.am   85  GLY85      -0.1956
    169  CA       -31.2440  -46.8850   31.3360 C.3    85  GLY85       0.1869
    170  C        -31.5170  -46.6790   32.8320 C.2    85  GLY85       0.2309
    171  O        -32.6970  -46.5320   33.2920 O.2    85  GLY85      -0.2863
@<TRIPOS>BOND
     1    40    38   am
     2    39    38    2
     3    38    37    1
     4    73    72    1
     5    70    72   ar
     6    70    68   ar
     7    72    71   ar
     8    68    67   ar
     9    53    52    1
    10    53    54    1
    11    71    69   ar
    12    37    34    1
    13    67    69   ar
    14    67    66    1
    15    52    43   am
    16    66    63    1
    17    54    55    2
    18    54    56   am
    19    43    44    2
    20    43    42    1
    21    59    58    2
    22    42    41    1
    23    42    45    1
    24    56    57    1
    25    34    35    1
    26    34    33    1
    27    41    35   am
    28    35    36    2
    29    58    62   am
    30    58    57    1
    31    63    62    1
    32    63    64    1
    33    57    60    1
    34    25    24    2
    35    33    24   am
    36    45    46    1
    37    65    64    2
    38    64    74   am
    39    24    23    1
    40   148   147    1
    41    32    30    1
    42    60    61    1
    43    46    48   ar
    44    46    47   ar
    45   136   135    1
    46    74    75    1
    47    48    50   ar
    48    26    23    1
    49    26    27    1
    50   147   145   ar
    51   147   146   ar
    52    30    31    1
    53    30    29    2
    54    23    22    1
    55    47    49   ar
    56   134   135   ar
    57   134   132   ar
    58     8     6   am
    59   135   133   ar
    60    29    28    1
    61   145   143   ar
    62   146   144   ar
    63    77    76    2
    64    75    76    1
    65    75    78    1
    66    50    51   ar
    67    86    85    1
    68    76    81   am
    69    27    28    1
    70    49    51   ar
    71   132   130   ar
    72   133   131   ar
    73    79    78    1
    74     6     5    1
    75     6     7    2
    76   143   142   ar
    77   144   142   ar
    78    78    80    1
    79   153   150    1
    80     5     2    1
    81    81    82    1
    82    85    82    1
    83    85    87    1
    84   130   131   ar
    85   130   129    1
    86   142   141    1
    87    82    83    1
    88   161   159    1
    89   124   123   ar
    90   124   122   ar
    91     2     1    1
    92     2     3    1
    93   129   126    1
    94   149   150    1
    95   150   151    1
    96   123   121   ar
    97   122   120   ar
    98   141   138    1
    99   160   159    1
   100   159   158    1
   101    83    88   am
   102    83    84    2
   103   158   155    1
   104    97    95   ar
   105    97    96   ar
   106    95    93   ar
   107   151   152    2
   108     3     9   am
   109     3     4    2
   110   128   127    2
   111   121   119   ar
   112    88    89    1
   113   120   119   ar
   114   126   127    1
   115   126   125    1
   116     9    10    1
   117   138   137    1
   118   138   139    1
   119   119   118    1
   120    96    94   ar
   121   155   154    1
   122   155   156    1
   123    93    92    1
   124    93    94   ar
   125    12    11    2
   126    91    90    2
   127    89    92    1
   128    89    90    1
   129    10    11    1
   130    10    13    1
   131   139   140    2
   132    11    14   am
   133   118   115    1
   134    18    19    1
   135    18    15    1
   136    90    98   am
   137   156   157    2
   138    21    19   ar
   139   167   166    1
   140    14    15    1
   141    19    20   ar
   142    15    16    1
   143   166   163    1
   144   116   115    1
   145   116   117    2
   146   115   114    1
   147    98    99    1
   148   112   111    1
   149   107   100   am
   150   107   108    1
   151   100   101    2
   152   100    99    1
   153   108   111    1
   154   108   109    1
   155    99   102    1
   156    16    17    2
   157   163   164    1
   158   163   162    1
   159   113   111    1
   160   165   164    2
   161   164   168   am
   162   109   110    2
   163   168   169    1
   164   102   103    1
   165   103   104    1
   166   169   170    1
   167   104   106   ar
   168   104   105   ar
   169   170   171    2
