@<TRIPOS>MOLECULE
tmp/3zkfK01.pdb
 171 169 0 0 0
SMALL
GASTEIGER

@<TRIPOS>ATOM
      1  N         29.2030  172.4240   -4.6230 N.3     6  ASN6       -0.1225
      2  CA        30.6530  172.1870   -4.7090 C.3     6  ASN6        0.1785
      3  C         31.4210  173.2720   -3.9460 C.2     6  ASN6        0.2597
      4  O         31.1040  174.4540   -4.0650 O.2     6  ASN6       -0.2718
      5  CB        31.1100  172.1360   -6.1760 C.3     6  ASN6        0.1169
      6  CG        32.5390  171.6120   -6.3390 C.2     6  ASN6        0.2627
      7  OD1       33.2690  171.4180   -5.3610 O.2     6  ASN6       -0.2716
      8  ND2       32.9390  171.3870   -7.5840 N.am    6  ASN6       -0.0877
      9  N         32.4290  172.8790   -3.1700 N.am    7  ALA7       -0.1966
     10  CA        33.1510  173.8420   -2.3380 C.3     7  ALA7        0.1728
     11  C         34.5720  173.4080   -1.9180 C.2     7  ALA7        0.2616
     12  O         34.7990  172.2560   -1.5540 O.2     7  ALA7       -0.2715
     13  CB        32.3120  174.2010   -1.1210 C.3     7  ALA7        0.0334
     14  N         35.5180  174.3470   -1.9680 N.am    8  ASP8       -0.1971
     15  CA        36.9040  174.0760   -1.6080 C.3     8  ASP8        0.1709
     16  C         37.3220  174.9530   -0.4400 C.2     8  ASP8        0.2293
     17  O         38.4680  174.8930   -0.0090 O.2     8  ASP8       -0.2864
     18  CB        37.8320  174.3330   -2.8070 C.3     8  ASP8        0.1436
     19  CG        39.2420  173.7120   -2.6380 C.2     8  ASP8        0.3671
     20  OD1       39.9610  174.0220   -1.6680 O.co2   8  ASP8       -0.2456
     21  OD2       39.6520  172.9260   -3.5170 O.co2   8  ASP8       -0.2456
     22  N         21.5000  182.4710  -13.8100 N.3    56  ARG56      -0.1231
     23  CA        20.5320  181.3980  -13.7200 C.3    56  ARG56       0.1694
     24  C         20.9250  180.3350  -14.7390 C.2    56  ARG56       0.2592
     25  O         20.5960  179.1530  -14.5950 O.2    56  ARG56      -0.2718
     26  CB        19.1300  181.9270  -14.0270 C.3    56  ARG56       0.0321
     27  CG        18.2440  182.1340  -12.8100 C.3    56  ARG56       0.0489
     28  CD        16.8940  181.5160  -13.1110 C.3    56  ARG56       0.2205
     29  NE        17.0760  180.2410  -13.8110 N.pl3  56  ARG56      -0.0865
     30  CZ        16.0890  179.4820  -14.2800 C.cat  56  ARG56       0.5346
     31  NH1       14.8200  179.8580  -14.1340 N.pl3  56  ARG56       0.1354
     32  NH2       16.3750  178.3410  -14.8950 N.pl3  56  ARG56       0.1354
     33  N         21.6370  180.7740  -15.7710 N.am   57  ASN57      -0.1960
     34  CA        22.1240  179.8670  -16.7870 C.3    57  ASN57       0.1819
     35  C         23.5500  180.1820  -17.2460 C.2    57  ASN57       0.2621
     36  O         23.7680  181.0710  -18.0750 O.2    57  ASN57      -0.2715
     37  CB        21.1660  179.8360  -17.9760 C.3    57  ASN57       0.1195
     38  CG        21.6350  178.8910  -19.0680 C.2    57  ASN57       0.2630
     39  OD1       21.9520  179.3220  -20.1820 O.2    57  ASN57      -0.2716
     40  ND2       21.6940  177.5900  -18.7490 N.am   57  ASN57      -0.0877
     41  N         24.5130  179.4410  -16.6980 N.am   58  PHE58      -0.1960
     42  CA        25.9140  179.5620  -17.1150 C.3    58  PHE58       0.1771
     43  C         26.7940  178.3300  -16.7970 C.2    58  PHE58       0.2620
     44  O         26.7580  177.7440  -15.6950 O.2    58  PHE58      -0.2715
     45  CB        26.5490  180.8480  -16.5530 C.3    58  PHE58       0.0574
     46  CG        26.7940  180.8070  -15.0850 C.ar   58  PHE58      -0.0200
     47  CD1       25.8100  181.1860  -14.1920 C.ar   58  PHE58      -0.0042
     48  CD2       28.0100  180.4010  -14.5890 C.ar   58  PHE58      -0.0042
     49  CE1       26.0290  181.1580  -12.8230 C.ar   58  PHE58      -0.0003
     50  CE2       28.2370  180.3630  -13.2160 C.ar   58  PHE58      -0.0003
     51  CZ        27.2370  180.7450  -12.3360 C.ar   58  PHE58      -0.0000
     52  N         27.5900  177.9530  -17.7910 N.am   59  GLY59      -0.1940
     53  CA        28.6750  177.0240  -17.5770 C.3    59  GLY59       0.2014
     54  C         29.9650  177.7830  -17.3600 C.2    59  GLY59       0.2640
     55  O         30.1860  178.8310  -17.9680 O.2    59  GLY59      -0.2714
     56  N         30.8260  177.2610  -16.4980 N.am   60  SER60      -0.1935
     57  CA        32.1160  177.8870  -16.3040 C.3    60  SER60       0.2055
     58  C         33.3230  176.9150  -16.3560 C.2    60  SER60       0.2643
     59  O         33.1680  175.7010  -16.2570 O.2    60  SER60      -0.2714
     60  CB        32.0950  178.6610  -14.9960 C.3    60  SER60       0.2130
     61  OG        32.0900  177.7630  -13.9180 O.3    60  SER60      -0.2179
     62  N         34.5200  177.4670  -16.5540 N.am   61  TYR61      -0.1959
     63  CA        35.7600  176.7370  -16.2990 C.3    61  TYR61       0.1771
     64  C         36.8600  177.7010  -15.8150 C.2    61  TYR61       0.2619
     65  O         37.2860  178.5960  -16.5370 O.2    61  TYR61      -0.2715
     66  CB        36.2140  175.9090  -17.5240 C.3    61  TYR61       0.0574
     67  CG        37.1290  174.7460  -17.1530 C.ar   61  TYR61      -0.0198
     68  CD1       36.6030  173.5270  -16.7460 C.ar   61  TYR61      -0.0009
     69  CD2       38.5050  174.8850  -17.1780 C.ar   61  TYR61      -0.0009
     70  CE1       37.4240  172.4820  -16.3890 C.ar   61  TYR61       0.0417
     71  CE2       39.3350  173.8490  -16.8240 C.ar   61  TYR61       0.0417
     72  CZ        38.7950  172.6400  -16.4340 C.ar   61  TYR61       0.1957
     73  OH        39.6240  171.5860  -16.0790 O.3    61  TYR61      -0.2866
     74  N         37.2990  177.5170  -14.5780 N.am   62  VAL62      -0.1963
     75  CA        38.1150  178.5180  -13.9000 C.3    62  VAL62       0.1727
     76  C         39.2110  177.8320  -13.0910 C.2    62  VAL62       0.2617
     77  O         39.1500  176.6280  -12.8220 O.2    62  VAL62      -0.2715
     78  CB        37.2540  179.3780  -12.9050 C.3    62  VAL62       0.0290
     79  CG1       35.9790  179.9190  -13.5660 C.3    62  VAL62       0.0023
     80  CG2       36.8930  178.5640  -11.6570 C.3    62  VAL62       0.0023
     81  N         40.2020  178.6090  -12.6740 N.am   63  THR63      -0.1937
     82  CA        41.2840  178.0740  -11.8680 C.3    63  THR63       0.2028
     83  C         41.3180  178.8760  -10.5830 C.2    63  THR63       0.2642
     84  O         41.2180  180.0980  -10.6240 O.2    63  THR63      -0.2714
     85  CB        42.6220  178.1360  -12.6510 C.3    63  THR63       0.1808
     86  OG1       42.5090  177.3090  -13.8160 O.3    63  THR63      -0.2208
     87  CG2       43.8040  177.6810  -11.8070 C.3    63  THR63       0.0379
     88  N         41.4220  178.1950   -9.4420 N.am   64  HIS64      -0.1959
     89  CA        41.3400  178.8760   -8.1450 C.3    64  HIS64       0.1787
     90  C         42.4370  178.4760   -7.1540 C.2    64  HIS64       0.2620
     91  O         43.0270  177.3940   -7.2410 O.2    64  HIS64      -0.2715
     92  CB        39.9720  178.6270   -7.4990 C.3    64  HIS64       0.0785
     93  CG        39.7440  177.2020   -7.1160 C.ar   64  HIS64       0.0821
     94  ND1       40.2180  176.6650   -5.9380 N.ar   64  HIS64      -0.2267
     95  CD2       39.1220  176.1930   -7.7680 C.ar   64  HIS64       0.1154
     96  CE1       39.8820  175.3910   -5.8770 C.ar   64  HIS64       0.1986
     97  NE2       39.2140  175.0780   -6.9720 N.ar   64  HIS64      -0.2212
     98  N         42.7080  179.3500   -6.1990 N.am   65  GLU65      -0.1963
     99  CA        43.6230  178.9810   -5.1320 C.3    65  GLU65       0.1733
    100  C         43.0270  177.8520   -4.3080 C.2    65  GLU65       0.2617
    101  O         41.8180  177.7950   -4.0890 O.2    65  GLU65      -0.2715
    102  CB        43.9160  180.1720   -4.2330 C.3    65  GLU65       0.0429
    103  CG        44.3780  181.3840   -4.9920 C.3    65  GLU65       0.1163
    104  CD        44.8620  182.4600   -4.0640 C.2    65  GLU65       0.3649
    105  OE1       44.8250  182.2260   -2.8310 O.co2  65  GLU65      -0.2457
    106  OE2       45.2770  183.5320   -4.5660 O.co2  65  GLU65      -0.2457
    107  N         43.8770  176.9390   -3.8660 N.am   66  THR66      -0.1951
    108  CA        43.4410  175.9160   -2.9380 C.3    66  THR66       0.1897
    109  C         42.6490  176.5640   -1.7950 C.2    66  THR66       0.2313
    110  O         43.0770  177.5650   -1.2240 O.2    66  THR66      -0.2863
    111  CB        44.6400  175.1620   -2.3670 C.3    66  THR66       0.1794
    112  OG1       44.2380  174.4560   -1.1840 O.3    66  THR66      -0.2208
    113  CG2       45.7420  176.1430   -2.0080 C.3    66  THR66       0.0378
    114  N         37.3200  178.3000   -3.1940 N.3    69  PHE69      -0.1241
    115  CA        36.3190  178.0410   -4.2270 C.3    69  PHE69       0.1605
    116  C         34.9500  177.6380   -3.6460 C.2    69  PHE69       0.2264
    117  O         34.8700  177.0130   -2.5890 O.2    69  PHE69      -0.2867
    118  CB        36.8110  176.9680   -5.2090 C.3    69  PHE69       0.0534
    119  CG        35.7580  176.5180   -6.1930 C.ar   69  PHE69      -0.0203
    120  CD1       35.5970  177.1700   -7.4030 C.ar   69  PHE69      -0.0042
    121  CD2       34.9130  175.4470   -5.9010 C.ar   69  PHE69      -0.0042
    122  CE1       34.6170  176.7680   -8.3160 C.ar   69  PHE69      -0.0003
    123  CE2       33.9280  175.0410   -6.8130 C.ar   69  PHE69      -0.0003
    124  CZ        33.7810  175.7090   -8.0200 C.ar   69  PHE69      -0.0000
    125  N         30.7800  176.9470   -5.5640 N.3    71  TYR71      -0.1241
    126  CA        29.7350  177.1260   -6.5510 C.3    71  TYR71       0.1605
    127  C         28.4650  176.6360   -5.8980 C.2    71  TYR71       0.2264
    128  O         28.4060  175.4820   -5.4810 O.2    71  TYR71      -0.2867
    129  CB        30.0290  176.2780   -7.7670 C.3    71  TYR71       0.0534
    130  CG        28.9200  176.2420   -8.7920 C.ar   71  TYR71      -0.0201
    131  CD1       28.6420  177.3490   -9.5910 C.ar   71  TYR71      -0.0009
    132  CD2       28.1690  175.0950   -8.9850 C.ar   71  TYR71      -0.0009
    133  CE1       27.6320  177.3120  -10.5440 C.ar   71  TYR71       0.0417
    134  CE2       27.1600  175.0500   -9.9290 C.ar   71  TYR71       0.0417
    135  CZ        26.8960  176.1580  -10.7030 C.ar   71  TYR71       0.1957
    136  OH        25.8930  176.0880  -11.6450 O.3    71  TYR71      -0.2866
    137  N         23.7950  177.0420   -5.3580 N.3    73  TYR73      -0.1241
    138  CA        22.4940  177.5840   -5.7030 C.3    73  TYR73       0.1605
    139  C         21.8700  178.2890   -4.5110 C.2    73  TYR73       0.2264
    140  O         21.9510  177.8200   -3.3740 O.2    73  TYR73      -0.2867
    141  CB        21.5550  176.5000   -6.2190 C.3    73  TYR73       0.0534
    142  CG        21.8770  176.0100   -7.6140 C.ar   73  TYR73      -0.0201
    143  CD1       21.3480  176.6390   -8.7350 C.ar   73  TYR73      -0.0009
    144  CD2       22.7090  174.9090   -7.8120 C.ar   73  TYR73      -0.0009
    145  CE1       21.6390  176.1830  -10.0210 C.ar   73  TYR73       0.0417
    146  CE2       23.0100  174.4460   -9.0920 C.ar   73  TYR73       0.0417
    147  CZ        22.4720  175.0840  -10.1950 C.ar   73  TYR73       0.1957
    148  OH        22.7680  174.6200  -11.4690 O.3    73  TYR73      -0.2866
    149  N         22.3140  180.6330   -9.5770 N.3    78  ALA78      -0.1245
    150  CA        23.6100  180.0010   -9.3460 C.3    78  ALA78       0.1562
    151  C         24.6660  181.0450   -8.9770 C.2    78  ALA78       0.2260
    152  O         24.7690  182.0980   -9.6210 O.2    78  ALA78      -0.2867
    153  CB        24.0390  179.2000  -10.5790 C.3    78  ALA78       0.0290
    154  N         28.7190  181.4070   -8.3900 N.3    80  LEU80      -0.1245
    155  CA        30.1210  180.9880   -8.4010 C.3    80  LEU80       0.1561
    156  C         31.0450  182.0620   -7.8530 C.2    80  LEU80       0.2260
    157  O         31.1470  183.1530   -8.4180 O.2    80  LEU80      -0.2867
    158  CB        30.5620  180.6570   -9.8240 C.3    80  LEU80       0.0270
    159  CG        32.0820  180.6090  -10.0400 C.3    80  LEU80       0.0019
    160  CD1       32.7170  179.4580   -9.2590 C.3    80  LEU80       0.0001
    161  CD2       32.3810  180.5010  -11.5120 C.3    80  LEU80       0.0001
    162  N         41.7190  183.8500   -7.1980 N.3    84  SER84      -0.1202
    163  CA        42.7720  183.5220   -8.1540 C.3    84  SER84       0.2020
    164  C         43.4390  184.8140   -8.5990 C.2    84  SER84       0.2619
    165  O         42.8490  185.6200   -9.3360 O.2    84  SER84      -0.2717
    166  CB        42.2100  182.7900   -9.3650 C.3    84  SER84       0.2103
    167  OG        43.0990  182.9050  -10.4550 O.3    84  SER84      -0.2182
    168  N         44.6770  185.0050   -8.1530 N.am   85  GLY85      -0.1956
    169  CA        45.3240  186.3020   -8.2390 C.3    85  GLY85       0.1869
    170  C         45.0900  187.0510   -6.9280 C.2    85  GLY85       0.2309
    171  O         44.3920  186.5210   -6.0500 O.2    85  GLY85      -0.2863
@<TRIPOS>BOND
     1    39    38    2
     2    38    40   am
     3    38    37    1
     4    36    35    2
     5    37    34    1
     6    55    54    2
     7    52    53    1
     8    52    43   am
     9    53    54    1
    10    66    67    1
    11    66    63    1
    12    54    56   am
    13    35    34    1
    14    35    41   am
    15    69    67   ar
    16    69    71   ar
    17    67    68   ar
    18    42    43    1
    19    42    41    1
    20    42    45    1
    21    71    72   ar
    22    43    44    2
    23    34    33    1
    24    68    70   ar
    25    62    58   am
    26    62    63    1
    27    45    46    1
    28    65    64    2
    29    56    57    1
    30    72    70   ar
    31    72    73    1
    32    58    57    1
    33    58    59    2
    34    57    60    1
    35    63    64    1
    36    64    74   am
    37    33    24   am
    38    46    48   ar
    39    46    47   ar
    40    60    61    1
    41    32    30    1
    42    24    25    2
    43    24    23    1
    44    48    50   ar
    45    74    75    1
    46    30    31    1
    47    30    29    2
    48    47    49   ar
    49    26    23    1
    50    26    27    1
    51    75    76    1
    52    75    78    1
    53    86    85    1
    54    29    28    1
    55    22    23    1
    56    79    78    1
    57    50    51   ar
    58    28    27    1
    59    76    77    2
    60    76    81   am
    61    78    80    1
    62    49    51   ar
    63    81    82    1
    64    85    82    1
    65    85    87    1
    66    82    83    1
    67   136   135    1
    68   161   159    1
    69   148   147    1
    70   135   133   ar
    71   135   134   ar
    72    84    83    2
    73    83    88   am
    74   153   150    1
    75   133   131   ar
    76   167   166    1
    77   147   145   ar
    78   147   146   ar
    79   159   158    1
    80   159   160    1
    81   145   143   ar
    82   134   132   ar
    83   158   155    1
    84   152   151    2
    85   131   130   ar
    86   149   150    1
    87    88    89    1
    88   166   163    1
    89   150   151    1
    90   165   164    2
    91   146   144   ar
    92   132   130   ar
    93   130   129    1
    94   143   142   ar
    95   164   163    1
    96   164   168   am
    97   157   156    2
    98   155   154    1
    99   155   156    1
   100   122   124   ar
   101   122   120   ar
   102   169   168    1
   103   169   170    1
   104   163   162    1
   105    89    92    1
   106    89    90    1
   107   124   123   ar
   108   144   142   ar
   109    95    93   ar
   110    95    97   ar
   111   129   126    1
   112   142   141    1
   113     8     6   am
   114    92    93    1
   115   120   119   ar
   116    91    90    2
   117    90    98   am
   118    93    94   ar
   119    97    96   ar
   120   170   171    2
   121   123   121   ar
   122   126   127    1
   123   126   125    1
   124     6     5    1
   125     6     7    2
   126   141   138    1
   127    98    99    1
   128   119   121   ar
   129   119   118    1
   130     5     2    1
   131    94    96   ar
   132   127   128    2
   133   138   137    1
   134   138   139    1
   135   118   115    1
   136    99   100    1
   137    99   102    1
   138   103   102    1
   139   103   104    1
   140     2     1    1
   141     2     3    1
   142   106   104   ar
   143   139   140    2
   144   100   101    2
   145   100   107   am
   146   115   116    1
   147   115   114    1
   148     4     3    2
   149   104   105   ar
   150     3     9   am
   151   107   108    1
   152   116   117    2
   153    21    19   ar
   154     9    10    1
   155   108   111    1
   156   108   109    1
   157    18    19    1
   158    18    15    1
   159    19    20   ar
   160   111   113    1
   161   111   112    1
   162    10    11    1
   163    10    13    1
   164    14    11   am
   165    14    15    1
   166    11    12    2
   167   109   110    2
   168    15    16    1
   169    16    17    2
