@<TRIPOS>MOLECULE
tmp/3zkfK00.pdb
 79 74 0 0 0
SMALL
GASTEIGER

@<TRIPOS>ATOM
      1  N         19.7650  193.3380   -9.9010 N.3    30  ILE30      -0.1231
      2  CA        20.5630  193.0610  -11.0810 C.3    30  ILE30       0.1692
      3  C         21.7300  192.1750  -10.7000 C.2    30  ILE30       0.2592
      4  O         22.4800  192.4820   -9.7770 O.2    30  ILE30      -0.2718
      5  CB        21.0620  194.3400  -11.7330 C.3    30  ILE30       0.0266
      6  CG1       20.0100  195.4430  -11.5690 C.3    30  ILE30       0.0019
      7  CG2       21.4110  194.0810  -13.2090 C.3    30  ILE30       0.0020
      8  CD1       20.5110  196.8240  -11.9320 C.3    30  ILE30       0.0001
      9  N         21.8530  191.0520  -11.3990 N.am   31  GLU31      -0.1966
     10  CA        22.8880  190.0650  -11.0870 C.3    31  GLU31       0.1733
     11  C         24.2730  190.7090  -10.9120 C.2    31  GLU31       0.2616
     12  O         24.9480  190.5030   -9.8850 O.2    31  GLU31      -0.2715
     13  CB        22.9140  188.9540  -12.1470 C.3    31  GLU31       0.0429
     14  CG        21.8390  187.8890  -11.9520 C.3    31  GLU31       0.1163
     15  CD        21.3530  187.2690  -13.2560 C.2    31  GLU31       0.3649
     16  OE1       21.7980  187.6890  -14.3540 O.co2  31  GLU31      -0.2457
     17  OE2       20.5110  186.3470  -13.1750 O.co2  31  GLU31      -0.2457
     18  N         24.6840  191.5090  -11.8910 N.am   32  LYS32      -0.1977
     19  CA        25.9570  192.2220  -11.7760 C.3    32  LYS32       0.1596
     20  C         26.1280  192.9090  -10.4150 C.2    32  LYS32       0.2287
     21  O         27.2040  192.8620   -9.8100 O.2    32  LYS32      -0.2864
     22  CB        26.1340  193.2410  -12.8980 C.3    32  LYS32       0.0298
     23  CG        27.4210  194.0070  -12.7740 C.3    32  LYS32       0.0038
     24  CD        27.1730  195.4950  -12.8870 C.3    32  LYS32       0.0206
     25  CE        26.5810  195.8330  -14.2400 C.3    32  LYS32       0.1093
     26  NZ        26.3810  197.2990  -14.3850 N.3    32  LYS32      -0.1314
     27  N         31.5910  190.1050   -4.4840 N.3    39  LYS39      -0.1231
     28  CA        32.9820  190.1390   -4.8950 C.3    39  LYS39       0.1693
     29  C         33.7830  191.1840   -4.1080 C.2    39  LYS39       0.2591
     30  O         34.8290  190.8530   -3.5310 O.2    39  LYS39      -0.2718
     31  CB        33.1030  190.3470   -6.4100 C.3    39  LYS39       0.0285
     32  CG        34.5040  190.1200   -6.9600 C.3    39  LYS39       0.0035
     33  CD        35.4310  191.3020   -6.6590 C.3    39  LYS39       0.0206
     34  CE        35.9370  191.9700   -7.9370 C.3    39  LYS39       0.1093
     35  NZ        37.4120  192.1460   -7.8790 N.3    39  LYS39      -0.1314
     36  N         33.2980  192.4290   -4.0770 N.am   40  LYS40      -0.1980
     37  CA        34.0050  193.5090   -3.3790 C.3    40  LYS40       0.1596
     38  C         34.0970  193.2580   -1.8750 C.2    40  LYS40       0.2287
     39  O         35.1110  193.5730   -1.2380 O.2    40  LYS40      -0.2864
     40  CB        33.3640  194.8690   -3.6580 C.3    40  LYS40       0.0298
     41  CG        33.6630  195.4090   -5.0360 C.3    40  LYS40       0.0038
     42  CD        33.4190  196.9080   -5.1270 C.3    40  LYS40       0.0206
     43  CE        32.1360  197.2280   -5.8710 C.3    40  LYS40       0.1093
     44  NZ        32.1210  198.6670   -6.2400 N.3    40  LYS40      -0.1314
     45  N         36.9240  190.6460   -1.4140 N.3    43  ASP43      -0.1239
     46  CA        38.2050  191.3210   -1.5960 C.3    43  ASP43       0.1674
     47  C         38.6100  192.0710   -0.3370 C.2    43  ASP43       0.2266
     48  O         39.7530  191.9920    0.1000 O.2    43  ASP43      -0.2867
     49  CB        38.1560  192.2760   -2.7860 C.3    43  ASP43       0.1410
     50  CG        38.5150  191.5920   -4.0820 C.2    43  ASP43       0.3668
     51  OD1       38.7480  190.3620   -4.0440 O.co2  43  ASP43      -0.2456
     52  OD2       38.5740  192.2780   -5.1300 O.co2  43  ASP43      -0.2456
     53  N         42.5670  188.3640   -4.9510 N.3    49  THR49      -0.1218
     54  CA        41.5630  188.8650   -5.8780 C.3    49  THR49       0.1862
     55  C         40.4510  187.8370   -6.0200 C.2    49  THR49       0.2287
     56  O         40.7140  186.6860   -6.3610 O.2    49  THR49      -0.2866
     57  CB        42.1540  189.0500   -7.2730 C.3    49  THR49       0.1770
     58  OG1       43.4380  189.6690   -7.1710 O.3    49  THR49      -0.2211
     59  CG2       41.2460  189.9030   -8.1210 C.3    49  THR49       0.0375
     60  N         36.5390  186.6610   -7.6290 N.3    51  HIS51      -0.1241
     61  CA        35.7040  186.8350   -8.8090 C.3    51  HIS51       0.1621
     62  C         34.3720  186.2120   -8.5010 C.2    51  HIS51       0.2264
     63  O         34.2920  185.2060   -7.7930 O.2    51  HIS51      -0.2867
     64  CB        36.3330  186.1610  -10.0250 C.3    51  HIS51       0.0745
     65  CG        37.7920  186.4320  -10.1540 C.ar   51  HIS51       0.0817
     66  ND1       38.2970  187.3970  -10.9990 N.ar   51  HIS51      -0.2268
     67  CD2       38.8570  185.9060   -9.5050 C.ar   51  HIS51       0.1154
     68  CE1       39.6110  187.4330  -10.8860 C.ar   51  HIS51       0.1986
     69  NE2       39.9750  186.5390   -9.9860 N.ar   51  HIS51      -0.2212
     70  N         41.7190  183.8500   -7.1980 N.3    84  SER84      -0.1202
     71  CA        42.7720  183.5220   -8.1540 C.3    84  SER84       0.2020
     72  C         43.4390  184.8140   -8.5990 C.2    84  SER84       0.2619
     73  O         42.8490  185.6200   -9.3360 O.2    84  SER84      -0.2717
     74  CB        42.2100  182.7900   -9.3650 C.3    84  SER84       0.2103
     75  OG        43.0990  182.9050  -10.4550 O.3    84  SER84      -0.2182
     76  N         44.6770  185.0050   -8.1530 N.am   85  GLY85      -0.1956
     77  CA        45.3240  186.3020   -8.2390 C.3    85  GLY85       0.1869
     78  C         45.0900  187.0510   -6.9280 C.2    85  GLY85       0.2309
     79  O         44.3920  186.5210   -6.0500 O.2    85  GLY85      -0.2863
@<TRIPOS>BOND
     1    26    25    1
     2    16    15   ar
     3    25    24    1
     4    15    17   ar
     5    15    14    1
     6     7     5    1
     7    22    23    1
     8    22    19    1
     9    24    23    1
    10    13    14    1
    11    13    10    1
    12     8     6    1
    13    18    19    1
    14    18    11   am
    15    19    20    1
    16     5     6    1
    17     5     2    1
    18     9    10    1
    19     9     3   am
    20    10    11    1
    21     2     3    1
    22     2     1    1
    23    66    68   ar
    24    66    65   ar
    25    11    12    2
    26    68    69   ar
    27     3     4    2
    28    75    74    1
    29    20    21    2
    30    65    64    1
    31    65    67   ar
    32    64    61    1
    33    69    67   ar
    34    74    71    1
    35    73    72    2
    36    61    62    1
    37    61    60    1
    38    72    71    1
    39    72    76   am
    40    62    63    2
    41    77    76    1
    42    77    78    1
    43    71    70    1
    44    59    57    1
    45    34    35    1
    46    34    33    1
    47    57    58    1
    48    57    54    1
    49    32    33    1
    50    32    31    1
    51    78    79    2
    52    31    28    1
    53    56    55    2
    54    44    43    1
    55    55    54    1
    56    54    53    1
    57    43    42    1
    58    52    50   ar
    59    42    41    1
    60    41    40    1
    61    28    27    1
    62    28    29    1
    63    29    36   am
    64    29    30    2
    65    50    51   ar
    66    50    49    1
    67    36    37    1
    68    40    37    1
    69    37    38    1
    70    49    46    1
    71    38    39    2
    72    46    45    1
    73    46    47    1
    74    47    48    2
