@<TRIPOS>MOLECULE
tmp/3zkkA01.pdb
 216 208 0 0 0
SMALL
GASTEIGER

@<TRIPOS>ATOM
      1  N         38.3830   42.5920   46.6680 N.3    10  ASN10      -0.1225
      2  CA        37.8180   41.6330   45.7220 C.3    10  ASN10       0.1785
      3  C         36.6070   40.8610   46.2500 C.2    10  ASN10       0.2597
      4  O         36.2620   39.8060   45.7200 O.2    10  ASN10      -0.2718
      5  CB        38.8970   40.6870   45.1370 C.3    10  ASN10       0.1169
      6  CG        39.3310   39.5900   46.1020 C.2    10  ASN10       0.2627
      7  OD1       39.0980   39.6720   47.3030 O.2    10  ASN10      -0.2716
      8  ND2       39.9960   38.5630   45.5700 N.am   10  ASN10      -0.0877
      9  N         35.9740   41.3930   47.2900 N.am   11  ALA11      -0.1966
     10  CA        34.6900   40.8650   47.7470 C.3    11  ALA11       0.1728
     11  C         33.5640   41.4710   46.8940 C.2    11  ALA11       0.2617
     12  O         32.9980   42.5150   47.2090 O.2    11  ALA11      -0.2715
     13  CB        34.4960   41.1370   49.2250 C.3    11  ALA11       0.0334
     14  N         33.2810   40.8050   45.7840 N.am   12  SER12      -0.1936
     15  CA        32.3300   41.2750   44.7800 C.3    12  SER12       0.2055
     16  C         30.8970   41.4270   45.2730 C.2    12  SER12       0.2642
     17  O         30.1950   42.3540   44.8570 O.2    12  SER12      -0.2714
     18  CB        32.2990   40.2940   43.6020 C.3    12  SER12       0.2130
     19  OG        33.2790   40.6090   42.6420 O.3    12  SER12      -0.2179
     20  N         30.4480   40.4970   46.1170 N.am   13  ALA13      -0.1977
     21  CA        29.0410   40.4610   46.5300 C.3    13  ALA13       0.1597
     22  C         28.8770   40.0030   47.9730 C.2    13  ALA13       0.2287
     23  O         29.8720   39.7360   48.6680 O.2    13  ALA13      -0.2864
     24  CB        28.2430   39.5490   45.6060 C.3    13  ALA13       0.0319
     25  N         27.8040   39.2860   52.0080 N.3    15  GLU15      -0.1231
     26  CA        28.2940   39.7310   53.3010 C.3    15  GLU15       0.1699
     27  C         29.7080   40.3060   53.2520 C.2    15  GLU15       0.2592
     28  O         30.0160   41.2770   53.9470 O.2    15  GLU15      -0.2718
     29  CB        28.2700   38.5350   54.2450 C.3    15  GLU15       0.0402
     30  CG        28.1920   38.8690   55.7170 C.3    15  GLU15       0.1161
     31  CD        27.7530   37.6650   56.5410 C.2    15  GLU15       0.3649
     32  OE1       27.6130   36.5650   55.9520 O.co2  15  GLU15      -0.2457
     33  OE2       27.5480   37.8160   57.7690 O.co2  15  GLU15      -0.2457
     34  N         30.5720   39.6940   52.4460 N.am   16  GLY16      -0.1957
     35  CA        31.9440   40.1480   52.3020 C.3    16  GLY16       0.1869
     36  C         32.0030   41.5730   51.7950 C.2    16  GLY16       0.2309
     37  O         32.7050   42.4220   52.3580 O.2    16  GLY16      -0.2863
     38  N         35.8980   42.1020   40.9210 N.3    42  GLN42      -0.1231
     39  CA        35.8990   40.6480   40.8490 C.3    42  GLN42       0.1698
     40  C         37.3470   40.1530   40.6420 C.2    42  GLN42       0.2592
     41  O         38.1570   40.8140   39.9870 O.2    42  GLN42      -0.2718
     42  CB        34.9330   40.1630   39.7560 C.3    42  GLN42       0.0381
     43  CG        34.4230   38.7300   39.9380 C.3    42  GLN42       0.0905
     44  CD        35.4780   37.6840   39.5750 C.2    42  GLN42       0.2608
     45  OE1       36.1890   37.8250   38.5800 O.2    42  GLN42      -0.2717
     46  NE2       35.5770   36.6350   40.3800 N.am   42  GLN42      -0.0878
     47  N         37.6730   39.0110   41.2350 N.am   43  ASN43      -0.1960
     48  CA        39.0660   38.5720   41.3420 C.3    43  ASN43       0.1819
     49  C         39.8150   38.5150   40.0170 C.2    43  ASN43       0.2621
     50  O         40.9440   38.9720   39.9240 O.2    43  ASN43      -0.2715
     51  CB        39.1690   37.2150   42.0520 C.3    43  ASN43       0.1195
     52  CG        40.6150   36.8620   42.4320 C.2    43  ASN43       0.2630
     53  OD1       41.1950   37.4970   43.3060 O.2    43  ASN43      -0.2716
     54  ND2       41.1870   35.8480   41.7800 N.am   43  ASN43      -0.0877
     55  N         39.1790   37.9670   38.9930 N.am   44  GLU44      -0.1977
     56  CA        39.8540   37.7280   37.7260 C.3    44  GLU44       0.1602
     57  C         40.1620   39.0090   36.9670 C.2    44  GLU44       0.2287
     58  O         40.9830   38.9990   36.0420 O.2    44  GLU44      -0.2864
     59  CB        39.0190   36.7930   36.8570 C.3    44  GLU44       0.0415
     60  CG        38.6590   35.5130   37.5700 C.3    44  GLU44       0.1163
     61  CD        39.8840   34.8290   38.1420 C.2    44  GLU44       0.3649
     62  OE1       40.8570   34.6120   37.3670 O.co2  44  GLU44      -0.2457
     63  OE2       39.8770   34.5310   39.3640 O.co2  44  GLU44      -0.2457
     64  N         44.2440   45.2870   47.7230 N.3    65  MET65      -0.1245
     65  CA        44.6170   43.9140   47.9770 C.3    65  MET65       0.1570
     66  C         45.8590   43.6110   47.1650 C.2    65  MET65       0.2261
     67  O         45.9720   44.0400   46.0150 O.2    65  MET65      -0.2867
     68  CB        43.4920   42.9780   47.5550 C.3    65  MET65       0.0387
     69  CG        43.6300   41.5750   48.0860 C.3    65  MET65       0.0595
     70  SD        42.5070   40.4360   47.2590 S.3    65  MET65      -0.1393
     71  CE        43.1980   40.4200   45.6050 C.3    65  MET65       0.0692
     72  N         54.5340   38.5840   42.6310 N.3    71  LYS71      -0.1245
     73  CA        53.7220   39.6100   42.0090 C.3    71  LYS71       0.1561
     74  C         53.6900   40.8750   42.8660 C.2    71  LYS71       0.2260
     75  O         53.6970   41.9810   42.3380 O.2    71  LYS71      -0.2867
     76  CB        52.3120   39.0720   41.7270 C.3    71  LYS71       0.0271
     77  CG        52.3320   37.8020   40.8860 C.3    71  LYS71       0.0035
     78  CD        50.9430   37.4310   40.3930 C.3    71  LYS71       0.0206
     79  CE        50.9990   36.2200   39.4950 C.3    71  LYS71       0.1093
     80  NZ        49.6560   35.8640   39.0100 N.3    71  LYS71      -0.1314
     81  N         44.9190   31.2430   53.9380 N.3   117  GLU117     -0.1245
     82  CA        44.0190   30.3640   53.2150 C.3   117  GLU117      0.1567
     83  C         44.7020   29.1960   52.4940 C.2   117  GLU117      0.2260
     84  O         44.9210   29.2470   51.2810 O.2   117  GLU117     -0.2867
     85  CB        43.1620   31.2070   52.2580 C.3   117  GLU117      0.0388
     86  CG        42.0560   31.9680   53.0010 C.3   117  GLU117      0.1160
     87  CD        41.4580   33.1360   52.2340 C.2   117  GLU117      0.3649
     88  OE1       41.8420   33.3870   51.0750 O.co2 117  GLU117     -0.2457
     89  OE2       40.5920   33.8170   52.8100 O.co2 117  GLU117     -0.2457
     90  N         44.1850   29.2620   36.4210 N.3   166  TRP166     -0.1241
     91  CA        44.7010   28.8720   37.7270 C.3   166  TRP166      0.1605
     92  C         44.0150   27.7060   38.4740 C.2   166  TRP166      0.2264
     93  O         44.7160   26.9090   39.1040 O.2   166  TRP166     -0.2867
     94  CB        44.9050   30.0880   38.6480 C.3   166  TRP166      0.0550
     95  CG        43.6440   30.7570   39.1430 C.ar  166  TRP166      0.0003
     96  CD1       43.0400   31.8550   38.6030 C.ar  166  TRP166      0.0946
     97  CD2       42.8600   30.3920   40.2940 C.ar  166  TRP166      0.0152
     98  NE1       41.9340   32.1920   39.3350 N.ar  166  TRP166     -0.2442
     99  CE2       41.7890   31.3110   40.3720 C.ar  166  TRP166      0.0810
    100  CE3       42.9460   29.3710   41.2460 C.ar  166  TRP166      0.0012
    101  CZ2       40.8040   31.2410   41.3680 C.ar  166  TRP166      0.0191
    102  CZ3       41.9850   29.3080   42.2420 C.ar  166  TRP166      0.0001
    103  CH2       40.9190   30.2380   42.2920 C.ar  166  TRP166      0.0015
    104  N         46.1580   24.4570   39.8130 N.3   170  HIS170     -0.1241
    105  CA        46.3610   24.0270   41.2060 C.3   170  HIS170      0.1621
    106  C         46.6110   22.5190   41.3320 C.2   170  HIS170      0.2264
    107  O         47.2970   22.0780   42.2470 O.2   170  HIS170     -0.2867
    108  CB        45.2070   24.4470   42.1250 C.3   170  HIS170      0.0745
    109  CG        45.2840   25.8700   42.5860 C.ar  170  HIS170      0.0817
    110  ND1       44.8300   26.2770   43.8240 N.ar  170  HIS170     -0.2268
    111  CD2       45.7460   26.9850   41.9700 C.ar  170  HIS170      0.1154
    112  CE1       45.0170   27.5800   43.9500 C.ar  170  HIS170      0.1986
    113  NE2       45.5820   28.0310   42.8440 N.ar  170  HIS170     -0.2212
    114  N         34.5790   31.1190   40.3600 N.3   225  GLN225     -0.1245
    115  CA        33.8030   31.7680   41.4020 C.3   225  GLN225      0.1566
    116  C         32.6110   32.5930   40.8920 C.2   225  GLN225      0.2260
    117  O         31.9940   33.3240   41.6580 O.2   225  GLN225     -0.2867
    118  CB        34.7260   32.6280   42.2710 C.3   225  GLN225      0.0367
    119  CG        35.7780   31.8050   42.9850 C.3   225  GLN225      0.0905
    120  CD        36.8430   32.6390   43.6850 C.2   225  GLN225      0.2608
    121  OE1       37.1580   33.7680   43.2850 O.2   225  GLN225     -0.2717
    122  NE2       37.3700   32.0910   44.7650 N.am  225  GLN225     -0.0878
    123  N         39.3810   30.0040   51.1820 N.3   248  TRP248     -0.1241
    124  CA        38.2950   30.9640   50.9820 C.3   248  TRP248      0.1605
    125  C         37.0160   30.2110   50.6290 C.2   248  TRP248      0.2264
    126  O         35.9140   30.7830   50.6010 O.2   248  TRP248     -0.2867
    127  CB        38.6490   31.9130   49.8440 C.3   248  TRP248      0.0550
    128  CG        39.0020   31.2000   48.5660 C.ar  248  TRP248      0.0003
    129  CD1       38.1400   30.5730   47.7030 C.ar  248  TRP248      0.0946
    130  CD2       40.3160   31.0430   48.0010 C.ar  248  TRP248      0.0152
    131  NE1       38.8430   30.0310   46.6430 N.ar  248  TRP248     -0.2442
    132  CE2       40.1740   30.3190   46.7980 C.ar  248  TRP248      0.0810
    133  CE3       41.5980   31.4480   48.3980 C.ar  248  TRP248      0.0012
    134  CZ2       41.2640   29.9830   45.9990 C.ar  248  TRP248      0.0191
    135  CZ3       42.6720   31.1250   47.6000 C.ar  248  TRP248      0.0001
    136  CH2       42.5050   30.3900   46.4190 C.ar  248  TRP248      0.0015
    137  N         33.1780   30.2810   52.3680 N.3   251  GLY251     -0.1210
    138  CA        32.4990   31.5430   52.1410 C.3   251  GLY251      0.1956
    139  C         31.9850   31.6750   50.7220 C.2   251  GLY251      0.2611
    140  O         30.8780   32.1670   50.5040 O.2   251  GLY251     -0.2717
    141  N         32.7840   31.2370   49.7560 N.am  252  VAL252     -0.1979
    142  CA        32.3920   31.2760   48.3530 C.3   252  VAL252      0.1595
    143  C         31.1830   30.3650   48.1250 C.2   252  VAL252      0.2287
    144  O         30.1980   30.7540   47.4890 O.2   252  VAL252     -0.2864
    145  CB        33.5700   30.8620   47.4330 C.3   252  VAL252      0.0276
    146  CG1       33.1260   30.7480   45.9830 C.3   252  VAL252      0.0022
    147  CG2       34.6990   31.8730   47.5460 C.3   252  VAL252      0.0022
    148  N         29.0780   29.3280   50.3180 N.3   254  LYS254     -0.1231
    149  CA        27.9400   29.8290   51.0720 C.3   254  LYS254      0.1693
    150  C         27.1010   30.7810   50.2310 C.2   254  LYS254      0.2592
    151  O         25.8760   30.8020   50.3630 O.2   254  LYS254     -0.2718
    152  CB        28.4070   30.5320   52.3480 C.3   254  LYS254      0.0285
    153  CG        27.2630   31.0800   53.1730 C.3   254  LYS254      0.0035
    154  CD        27.7720   31.9730   54.2760 C.3   254  LYS254      0.0206
    155  CE        28.6930   33.0470   53.7230 C.3   254  LYS254      0.1093
    156  NZ        28.9130   34.1090   54.7360 N.3   254  LYS254     -0.1314
    157  N         27.7530   31.5550   49.3620 N.am  255  ASP255     -0.1974
    158  CA        27.0520   32.5270   48.5230 C.3   255  ASP255      0.1709
    159  C         26.4880   31.9310   47.2360 C.2   255  ASP255      0.2293
    160  O         25.8330   32.6260   46.4550 O.2   255  ASP255     -0.2864
    161  CB        27.9340   33.7310   48.2100 C.3   255  ASP255      0.1436
    162  CG        28.0890   34.6550   49.3960 C.2   255  ASP255      0.3671
    163  OD1       27.6950   34.2580   50.5160 O.co2 255  ASP255     -0.2456
    164  OD2       28.6190   35.7710   49.2140 O.co2 255  ASP255     -0.2456
    165  N         46.0740   36.7190   52.2350 N.3   289  THR289     -0.1218
    166  CA        45.5330   37.9610   51.7180 C.3   289  THR289      0.1862
    167  C         45.9490   39.0950   52.6280 C.2   289  THR289      0.2287
    168  O         45.7540   39.0360   53.8440 O.2   289  THR289     -0.2866
    169  CB        44.0020   37.9210   51.5990 C.3   289  THR289      0.1770
    170  OG1       43.6380   37.0470   50.5290 O.3   289  THR289     -0.2211
    171  CG2       43.4500   39.3160   51.3080 C.3   289  THR289      0.0375
    172  N         32.2390   37.0140   58.2730 N.3   320  ALA320     -0.1231
    173  CA        31.7150   37.5060   57.0020 C.3   320  ALA320      0.1694
    174  C         32.2080   36.6880   55.8070 C.2   320  ALA320      0.2592
    175  O         31.4600   36.4310   54.8590 O.2   320  ALA320     -0.2718
    176  CB        32.0540   38.9860   56.8220 C.3   320  ALA320      0.0304
    177  N         33.4630   36.2640   55.8690 N.am  321  PHE321     -0.1976
    178  CA        34.0800   35.5470   54.7610 C.3   321  PHE321      0.1639
    179  C         34.1410   34.0340   54.9720 C.2   321  PHE321      0.2290
    180  O         34.6150   33.3030   54.0960 O.2   321  PHE321     -0.2864
    181  CB        35.4750   36.1260   54.4790 C.3   321  PHE321      0.0560
    182  CG        35.4340   37.4730   53.8320 C.ar  321  PHE321     -0.0200
    183  CD1       35.3800   38.6300   54.5990 C.ar  321  PHE321     -0.0042
    184  CD2       35.4010   37.5910   52.4590 C.ar  321  PHE321     -0.0042
    185  CE1       35.3290   39.8840   53.9990 C.ar  321  PHE321     -0.0003
    186  CE2       35.3400   38.8420   51.8580 C.ar  321  PHE321     -0.0003
    187  CZ        35.3210   39.9850   52.6280 C.ar  321  PHE321     -0.0000
    188  N         50.9200   30.0970   46.6370 N.3   355  TRP355     -0.1241
    189  CA        50.4940   29.5700   45.3520 C.3   355  TRP355      0.1605
    190  C         51.6670   29.6560   44.3790 C.2   355  TRP355      0.2264
    191  O         52.4260   30.6260   44.3880 O.2   355  TRP355     -0.2867
    192  CB        49.2830   30.3360   44.8080 C.3   355  TRP355      0.0550
    193  CG        48.1460   30.3780   45.7680 C.ar  355  TRP355      0.0003
    194  CD1       47.5960   31.4910   46.3380 C.ar  355  TRP355      0.0946
    195  CD2       47.4270   29.2540   46.3000 C.ar  355  TRP355      0.0152
    196  NE1       46.5740   31.1330   47.1830 N.ar  355  TRP355     -0.2442
    197  CE2       46.4450   29.7680   47.1780 C.ar  355  TRP355      0.0810
    198  CE3       47.5160   27.8700   46.1180 C.ar  355  TRP355      0.0012
    199  CZ2       45.5520   28.9450   47.8690 C.ar  355  TRP355      0.0191
    200  CZ3       46.6410   27.0500   46.8130 C.ar  355  TRP355      0.0001
    201  CH2       45.6630   27.5920   47.6730 C.ar  355  TRP355      0.0015
    202  N         51.8320   29.9880   41.0450 N.3   357  ASP357     -0.1225
    203  CA        51.8460   31.0580   40.0510 C.3   357  ASP357      0.1805
    204  C         52.1920   32.3910   40.6830 C.2   357  ASP357      0.2598
    205  O         52.9250   33.2020   40.1070 O.2   357  ASP357     -0.2718
    206  CB        50.5860   31.1100   39.1840 C.3   357  ASP357      0.1424
    207  CG        49.2780   31.2990   39.9740 C.2   357  ASP357      0.3668
    208  OD1       49.1740   30.9780   41.1830 O.co2 357  ASP357     -0.2456
    209  OD2       48.3220   31.7460   39.3110 O.co2 357  ASP357     -0.2456
    210  N         51.7150   32.5640   41.9060 N.am  358  THR358     -0.1953
    211  CA        52.0320   33.7180   42.7350 C.3   358  THR358      0.1897
    212  C         53.5450   33.7590   43.0810 C.2   358  THR358      0.2313
    213  O         54.1880   34.8210   43.0340 O.2   358  THR358     -0.2863
    214  CB        51.1310   33.6720   43.9920 C.3   358  THR358      0.1794
    215  OG1       49.7590   33.8630   43.5900 O.3   358  THR358     -0.2208
    216  CG2       51.4850   34.7130   44.9660 C.3   358  THR358      0.0378
@<TRIPOS>BOND
     1    58    57    2
     2    90    91    1
     3    59    60    1
     4    59    56    1
     5    57    56    1
     6    62    61   ar
     7    60    61    1
     8    56    55    1
     9    91    92    1
    10    91    94    1
    11    61    63   ar
    12    92    93    2
    13    45    44    2
    14    96    95   ar
    15    96    98   ar
    16    94    95    1
    17    55    49   am
    18    80    79    1
    19    95    97   ar
    20   206   207    1
    21   206   203    1
    22   209   207   ar
    23    98    99   ar
    24    79    78    1
    25    44    43    1
    26    44    46   am
    27    42    43    1
    28    42    39    1
    29   104   105    1
    30    50    49    2
    31   207   208   ar
    32    41    40    2
    33    49    48    1
    34   203   204    1
    35   203   202    1
    36   205   204    2
    37    97    99   ar
    38    97   100   ar
    39   114   115    1
    40    99   101   ar
    41    78    77    1
    42    40    39    1
    43    40    47   am
    44   204   210   am
    45    39    38    1
    46    77    76    1
    47   116   115    1
    48   116   117    2
    49   105   106    1
    50   105   108    1
    51    47    48    1
    52   100   102   ar
    53   106   107    2
    54    48    51    1
    55   101   103   ar
    56   115   118    1
    57    76    73    1
    58    54    52   am
    59   210   211    1
    60   111   109   ar
    61   111   113   ar
    62    73    72    1
    63    73    74    1
    64    51    52    1
    65   108   109    1
    66   102   103   ar
    67   118   119    1
    68    75    74    2
    69    52    53    2
    70   109   110   ar
    71    19    18    1
    72   211   212    1
    73   211   214    1
    74   113   112   ar
    75   119   120    1
    76   213   212    2
    77   121   120    2
    78   215   214    1
    79    18    15    1
    80   120   122   am
    81   110   112   ar
    82   214   216    1
    83   190   191    2
    84   190   189    1
    85    15    16    1
    86    15    14    1
    87   192   189    1
    88   192   193    1
    89    17    16    2
    90     5     2    1
    91     5     6    1
    92    16    20   am
    93   189   188    1
    94     8     6   am
    95    71    70    1
    96    24    21    1
    97     4     3    2
    98     2     3    1
    99     2     1    1
   100   193   195   ar
   101   193   194   ar
   102    14    11   am
   103   146   145    1
   104   134   136   ar
   105   134   132   ar
   106    67    66    2
   107     6     7    2
   108    20    21    1
   109   198   195   ar
   110   198   200   ar
   111     3     9   am
   112   195   197   ar
   113   194   196   ar
   114   136   135   ar
   115   160   159    2
   116    21    22    1
   117   131   132   ar
   118   131   129   ar
   119   132   130   ar
   120   200   201   ar
   121    11    12    2
   122    11    10    1
   123    66    65    1
   124   197   196   ar
   125   197   199   ar
   126   159   158    1
   127    70    69    1
   128     9    10    1
   129   145   147    1
   130   145   142    1
   131   144   143    2
   132    68    65    1
   133    68    69    1
   134   135   133   ar
   135   201   199   ar
   136   129   128   ar
   137    64    65    1
   138    10    13    1
   139    22    23    2
   140   130   133   ar
   141   130   128   ar
   142   143   142    1
   143   161   158    1
   144   161   162    1
   145   142   141    1
   146   158   157    1
   147   128   127    1
   148   164   162   ar
   149   157   150   am
   150   162   163   ar
   151   141   139   am
   152   127   124    1
   153   150   151    2
   154   150   149    1
   155   148   149    1
   156   140   139    2
   157   170   169    1
   158   126   125    2
   159   125   124    1
   160   139   138    1
   161   124   123    1
   162   149   152    1
   163    88    87   ar
   164    84    83    2
   165   171   169    1
   166   169   166    1
   167   166   165    1
   168   166   167    1
   169    36    35    1
   170    36    37    2
   171   186   184   ar
   172   186   187   ar
   173    25    26    1
   174   138   137    1
   175    87    89   ar
   176    87    86    1
   177    85    86    1
   178    85    82    1
   179    35    34    1
   180   152   153    1
   181    34    27   am
   182   184   182   ar
   183    83    82    1
   184   167   168    2
   185   187   185   ar
   186   153   154    1
   187    82    81    1
   188    27    26    1
   189    27    28    2
   190    26    29    1
   191   155   154    1
   192   155   156    1
   193   182   181    1
   194   182   183   ar
   195   185   183   ar
   196   180   179    2
   197    29    30    1
   198   181   178    1
   199   178   179    1
   200   178   177    1
   201   175   174    2
   202    30    31    1
   203   174   177   am
   204   174   173    1
   205    32    31   ar
   206    31    33   ar
   207   176   173    1
   208   173   172    1
