@<TRIPOS>MOLECULE
tmp/3zklA02.pdb
 181 175 0 0 0
SMALL
GASTEIGER

@<TRIPOS>ATOM
      1  N         38.8490   42.6450   46.5790 N.3    10  ASN10      -0.1225
      2  CA        38.3300   41.6470   45.6370 C.3    10  ASN10       0.1785
      3  C         37.1560   40.8030   46.1760 C.2    10  ASN10       0.2597
      4  O         36.8670   39.7240   45.6480 O.2    10  ASN10      -0.2718
      5  CB        39.4610   40.7330   45.1190 C.3    10  ASN10       0.1169
      6  CG        39.8110   39.6160   46.0940 C.2    10  ASN10       0.2627
      7  OD1       39.5050   39.6990   47.2840 O.2    10  ASN10      -0.2716
      8  ND2       40.4590   38.5620   45.5920 N.am   10  ASN10      -0.0877
      9  N         36.5080   41.2830   47.2360 N.am   11  ALA11      -0.1966
     10  CA        35.3730   40.5730   47.8010 C.3    11  ALA11       0.1728
     11  C         34.1720   40.6940   46.8610 C.2    11  ALA11       0.2617
     12  O         33.6370   41.7780   46.6600 O.2    11  ALA11      -0.2715
     13  CB        35.0430   41.0990   49.1790 C.3    11  ALA11       0.0334
     14  N         33.7890   39.5690   46.2670 N.am   12  SER12      -0.1936
     15  CA        32.6910   39.5040   45.3130 C.3    12  SER12       0.2055
     16  C         31.4540   38.9600   46.0040 C.2    12  SER12       0.2642
     17  O         30.3340   39.3330   45.6750 O.2    12  SER12      -0.2714
     18  CB        33.0590   38.6000   44.1330 C.3    12  SER12       0.2130
     19  OG        33.6640   39.3440   43.0900 O.3    12  SER12      -0.2179
     20  N         31.6790   38.0630   46.9580 N.am   13  ALA13      -0.1977
     21  CA        30.6280   37.5730   47.8290 C.3    13  ALA13       0.1597
     22  C         29.9680   38.7630   48.5170 C.2    13  ALA13       0.2287
     23  O         30.6530   39.7360   48.8750 O.2    13  ALA13      -0.2864
     24  CB        31.2160   36.6130   48.8700 C.3    13  ALA13       0.0319
     25  N         36.2830   42.1610   40.7620 N.3    42  GLN42      -0.1231
     26  CA        36.3450   40.7070   40.5890 C.3    42  GLN42       0.1698
     27  C         37.8130   40.2460   40.4720 C.2    42  GLN42       0.2592
     28  O         38.6250   40.8760   39.7920 O.2    42  GLN42      -0.2718
     29  CB        35.5090   40.2530   39.3850 C.3    42  GLN42       0.0381
     30  CG        34.8680   38.8590   39.5440 C.3    42  GLN42       0.0905
     31  CD        35.8760   37.7250   39.3620 C.2    42  GLN42       0.2608
     32  OE1       36.7360   37.7730   38.4700 O.2    42  GLN42      -0.2717
     33  NE2       35.7790   36.7040   40.2090 N.am   42  GLN42      -0.0878
     34  N         38.1430   39.1600   41.1620 N.am   43  ASN43      -0.1960
     35  CA        39.5250   38.7160   41.3130 C.3    43  ASN43       0.1819
     36  C         40.2820   38.5140   40.0050 C.2    43  ASN43       0.2621
     37  O         41.4620   38.8130   39.9200 O.2    43  ASN43      -0.2715
     38  CB        39.5890   37.4230   42.1310 C.3    43  ASN43       0.1195
     39  CG        41.0250   36.9290   42.3330 C.2    43  ASN43       0.2630
     40  OD1       41.7160   37.3910   43.2290 O.2    43  ASN43      -0.2716
     41  ND2       41.4610   35.9810   41.5070 N.am   43  ASN43      -0.0877
     42  N         39.6000   37.9970   38.9900 N.am   44  GLU44      -0.1977
     43  CA        40.2530   37.7100   37.7270 C.3    44  GLU44       0.1602
     44  C         40.5630   38.9890   36.9700 C.2    44  GLU44       0.2287
     45  O         41.2950   38.9510   35.9810 O.2    44  GLU44      -0.2864
     46  CB        39.3870   36.7870   36.8710 C.3    44  GLU44       0.0415
     47  CG        39.0290   35.4990   37.5550 C.3    44  GLU44       0.1163
     48  CD        40.2500   34.7980   38.0970 C.2    44  GLU44       0.3649
     49  OE1       41.2470   34.6680   37.3430 O.co2  44  GLU44      -0.2457
     50  OE2       40.2210   34.3960   39.2800 O.co2  44  GLU44      -0.2457
     51  N         44.5010   45.3980   47.6880 N.3    65  MET65      -0.1245
     52  CA        44.8550   44.0330   48.0080 C.3    65  MET65       0.1570
     53  C         46.1100   43.6880   47.2420 C.2    65  MET65       0.2261
     54  O         46.2840   44.1090   46.0980 O.2    65  MET65      -0.2867
     55  CB        43.7490   43.0740   47.5860 C.3    65  MET65       0.0387
     56  CG        43.9940   41.6270   47.9990 C.3    65  MET65       0.0595
     57  SD        42.9510   40.4560   47.1120 S.3    65  MET65      -0.1393
     58  CE        43.5760   40.6560   45.4450 C.3    65  MET65       0.0692
     59  N         54.7990   38.6910   42.6470 N.3    71  LYS71      -0.1245
     60  CA        53.9890   39.7360   42.0510 C.3    71  LYS71       0.1561
     61  C         53.9650   40.9930   42.9320 C.2    71  LYS71       0.2260
     62  O         53.9970   42.1180   42.4280 O.2    71  LYS71      -0.2867
     63  CB        52.5980   39.2050   41.7590 C.3    71  LYS71       0.0271
     64  CG        52.6010   38.0910   40.7260 C.3    71  LYS71       0.0035
     65  CD        51.2140   37.4690   40.5860 C.3    71  LYS71       0.0206
     66  CE        51.1920   36.3620   39.5400 C.3    71  LYS71       0.1093
     67  NZ        49.7990   35.8910   39.3010 N.3    71  LYS71      -0.1314
     68  N         45.2470   31.2970   53.9210 N.3   117  GLU117     -0.1245
     69  CA        44.3990   30.3640   53.1960 C.3   117  GLU117      0.1567
     70  C         45.1240   29.1750   52.5320 C.2   117  GLU117      0.2260
     71  O         45.4160   29.1940   51.3350 O.2   117  GLU117     -0.2867
     72  CB        43.5400   31.1490   52.2070 C.3   117  GLU117      0.0388
     73  CG        42.2770   31.7100   52.8790 C.3   117  GLU117      0.1160
     74  CD        41.7600   32.9950   52.2620 C.2   117  GLU117      0.3649
     75  OE1       42.2690   33.4110   51.2010 O.co2 117  GLU117     -0.2457
     76  OE2       40.8360   33.5920   52.8540 O.co2 117  GLU117     -0.2457
     77  N         44.5150   29.2380   36.4470 N.3   166  TRP166     -0.1241
     78  CA        45.0450   28.8060   37.7390 C.3   166  TRP166      0.1605
     79  C         44.3230   27.6390   38.4290 C.2   166  TRP166      0.2264
     80  O         44.9900   26.8140   39.0470 O.2   166  TRP166     -0.2867
     81  CB        45.2450   29.9770   38.7160 C.3   166  TRP166      0.0550
     82  CG        43.9850   30.6950   39.1460 C.ar  166  TRP166      0.0003
     83  CD1       43.4150   31.7670   38.5330 C.ar  166  TRP166      0.0946
     84  CD2       43.1700   30.4090   40.2990 C.ar  166  TRP166      0.0152
     85  NE1       42.3000   32.1670   39.2190 N.ar  166  TRP166     -0.2442
     86  CE2       42.1160   31.3490   40.3020 C.ar  166  TRP166      0.0810
     87  CE3       43.2200   29.4450   41.3120 C.ar  166  TRP166      0.0012
     88  CZ2       41.1000   31.3510   41.2820 C.ar  166  TRP166      0.0191
     89  CZ3       42.2260   29.4450   42.2920 C.ar  166  TRP166      0.0001
     90  CH2       41.1700   30.3940   42.2640 C.ar  166  TRP166      0.0015
     91  N         46.5240   24.4690   39.7270 N.3   170  HIS170     -0.1241
     92  CA        46.6190   24.0170   41.1250 C.3   170  HIS170      0.1621
     93  C         46.8460   22.5060   41.2660 C.2   170  HIS170      0.2264
     94  O         47.5480   22.0660   42.1760 O.2   170  HIS170     -0.2867
     95  CB        45.4020   24.4520   41.9580 C.3   170  HIS170      0.0745
     96  CG        45.5150   25.8380   42.5110 C.ar  170  HIS170      0.0817
     97  ND1       45.0940   26.1710   43.7820 N.ar  170  HIS170     -0.2268
     98  CD2       46.0000   26.9790   41.9610 C.ar  170  HIS170      0.1154
     99  CE1       45.3240   27.4560   43.9930 C.ar  170  HIS170      0.1986
    100  NE2       45.8810   27.9660   42.9070 N.ar  170  HIS170     -0.2212
    101  N         34.8620   31.0940   40.1870 N.3   225  GLN225     -0.1245
    102  CA        34.0590   31.7090   41.2420 C.3   225  GLN225      0.1566
    103  C         32.8630   32.5450   40.7550 C.2   225  GLN225      0.2260
    104  O         32.1920   33.1970   41.5550 O.2   225  GLN225     -0.2867
    105  CB        34.9600   32.5720   42.1350 C.3   225  GLN225      0.0367
    106  CG        36.1050   31.8170   42.8010 C.3   225  GLN225      0.0905
    107  CD        37.0710   32.7460   43.5270 C.2   225  GLN225      0.2608
    108  OE1       37.3260   33.8740   43.0860 O.2   225  GLN225     -0.2717
    109  NE2       37.6000   32.2770   44.6570 N.am  225  GLN225     -0.0878
    110  N         39.7920   29.9970   51.1340 N.3   248  TRP248     -0.1241
    111  CA        38.7380   30.9850   50.8970 C.3   248  TRP248      0.1605
    112  C         37.4430   30.2630   50.5180 C.2   248  TRP248      0.2264
    113  O         36.3610   30.8610   50.4860 O.2   248  TRP248     -0.2867
    114  CB        39.1430   31.9180   49.7630 C.3   248  TRP248      0.0550
    115  CG        39.5070   31.2060   48.4690 C.ar  248  TRP248      0.0003
    116  CD1       38.6470   30.6130   47.5760 C.ar  248  TRP248      0.0946
    117  CD2       40.8170   31.0420   47.9210 C.ar  248  TRP248      0.0152
    118  NE1       39.3490   30.0810   46.5170 N.ar  248  TRP248     -0.2442
    119  CE2       40.6820   30.3360   46.7020 C.ar  248  TRP248      0.0810
    120  CE3       42.0910   31.4190   48.3380 C.ar  248  TRP248      0.0012
    121  CZ2       41.7830   29.9950   45.9050 C.ar  248  TRP248      0.0191
    122  CZ3       43.1830   31.0820   47.5390 C.ar  248  TRP248      0.0001
    123  CH2       43.0180   30.3700   46.3440 C.ar  248  TRP248      0.0015
    124  N         33.6430   30.2860   52.3010 N.3   251  GLY251     -0.1210
    125  CA        32.9790   31.5610   52.1290 C.3   251  GLY251      0.1956
    126  C         32.5170   31.7880   50.7000 C.2   251  GLY251      0.2611
    127  O         31.5610   32.5270   50.4620 O.2   251  GLY251     -0.2717
    128  N         33.1900   31.1610   49.7410 N.am  252  VAL252     -0.1979
    129  CA        32.7750   31.2800   48.3530 C.3   252  VAL252      0.1595
    130  C         31.5570   30.3980   48.1200 C.2   252  VAL252      0.2287
    131  O         30.5700   30.8320   47.5250 O.2   252  VAL252     -0.2864
    132  CB        33.9020   30.9020   47.3620 C.3   252  VAL252      0.0276
    133  CG1       33.3630   30.8550   45.9270 C.3   252  VAL252      0.0022
    134  CG2       35.0560   31.8910   47.4660 C.3   252  VAL252      0.0022
    135  N         46.4460   36.8120   52.2220 N.3   289  THR289     -0.1218
    136  CA        45.9090   38.0480   51.7130 C.3   289  THR289      0.1862
    137  C         46.3320   39.1630   52.6450 C.2   289  THR289      0.2287
    138  O         46.1810   39.0510   53.8640 O.2   289  THR289     -0.2866
    139  CB        44.3820   38.0040   51.6570 C.3   289  THR289      0.1770
    140  OG1       43.9770   36.9350   50.8030 O.3   289  THR289     -0.2211
    141  CG2       43.8470   39.2990   51.1070 C.3   289  THR289      0.0375
    142  N         33.9510   36.2340   55.9460 N.3   321  PHE321     -0.1241
    143  CA        34.5430   35.4880   54.8420 C.3   321  PHE321      0.1605
    144  C         34.5770   33.9550   55.0230 C.2   321  PHE321      0.2264
    145  O         34.9310   33.2380   54.0880 O.2   321  PHE321     -0.2867
    146  CB        35.9350   36.0460   54.5120 C.3   321  PHE321      0.0534
    147  CG        35.9110   37.4390   53.9470 C.ar  321  PHE321     -0.0203
    148  CD1       35.8920   38.5460   54.7850 C.ar  321  PHE321     -0.0042
    149  CD2       35.8960   37.6470   52.5750 C.ar  321  PHE321     -0.0042
    150  CE1       35.8680   39.8430   54.2620 C.ar  321  PHE321     -0.0003
    151  CE2       35.8740   38.9450   52.0420 C.ar  321  PHE321     -0.0003
    152  CZ        35.8660   40.0400   52.8890 C.ar  321  PHE321     -0.0000
    153  N         51.3000   30.1010   46.6340 N.3   355  TRP355     -0.1241
    154  CA        50.8710   29.5530   45.3600 C.3   355  TRP355      0.1605
    155  C         52.0190   29.6590   44.3640 C.2   355  TRP355      0.2264
    156  O         52.7390   30.6610   44.3300 O.2   355  TRP355     -0.2867
    157  CB        49.6350   30.2670   44.8260 C.3   355  TRP355      0.0550
    158  CG        48.5060   30.2760   45.8060 C.ar  355  TRP355      0.0003
    159  CD1       47.9600   31.3680   46.4150 C.ar  355  TRP355      0.0946
    160  CD2       47.8050   29.1340   46.3180 C.ar  355  TRP355      0.0152
    161  NE1       46.9550   30.9800   47.2670 N.ar  355  TRP355     -0.2442
    162  CE2       46.8340   29.6140   47.2240 C.ar  355  TRP355      0.0810
    163  CE3       47.8980   27.7570   46.0930 C.ar  355  TRP355      0.0012
    164  CZ2       45.9530   28.7610   47.9050 C.ar  355  TRP355      0.0191
    165  CZ3       47.0300   26.9100   46.7750 C.ar  355  TRP355      0.0001
    166  CH2       46.0670   27.4160   47.6670 C.ar  355  TRP355      0.0015
    167  N         52.1980   30.0340   41.0740 N.3   357  ASP357     -0.1225
    168  CA        52.2260   31.0990   40.0790 C.3   357  ASP357      0.1805
    169  C         52.5240   32.4210   40.7410 C.2   357  ASP357      0.2598
    170  O         53.1390   33.3000   40.1510 O.2   357  ASP357     -0.2718
    171  CB        50.9720   31.1370   39.2040 C.3   357  ASP357      0.1424
    172  CG        49.6580   31.3730   39.9970 C.2   357  ASP357      0.3668
    173  OD1       49.5690   31.0960   41.2210 O.co2 357  ASP357     -0.2456
    174  OD2       48.6870   31.8170   39.3470 O.co2 357  ASP357     -0.2456
    175  N         52.1250   32.5350   41.9960 N.am  358  THR358     -0.1953
    176  CA        52.3880   33.7350   42.7730 C.3   358  THR358      0.1897
    177  C         53.8940   33.7840   43.0850 C.2   358  THR358      0.2313
    178  O         54.5450   34.8390   43.0190 O.2   358  THR358     -0.2863
    179  CB        51.5260   33.7250   44.0620 C.3   358  THR358      0.1794
    180  OG1       50.1440   33.9110   43.7140 O.3   358  THR358     -0.2208
    181  CG2       51.9010   34.8230   44.9680 C.3   358  THR358      0.0378
@<TRIPOS>BOND
     1    45    44    2
     2    77    78    1
     3    46    47    1
     4    46    43    1
     5    44    43    1
     6    49    48   ar
     7    47    48    1
     8    43    42    1
     9    78    79    1
    10    78    81    1
    11    48    50   ar
    12    79    80    2
    13    32    31    2
    14    83    82   ar
    15    83    85   ar
    16    81    82    1
    17    42    36   am
    18    82    84   ar
    19   171   172    1
    20   171   168    1
    21    85    86   ar
    22    67    66    1
    23   174   172   ar
    24    31    30    1
    25    31    33   am
    26    29    30    1
    27    29    26    1
    28    66    65    1
    29    91    92    1
    30    28    27    2
    31    37    36    2
    32   172   173   ar
    33    36    35    1
    34   168   169    1
    35   168   167    1
    36   170   169    2
    37   101   102    1
    38    84    86   ar
    39    84    87   ar
    40    86    88   ar
    41    27    26    1
    42    27    34   am
    43    65    64    1
    44    26    25    1
    45    64    63    1
    46   169   175   am
    47   103   102    1
    48   103   104    2
    49    92    93    1
    50    92    95    1
    51    34    35    1
    52   102   105    1
    53    93    94    2
    54    88    90   ar
    55    87    89   ar
    56    35    38    1
    57    41    39   am
    58    63    60    1
    59    95    96    1
    60    98    96   ar
    61    98   100   ar
    62   175   176    1
    63    60    59    1
    64    60    61    1
    65    38    39    1
    66   105   106    1
    67    90    89   ar
    68    39    40    2
    69    62    61    2
    70    96    97   ar
    71   176   177    1
    72   176   179    1
    73   106   107    1
    74   100    99   ar
    75   178   177    2
    76   108   107    2
    77    19    18    1
    78   107   109   am
    79   180   179    1
    80    97    99   ar
    81   179   181    1
    82    18    15    1
    83   156   155    2
    84   155   154    1
    85   157   154    1
    86   157   158    1
    87     5     2    1
    88     5     6    1
    89    15    16    1
    90    15    14    1
    91   154   153    1
    92    58    57    1
    93     8     6   am
    94     2     3    1
    95     2     1    1
    96     4     3    2
    97    17    16    2
    98   158   160   ar
    99   158   159   ar
   100   121   123   ar
   101   121   119   ar
   102   133   132    1
   103    16    20   am
   104   163   160   ar
   105   163   165   ar
   106     6     7    2
   107    54    53    2
   108     3     9   am
   109    14    11   am
   110   160   162   ar
   111   123   122   ar
   112   159   161   ar
   113   118   119   ar
   114   118   116   ar
   115    12    11    2
   116   119   117   ar
   117   165   166   ar
   118    11    10    1
   119    20    21    1
   120    57    56    1
   121   162   161   ar
   122   162   164   ar
   123     9    10    1
   124    53    52    1
   125   132   134    1
   126   132   129    1
   127   131   130    2
   128   122   120   ar
   129   116   115   ar
   130    55    56    1
   131    55    52    1
   132   166   164   ar
   133    51    52    1
   134    10    13    1
   135    21    22    1
   136    21    24    1
   137   117   120   ar
   138   117   115   ar
   139   130   129    1
   140   129   128    1
   141   115   114    1
   142    22    23    2
   143   128   126   am
   144   114   111    1
   145   127   126    2
   146   113   112    2
   147   112   111    1
   148   126   125    1
   149   140   139    1
   150   111   110    1
   151   141   139    1
   152    75    74   ar
   153    71    70    2
   154   139   136    1
   155   136   135    1
   156   136   137    1
   157   151   149   ar
   158   151   152   ar
   159   125   124    1
   160    72    73    1
   161    72    69    1
   162    74    76   ar
   163    74    73    1
   164    70    69    1
   165   149   147   ar
   166   137   138    2
   167   152   150   ar
   168    69    68    1
   169   147   146    1
   170   147   148   ar
   171   145   144    2
   172   150   148   ar
   173   146   143    1
   174   143   144    1
   175   143   142    1
