@<TRIPOS>MOLECULE
tmp/3zknA00.pdb
 154 147 0 0 0
SMALL
GASTEIGER

@<TRIPOS>ATOM
      1  N         25.0870   51.0860  147.7770 N.3    33  LEU33      -0.1245
      2  CA        25.1790   49.9050  146.9400 C.3    33  LEU33       0.1561
      3  C         23.7880   49.4970  146.4410 C.2    33  LEU33       0.2260
      4  O         22.8460   49.4630  147.2230 O.2    33  LEU33      -0.2867
      5  CB        25.8340   48.7450  147.7150 C.3    33  LEU33       0.0270
      6  CG        25.7680   47.3430  147.1060 C.3    33  LEU33       0.0019
      7  CD1       26.7740   47.1850  145.9860 C.3    33  LEU33       0.0001
      8  CD2       26.0300   46.2990  148.1990 C.3    33  LEU33       0.0001
      9  N         21.5350   46.6130  145.5170 N.3    35  ASP35      -0.1239
     10  CA        21.4820   45.1750  145.8760 C.3    35  ASP35       0.1674
     11  C         20.0940   44.5540  145.6280 C.2    35  ASP35       0.2266
     12  O         19.1630   44.7520  146.4260 O.2    35  ASP35      -0.2867
     13  CB        21.8900   45.0140  147.3450 C.3    35  ASP35       0.1410
     14  CG        21.9520   43.5540  147.8060 C.2    35  ASP35       0.3668
     15  OD1       22.0330   42.6280  146.9580 O.co2  35  ASP35      -0.2456
     16  OD2       21.9400   43.3310  149.0360 O.co2  35  ASP35      -0.2456
     17  N         19.4450   41.5640  146.0020 N.3    37  GLY37      -0.1210
     18  CA        19.3240   40.3930  146.8790 C.3    37  GLY37       0.1956
     19  C         18.9820   40.6520  148.3400 C.2    37  GLY37       0.2612
     20  O         19.1880   39.7820  149.1990 O.2    37  GLY37      -0.2717
     21  N         18.4600   41.8370  148.6310 N.am   38  SER38      -0.1952
     22  CA        17.9990   42.1850  149.9910 C.3    38  SER38       0.1924
     23  C         16.9540   43.2930  149.8710 C.2    38  SER38       0.2314
     24  O         16.7260   43.8040  148.7730 O.2    38  SER38      -0.2863
     25  CB        19.1530   42.6550  150.8460 C.3    38  SER38       0.2116
     26  OG        19.5820   43.9050  150.3560 O.3    38  SER38      -0.2180
     27  N         20.2850   41.8460  160.6590 N.3    72  VAL72      -0.1245
     28  CA        20.2930   41.0900  159.4040 C.3    72  VAL72       0.1561
     29  C         21.4750   40.1390  159.5120 C.2    72  VAL72       0.2260
     30  O         22.5670   40.5370  159.9140 O.2    72  VAL72      -0.2867
     31  CB        20.3990   42.0340  158.1580 C.3    72  VAL72       0.0252
     32  CG1       20.9380   41.3020  156.9230 C.3    72  VAL72       0.0019
     33  CG2       19.0520   42.6870  157.8380 C.3    72  VAL72       0.0019
     34  N         23.5550   36.9590  157.3270 N.3    74  TYR74      -0.1227
     35  CA        23.7040   36.1960  156.0750 C.3    74  TYR74       0.1736
     36  C         24.9140   35.3390  156.3260 C.2    74  TYR74       0.2596
     37  O         25.5220   35.4540  157.3950 O.2    74  TYR74      -0.2718
     38  CB        23.9200   37.1130  154.8540 C.3    74  TYR74       0.0548
     39  CG        24.8680   38.2520  155.1390 C.ar   74  TYR74      -0.0200
     40  CD1       26.2460   38.1120  154.9550 C.ar   74  TYR74      -0.0009
     41  CD2       24.3790   39.4680  155.6290 C.ar   74  TYR74      -0.0009
     42  CE1       27.1150   39.1600  155.2420 C.ar   74  TYR74       0.0417
     43  CE2       25.2280   40.5190  155.9160 C.ar   74  TYR74       0.0417
     44  CZ        26.5920   40.3610  155.7280 C.ar   74  TYR74       0.1957
     45  OH        27.4070   41.4220  156.0230 O.3    74  TYR74      -0.2866
     46  N         25.2760   34.5160  155.3470 N.am   75  THR75      -0.1939
     47  CA        26.2760   33.4540  155.5340 C.3    75  THR75       0.2028
     48  C         27.4880   33.8720  156.3500 C.2    75  THR75       0.2642
     49  O         27.6980   33.3350  157.4450 O.2    75  THR75      -0.2714
     50  CB        26.7220   32.8170  154.2010 C.3    75  THR75       0.1808
     51  OG1       25.5810   32.2360  153.5710 O.3    75  THR75      -0.2208
     52  CG2       27.7860   31.7160  154.4330 C.3    75  THR75       0.0379
     53  N         28.2810   34.8170  155.8600 N.am   76  GLN76      -0.1976
     54  CA        29.5250   35.0950  156.5960 C.3    76  GLN76       0.1601
     55  C         29.5140   36.4290  157.3560 C.2    76  GLN76       0.2287
     56  O         30.5760   36.9720  157.6700 O.2    76  GLN76      -0.2864
     57  CB        30.7590   34.9700  155.6830 C.3    76  GLN76       0.0394
     58  CG        30.7030   33.8210  154.6780 C.3    76  GLN76       0.0908
     59  CD        31.7740   33.9170  153.6120 C.2    76  GLN76       0.2608
     60  OE1       32.9670   33.7960  153.9000 O.2    76  GLN76      -0.2717
     61  NE2       31.3550   34.1290  152.3690 N.am   76  GLN76      -0.0878
     62  N         24.6630   42.7380  160.1620 N.3    79  TRP79      -0.1241
     63  CA        24.6380   44.1040  160.6730 C.3    79  TRP79       0.1605
     64  C         23.4280   44.3470  161.5750 C.2    79  TRP79       0.2264
     65  O         22.3940   43.6900  161.4540 O.2    79  TRP79      -0.2867
     66  CB        24.7130   45.1510  159.5470 C.3    79  TRP79       0.0550
     67  CG        23.5610   45.1300  158.5800 C.ar   79  TRP79       0.0003
     68  CD1       23.5180   44.4970  157.3580 C.ar   79  TRP79       0.0946
     69  CD2       22.2870   45.7770  158.7420 C.ar   79  TRP79       0.0152
     70  NE1       22.2980   44.7100  156.7650 N.ar   79  TRP79      -0.2442
     71  CE2       21.5240   45.4900  157.5840 C.ar   79  TRP79       0.0810
     72  CE3       21.7180   46.5700  159.7570 C.ar   79  TRP79       0.0012
     73  CZ2       20.2110   45.9760  157.4020 C.ar   79  TRP79       0.0191
     74  CZ3       20.4160   47.0440  159.5850 C.ar   79  TRP79       0.0001
     75  CH2       19.6770   46.7500  158.4100 C.ar   79  TRP79       0.0015
     76  N         31.7640   41.6640  158.4140 N.3   110  ASN110     -0.1225
     77  CA        31.8700   41.3420  156.9840 C.3   110  ASN110      0.1785
     78  C         30.7890   41.9980  156.1690 C.2   110  ASN110      0.2597
     79  O         30.1230   41.3690  155.3530 O.2   110  ASN110     -0.2718
     80  CB        31.8990   39.8320  156.7560 C.3   110  ASN110      0.1169
     81  CG        33.1320   39.2030  157.3530 C.2   110  ASN110      0.2627
     82  OD1       34.2170   39.7960  157.3020 O.2   110  ASN110     -0.2716
     83  ND2       32.9790   38.0260  157.9610 N.am  110  ASN110     -0.0877
     84  N         30.5970   43.2790  156.4340 N.am  111  PHE111     -0.1976
     85  CA        29.6480   44.0310  155.6800 C.3   111  PHE111      0.1639
     86  C         30.3770   45.1390  154.9290 C.2   111  PHE111      0.2290
     87  O         30.2920   45.2110  153.7080 O.2   111  PHE111     -0.2864
     88  CB        28.5530   44.5630  156.5890 C.3   111  PHE111      0.0560
     89  CG        27.4410   45.2300  155.8580 C.ar  111  PHE111     -0.0200
     90  CD1       26.5680   44.4820  155.0620 C.ar  111  PHE111     -0.0042
     91  CD2       27.2570   46.6130  155.9640 C.ar  111  PHE111     -0.0042
     92  CE1       25.5220   45.0990  154.3980 C.ar  111  PHE111     -0.0003
     93  CE2       26.2230   47.2350  155.3010 C.ar  111  PHE111     -0.0003
     94  CZ        25.3530   46.4760  154.5070 C.ar  111  PHE111     -0.0000
     95  N         33.6920   46.0400  153.6540 N.3   113  LEU113     -0.1245
     96  CA        35.0300   45.4720  153.4500 C.3   113  LEU113      0.1561
     97  C         36.0130   46.4560  152.8020 C.2   113  LEU113      0.2260
     98  O         35.5910   47.4240  152.1510 O.2   113  LEU113     -0.2867
     99  CB        34.9300   44.1840  152.6300 C.3   113  LEU113      0.0270
    100  CG        34.4420   42.9170  153.3640 C.3   113  LEU113      0.0019
    101  CD1       35.1560   41.7210  152.7490 C.3   113  LEU113      0.0001
    102  CD2       34.6860   42.9460  154.8710 C.3   113  LEU113      0.0001
    103  N         31.1640   52.2360  148.7950 N.3   118  TRP118     -0.1241
    104  CA        29.8070   52.5050  149.2760 C.3   118  TRP118      0.1605
    105  C         29.7450   52.5740  150.8000 C.2   118  TRP118      0.2264
    106  O         30.5880   52.0060  151.4720 O.2   118  TRP118     -0.2867
    107  CB        28.7990   51.5250  148.6670 C.3   118  TRP118      0.0550
    108  CG        29.1710   50.0770  148.7370 C.ar  118  TRP118      0.0003
    109  CD1       29.7720   49.3360  147.7610 C.ar  118  TRP118      0.0946
    110  CD2       28.9110   49.1770  149.8170 C.ar  118  TRP118      0.0152
    111  NE1       29.9250   48.0350  148.1750 N.ar  118  TRP118     -0.2442
    112  CE2       29.4020   47.9090  149.4350 C.ar  118  TRP118      0.0810
    113  CE3       28.3120   49.3200  151.0700 C.ar  118  TRP118      0.0012
    114  CZ2       29.3060   46.7810  150.2610 C.ar  118  TRP118      0.0191
    115  CZ3       28.2160   48.1910  151.8960 C.ar  118  TRP118      0.0001
    116  CH2       28.7240   46.9450  151.4870 C.ar  118  TRP118      0.0015
    117  N         23.3770   50.5930  151.6000 N.3   121  ILE121     -0.1245
    118  CA        22.8680   49.5320  150.7500 C.3   121  ILE121      0.1561
    119  C         21.3830   49.8370  150.4560 C.2   121  ILE121      0.2260
    120  O         20.6650   50.3430  151.3210 O.2   121  ILE121     -0.2867
    121  CB        23.0600   48.1580  151.4320 C.3   121  ILE121      0.0252
    122  CG1       22.6230   47.0270  150.5310 C.3   121  ILE121      0.0019
    123  CG2       22.2910   48.0460  152.7530 C.3   121  ILE121      0.0019
    124  CD1       22.8810   45.6850  151.1900 C.3   121  ILE121      0.0001
    125  N         21.0850   38.5000  141.4360 N.3   219  ASP219     -0.1239
    126  CA        21.5460   39.2840  142.5820 C.3   219  ASP219      0.1674
    127  C         22.6830   40.2360  142.2610 C.2   219  ASP219      0.2266
    128  O         23.8460   39.8320  142.1710 O.2   219  ASP219     -0.2867
    129  CB        21.9490   38.3520  143.7210 C.3   219  ASP219      0.1410
    130  CG        22.4270   39.0950  144.9640 C.2   219  ASP219      0.3668
    131  OD1       22.2600   40.3400  145.0540 O.co2 219  ASP219     -0.2456
    132  OD2       22.9680   38.4180  145.8660 O.co2 219  ASP219     -0.2456
    133  N         23.9930   42.1980  144.1260 N.3   221  GLY221     -0.1210
    134  CA        24.8880   42.3090  145.2670 C.3   221  GLY221      0.1956
    135  C         25.9140   41.1960  145.3880 C.2   221  GLY221      0.2612
    136  O         26.6710   41.1640  146.3510 O.2   221  GLY221     -0.2717
    137  N         25.9080   40.2590  144.4440 N.am  222  THR222     -0.1952
    138  CA        26.8820   39.1700  144.4120 C.3   222  THR222      0.1897
    139  C         27.7900   39.4600  143.2120 C.2   222  THR222      0.2313
    140  O         27.2980   39.8740  142.1670 O.2   222  THR222     -0.2863
    141  CB        26.1710   37.7930  144.2710 C.3   222  THR222      0.1794
    142  OG1       25.4150   37.5230  145.4680 O.3   222  THR222     -0.2208
    143  CG2       27.1710   36.6610  144.0190 C.3   222  THR222      0.0378
    144  N         27.6810   32.1510  141.1410 N.3   226  ARG226     -0.1245
    145  CA        27.8820   31.1700  142.1930 C.3   226  ARG226      0.1563
    146  C         27.0240   29.9210  141.9620 C.2   226  ARG226      0.2260
    147  O         25.8140   30.0220  141.7150 O.2   226  ARG226     -0.2867
    148  CB        27.6470   31.7960  143.5710 C.3   226  ARG226      0.0307
    149  CG        28.5600   32.9870  143.8290 C.3   226  ARG226      0.0489
    150  CD        28.4480   33.5150  145.2440 C.3   226  ARG226      0.2205
    151  NE        28.9920   32.5770  146.2180 N.pl3 226  ARG226     -0.0865
    152  CZ        28.3430   32.1660  147.3010 C.cat 226  ARG226      0.5346
    153  NH1       27.1330   32.6240  147.5690 N.pl3 226  ARG226      0.1354
    154  NH2       28.9140   31.3050  148.1240 N.pl3 226  ARG226      0.1354
@<TRIPOS>BOND
     1   144   145    1
     2   125   126    1
     3   147   146    2
     4   146   145    1
     5   140   139    2
     6   128   127    2
     7   145   148    1
     8   127   126    1
     9   126   129    1
    10   139   138    1
    11   148   149    1
    12   129   130    1
    13   149   150    1
    14   143   141    1
    15   133   134    1
    16   141   138    1
    17   141   142    1
    18   138   137    1
    19   137   135   am
    20   130   131   ar
    21   130   132   ar
    22   150   151    1
    23   134   135    1
    24   135   136    2
    25     9    10    1
    26    11    10    1
    27    11    12    2
    28    10    13    1
    29     7     6    1
    30    17    18    1
    31   151   152    2
    32     3     2    1
    33     3     4    2
    34    18    19    1
    35     2     5    1
    36     2     1    1
    37    15    14   ar
    38     6     5    1
    39     6     8    1
    40   152   153    1
    41   152   154    1
    42    13    14    1
    43   109   111   ar
    44   109   108   ar
    45    14    16   ar
    46   111   112   ar
    47    19    21   am
    48    19    20    2
    49    21    22    1
    50   107   108    1
    51   107   104    1
    52   108   110   ar
    53    24    23    2
    54   103   104    1
    55   104   105    1
    56   112   110   ar
    57   112   114   ar
    58   110   113   ar
    59    23    22    1
    60    22    25    1
    61   114   116   ar
    62    26    25    1
    63   119   118    1
    64   119   120    2
    65   122   124    1
    66   122   121    1
    67   118   121    1
    68   118   117    1
    69   105   106    2
    70   113   115   ar
    71   121   123    1
    72   116   115   ar
    73    98    97    2
    74    61    59   am
    75    99   100    1
    76    99    96    1
    77   101   100    1
    78    97    96    1
    79   100   102    1
    80    96    95    1
    81    51    50    1
    82    59    60    2
    83    59    58    1
    84    87    86    2
    85    50    52    1
    86    50    47    1
    87    92    94   ar
    88    92    90   ar
    89    94    93   ar
    90    58    57    1
    91    38    39    1
    92    38    35    1
    93    86    85    1
    94    40    39   ar
    95    40    42   ar
    96    90    89   ar
    97    39    41   ar
    98    42    44   ar
    99    93    91   ar
   100    46    47    1
   101    46    36   am
   102    79    78    2
   103    47    48    1
   104    41    43   ar
   105    85    84    1
   106    85    88    1
   107    57    54    1
   108    44    43   ar
   109    44    45    1
   110    89    91   ar
   111    89    88    1
   112    53    48   am
   113    53    54    1
   114    35    36    1
   115    35    34    1
   116    78    84   am
   117    78    77    1
   118    36    37    2
   119    48    49    2
   120    54    55    1
   121    80    77    1
   122    80    81    1
   123    70    68   ar
   124    70    71   ar
   125    32    31    1
   126    77    76    1
   127    82    81    2
   128    81    83   am
   129    55    56    2
   130    68    67   ar
   131    73    71   ar
   132    73    75   ar
   133    71    69   ar
   134    33    31    1
   135    31    28    1
   136    75    74   ar
   137    67    69   ar
   138    67    66    1
   139    69    72   ar
   140    28    29    1
   141    28    27    1
   142    29    30    2
   143    66    63    1
   144    74    72   ar
   145    62    63    1
   146    63    64    1
   147    65    64    2
