@<TRIPOS>MOLECULE
tmp/3zkqA00.pdb
 157 147 0 0 0
SMALL
GASTEIGER

@<TRIPOS>ATOM
      1  N         17.9940   -8.0540   -9.2530 N.3    34  LEU34      -0.1245
      2  CA        19.2890   -8.3450   -9.9220 C.3    34  LEU34       0.1561
      3  C         20.3320   -7.2700   -9.6440 C.2    34  LEU34       0.2260
      4  O         20.0610   -6.0800   -9.8240 O.2    34  LEU34      -0.2867
      5  CB        19.0930   -8.4460  -11.4310 C.3    34  LEU34       0.0270
      6  CG        20.4390   -8.6840  -12.1570 C.3    34  LEU34       0.0019
      7  CD1       20.9460  -10.1070  -11.9010 C.3    34  LEU34       0.0001
      8  CD2       20.2270   -8.4530  -13.6310 C.3    34  LEU34       0.0001
      9  N         23.2330   -5.2540  -10.7960 N.3    36  ASP36      -0.1239
     10  CA        23.6790   -4.9560  -12.1610 C.3    36  ASP36       0.1674
     11  C         24.6540   -3.7790  -12.1460 C.2    36  ASP36       0.2266
     12  O         24.2400   -2.6180  -12.1550 O.2    36  ASP36      -0.2867
     13  CB        22.4520   -4.6080  -13.0300 C.3    36  ASP36       0.1410
     14  CG        22.7930   -4.3610  -14.4940 C.2    36  ASP36       0.3668
     15  OD1       23.9220   -4.6550  -14.9310 O.co2  36  ASP36      -0.2456
     16  OD2       21.9020   -3.8680  -15.2160 O.co2  36  ASP36      -0.2456
     17  N         26.2230   -2.8250  -14.6430 N.3    38  GLY38      -0.1210
     18  CA        26.2410   -2.3050  -15.9950 C.3    38  GLY38       0.1956
     19  C         25.1190   -1.3490  -16.3330 C.2    38  GLY38       0.2612
     20  O         24.9140   -1.0490  -17.5070 O.2    38  GLY38      -0.2717
     21  N         24.3370   -0.8960  -15.3450 N.am   39  SER39      -0.1952
     22  CA        23.2970    0.0850  -15.6270 C.3    39  SER39       0.1924
     23  C         23.0850    0.9150  -14.3690 C.2    39  SER39       0.2314
     24  O         23.7120    0.6330  -13.3310 O.2    39  SER39      -0.2863
     25  CB        21.9810   -0.6110  -16.0120 C.3    39  SER39       0.2116
     26  OG        21.4470   -1.3650  -14.9150 O.3    39  SER39      -0.2180
     27  N         18.0840   -1.6160  -24.7000 N.3    75  TYR75      -0.1227
     28  CA        19.3710   -2.3230  -24.8290 C.3    75  TYR75       0.1736
     29  C         19.4800   -2.8600  -26.2690 C.2    75  TYR75       0.2596
     30  O         18.5370   -2.7320  -27.0700 O.2    75  TYR75      -0.2718
     31  CB        19.4950   -3.4970  -23.8260 C.3    75  TYR75       0.0548
     32  CG        19.0080   -3.2290  -22.4010 C.ar   75  TYR75      -0.0200
     33  CD1       19.7120   -2.3770  -21.5430 C.ar   75  TYR75      -0.0009
     34  CD2       17.8520   -3.8430  -21.9130 C.ar   75  TYR75      -0.0009
     35  CE1       19.2710   -2.1330  -20.2460 C.ar   75  TYR75       0.0417
     36  CE2       17.4050   -3.6080  -20.6140 C.ar   75  TYR75       0.0417
     37  CZ        18.1170   -2.7460  -19.7830 C.ar   75  TYR75       0.1957
     38  OH        17.6930   -2.5030  -18.4850 O.3    75  TYR75      -0.2866
     39  N         20.6230   -3.4550  -26.6070 N.am   76  THR76      -0.1953
     40  CA        20.7500   -4.1250  -27.9060 C.3    76  THR76       0.1897
     41  C         19.7380   -5.2760  -28.0370 C.2    76  THR76       0.2313
     42  O         19.0630   -5.3910  -29.0650 O.2    76  THR76      -0.2863
     43  CB        22.1920   -4.6030  -28.1920 C.3    76  THR76       0.1794
     44  OG1       22.6200   -5.4750  -27.1410 O.3    76  THR76      -0.2208
     45  CG2       23.1450   -3.4050  -28.2970 C.3    76  THR76       0.0378
     46  N         13.0510   -8.9220  -21.7390 N.3   112  PHE112     -0.1241
     47  CA        13.7090   -8.4070  -20.5440 C.3   112  PHE112      0.1605
     48  C         13.5640   -9.4130  -19.4100 C.2   112  PHE112      0.2264
     49  O         14.5560   -9.8190  -18.7840 O.2   112  PHE112     -0.2867
     50  CB        13.1420   -7.0230  -20.1800 C.3   112  PHE112      0.0534
     51  CG        13.7090   -6.4500  -18.9090 C.ar  112  PHE112     -0.0203
     52  CD1       14.9810   -5.8740  -18.8890 C.ar  112  PHE112     -0.0042
     53  CD2       12.9630   -6.4680  -17.7230 C.ar  112  PHE112     -0.0042
     54  CE1       15.4970   -5.3520  -17.7080 C.ar  112  PHE112     -0.0003
     55  CE2       13.4750   -5.9460  -16.5440 C.ar  112  PHE112     -0.0003
     56  CZ        14.7420   -5.3850  -16.5350 C.ar  112  PHE112     -0.0000
     57  N         14.7570  -13.2110  -10.5220 N.3   119  TRP119     -0.1241
     58  CA        14.5550  -11.7950  -10.1870 C.3   119  TRP119      0.1605
     59  C         13.3530  -11.1600  -10.8740 C.2   119  TRP119      0.2264
     60  O         12.8920  -11.6330  -11.9050 O.2   119  TRP119     -0.2867
     61  CB        15.8220  -10.9620  -10.4590 C.3   119  TRP119      0.0550
     62  CG        16.3870  -11.0420  -11.8380 C.ar  119  TRP119      0.0003
     63  CD1       17.4370  -11.8370  -12.2420 C.ar  119  TRP119      0.0946
     64  CD2       16.0090  -10.2660  -12.9900 C.ar  119  TRP119      0.0152
     65  NE1       17.7160  -11.6040  -13.5600 N.ar  119  TRP119     -0.2442
     66  CE2       16.8580  -10.6610  -14.0550 C.ar  119  TRP119      0.0810
     67  CE3       15.0280   -9.3040  -13.2370 C.ar  119  TRP119      0.0012
     68  CZ2       16.7600  -10.1100  -15.3380 C.ar  119  TRP119      0.0191
     69  CZ3       14.9420   -8.7380  -14.4930 C.ar  119  TRP119      0.0001
     70  CH2       15.7950   -9.1520  -15.5450 C.ar  119  TRP119      0.0015
     71  N         15.7060   -4.9030  -11.3110 N.3   122  ILE122     -0.1245
     72  CA        17.1630   -4.7130  -11.4020 C.3   122  ILE122      0.1561
     73  C         17.6020   -3.5190  -10.5470 C.2   122  ILE122      0.2260
     74  O         16.8440   -2.5450  -10.3430 O.2   122  ILE122     -0.2867
     75  CB        17.6590   -4.5870  -12.8810 C.3   122  ILE122      0.0252
     76  CG1       17.1570   -3.2890  -13.5390 C.3   122  ILE122      0.0019
     77  CG2       17.2090   -5.7910  -13.7290 C.3   122  ILE122      0.0019
     78  CD1       17.5570   -3.1230  -14.9820 C.3   122  ILE122      0.0001
     79  N         29.9080    3.1120  -17.3960 N.3   190  TYR190     -0.1241
     80  CA        30.1200    1.7420  -16.9300 C.3   190  TYR190      0.1605
     81  C         31.3840    1.7750  -16.0840 C.2   190  TYR190      0.2264
     82  O         32.0880    2.7960  -16.0560 O.2   190  TYR190     -0.2867
     83  CB        30.3420    0.7900  -18.1270 C.3   190  TYR190      0.0534
     84  CG        29.2300    0.8970  -19.1180 C.ar  190  TYR190     -0.0201
     85  CD1       28.0420    0.1960  -18.9280 C.ar  190  TYR190     -0.0009
     86  CD2       29.3430    1.7440  -20.2200 C.ar  190  TYR190     -0.0009
     87  CE1       26.9850    0.3270  -19.8280 C.ar  190  TYR190      0.0417
     88  CE2       28.2960    1.8900  -21.1020 C.ar  190  TYR190      0.0417
     89  CZ        27.1270    1.1820  -20.8880 C.ar  190  TYR190      0.1957
     90  OH        26.0890    1.3300  -21.7820 O.3   190  TYR190     -0.2866
     91  N         34.8770   -0.8690  -25.3500 N.3   216  LYS216     -0.1245
     92  CA        35.1170   -0.4850  -23.9460 C.3   216  LYS216      0.1561
     93  C         35.2250   -1.8130  -23.1860 C.2   216  LYS216      0.2260
     94  O         34.4010   -2.7000  -23.3870 O.2   216  LYS216     -0.2867
     95  CB        33.9730    0.3370  -23.3150 C.3   216  LYS216      0.0271
     96  CG        32.5820   -0.2520  -23.5630 C.3   216  LYS216      0.0035
     97  CD        31.4680    0.7370  -23.2840 C.3   216  LYS216      0.0206
     98  CE        30.1680    0.2820  -23.9240 C.3   216  LYS216      0.1093
     99  NZ        30.1240    0.5430  -25.4050 N.3   216  LYS216     -0.1314
    100  N         34.6460   -3.4050  -19.7170 N.3   218  ILE218     -0.1245
    101  CA        33.8660   -3.0180  -18.5220 C.3   218  ILE218      0.1561
    102  C         33.6360   -4.2020  -17.6250 C.2   218  ILE218      0.2260
    103  O         33.6300   -5.3530  -18.0890 O.2   218  ILE218     -0.2867
    104  CB        32.4890   -2.3930  -18.9260 C.3   218  ILE218      0.0252
    105  CG1       31.6100   -3.4290  -19.6490 C.3   218  ILE218      0.0019
    106  CG2       32.6670   -1.1720  -19.8190 C.3   218  ILE218      0.0019
    107  CD1       30.1580   -2.9940  -19.8300 C.3   218  ILE218      0.0001
    108  N         30.8620   -5.9810  -15.3970 N.3   220  ASP220     -0.1239
    109  CA        29.4070   -5.9370  -15.4220 C.3   220  ASP220      0.1674
    110  C         28.8250   -7.1950  -14.8120 C.2   220  ASP220      0.2266
    111  O         28.7660   -8.2520  -15.4630 O.2   220  ASP220     -0.2867
    112  CB        28.8860   -5.7280  -16.8620 C.3   220  ASP220      0.1410
    113  CG        27.3680   -5.6660  -16.9220 C.2   220  ASP220      0.3668
    114  OD1       26.7330   -5.5880  -15.8410 O.co2 220  ASP220     -0.2456
    115  OD2       26.8020   -5.6940  -18.0430 O.co2 220  ASP220     -0.2456
    116  N         25.7820   -7.7470  -14.3300 N.3   222  GLY222     -0.1210
    117  CA        24.5120   -8.1040  -15.0130 C.3   222  GLY222      0.1956
    118  C         24.6800   -8.8300  -16.3400 C.2   222  GLY222      0.2612
    119  O         23.6930   -9.0830  -17.0520 O.2   222  GLY222     -0.2717
    120  N         25.9210   -9.1340  -16.7160 N.am  223  THR223     -0.1952
    121  CA        26.1810   -9.9250  -17.9110 C.3   223  THR223      0.1897
    122  C         26.6620  -11.2970  -17.4740 C.2   223  THR223      0.2313
    123  O         27.5400  -11.4100  -16.6290 O.2   223  THR223     -0.2863
    124  CB        27.2170   -9.2220  -18.8240 C.3   223  THR223      0.1794
    125  OG1       26.5860   -8.0790  -19.4200 O.3   223  THR223     -0.2208
    126  CG2       27.7620  -10.1600  -19.9430 C.3   223  THR223      0.0378
    127  N         32.2510  -11.5890  -22.5470 N.3   227  ARG227     -0.1245
    128  CA        31.9690  -11.2090  -23.9330 C.3   227  ARG227      0.1563
    129  C         33.1920  -10.5610  -24.5420 C.2   227  ARG227      0.2260
    130  O         33.7650   -9.6260  -23.9640 O.2   227  ARG227     -0.2867
    131  CB        30.7250  -10.3080  -24.0060 C.3   227  ARG227      0.0307
    132  CG        29.5280  -10.9860  -23.3500 C.3   227  ARG227      0.0489
    133  CD        28.2330  -10.2420  -23.5620 C.3   227  ARG227      0.2205
    134  NE        27.7020  -10.4370  -24.9130 N.pl3 227  ARG227     -0.0865
    135  CZ        27.6340   -9.4780  -25.8310 C.cat 227  ARG227      0.5346
    136  NH1       28.0590   -8.2430  -25.5560 N.pl3 227  ARG227      0.1354
    137  NH2       27.1300   -9.7510  -27.0230 N.pl3 227  ARG227      0.1354
    138  N         29.5280   -4.6530  -29.0350 N.3   319  ASN319     -0.1225
    139  CA        29.7200   -3.2850  -28.5360 C.3   319  ASN319      0.1785
    140  C         30.6260   -3.0660  -27.2990 C.2   319  ASN319      0.2597
    141  O         30.9240   -1.9080  -26.9430 O.2   319  ASN319     -0.2718
    142  CB        28.3480   -2.6430  -28.2820 C.3   319  ASN319      0.1169
    143  CG        27.6000   -2.3250  -29.5700 C.2   319  ASN319      0.2627
    144  OD1       26.4240   -2.6720  -29.7240 O.2   319  ASN319     -0.2716
    145  ND2       28.2800   -1.6580  -30.5020 N.am  319  ASN319     -0.0877
    146  N         31.0600   -4.1530  -26.6550 N.am  320  ALA320     -0.1979
    147  CA        31.9300   -4.0570  -25.4740 C.3   320  ALA320      0.1597
    148  C         32.6990   -5.3530  -25.2170 C.2   320  ALA320      0.2287
    149  O         32.2360   -6.4360  -25.5930 O.2   320  ALA320     -0.2864
    150  CB        31.1020   -3.6920  -24.2490 C.3   320  ALA320      0.0319
    151  N         33.1140   -7.4060  -22.2110 N.3   322  VAL322     -0.1245
    152  CA        32.4000   -7.4230  -20.9070 C.3   322  VAL322      0.1561
    153  C         32.9440   -8.5250  -20.0130 C.2   322  VAL322      0.2260
    154  O         32.8460   -9.7520  -20.3140 O.2   322  VAL322     -0.2867
    155  CB        30.8880   -7.5850  -21.0870 C.3   322  VAL322      0.0252
    156  CG1       30.1490   -7.3600  -19.7760 C.3   322  VAL322      0.0019
    157  CG2       30.3300   -6.6410  -22.1500 C.3   322  VAL322      0.0019
@<TRIPOS>BOND
     1   145   143   am
     2   144   143    2
     3   143   142    1
     4    42    41    2
     5   138   139    1
     6   139   142    1
     7   139   140    1
     8    45    43    1
     9    43    40    1
    10    43    44    1
    11    41    40    1
    12    40    39    1
    13   140   141    2
    14   140   146   am
    15    30    29    2
    16   137   135    1
    17   146   147    1
    18    39    29   am
    19    29    28    1
    20   135   136    1
    21   135   134    2
    22   149   148    2
    23   147   148    1
    24   147   150    1
    25    99    98    1
    26    91    92    1
    27   134   133    1
    28    28    27    1
    29    28    31    1
    30   129   130    2
    31   129   128    1
    32   131   128    1
    33   131   132    1
    34    92    95    1
    35    92    93    1
    36   128   127    1
    37    98    97    1
    38    31    32    1
    39    96    95    1
    40    96    97    1
    41   133   132    1
    42    94    93    2
    43    32    34   ar
    44    32    33   ar
    45   151   152    1
    46   157   155    1
    47    34    36   ar
    48    90    89    1
    49    46    47    1
    50    33    35   ar
    51    88    89   ar
    52    88    86   ar
    53   155   152    1
    54   155   156    1
    55   152   153    1
    56    89    87   ar
    57    36    37   ar
    58    47    50    1
    59    47    48    1
    60   154   153    2
    61    35    37   ar
    62    86    84   ar
    63    50    51    1
    64   126   124    1
    65   107   105    1
    66    87    85   ar
    67   106   104    1
    68    37    38    1
    69   100   101    1
    70   105   104    1
    71   125   124    1
    72    48    49    2
    73    84    85   ar
    74    84    83    1
    75   104   101    1
    76    51    52   ar
    77    51    53   ar
    78    52    54   ar
    79   124   121    1
    80   101   102    1
    81    83    80    1
    82   103   102    2
    83   115   113   ar
    84   121   122    1
    85   121   120    1
    86    53    55   ar
    87    54    56   ar
    88    20    19    2
    89   122   123    2
    90    79    80    1
    91   119   118    2
    92    80    81    1
    93   113   112    1
    94   113   114   ar
    95   112   109    1
    96   120   118   am
    97    55    56   ar
    98   118   117    1
    99    19    18    1
   100    19    21   am
   101    81    82    2
   102    25    22    1
   103    25    26    1
   104    18    17    1
   105    22    21    1
   106    22    23    1
   107    70    68   ar
   108    70    69   ar
   109   111   110    2
   110   109   108    1
   111   109   110    1
   112    68    66   ar
   113    16    14   ar
   114   117   116    1
   115    78    76    1
   116    15    14   ar
   117    14    13    1
   118    69    67   ar
   119    23    24    2
   120    66    65   ar
   121    66    64   ar
   122    77    75    1
   123     8     6    1
   124    65    63   ar
   125    76    75    1
   126    67    64   ar
   127    13    10    1
   128    64    62   ar
   129    75    72    1
   130    63    62   ar
   131    10    11    1
   132    10     9    1
   133     6     7    1
   134     6     5    1
   135    12    11    2
   136    60    59    2
   137    62    61    1
   138     5     2    1
   139    72    71    1
   140    72    73    1
   141    59    58    1
   142    73    74    2
   143    57    58    1
   144    61    58    1
   145     2     3    1
   146     2     1    1
   147     4     3    2
