@<TRIPOS>MOLECULE
tmp/3zkuA00.pdb
 179 166 0 0 0
SMALL
GASTEIGER

@<TRIPOS>ATOM
      1  N         20.9800   35.9770   10.8440 N.3    85  ARG85      -0.1245
      2  CA        19.9850   35.5610    9.8590 C.3    85  ARG85       0.1563
      3  C         19.3440   34.2140   10.2410 C.2    85  ARG85       0.2260
      4  O         18.1150   34.0580   10.1650 O.2    85  ARG85      -0.2867
      5  CB        20.5670   35.4120    8.4170 C.3    85  ARG85       0.0307
      6  CG        21.1160   36.7130    7.7830 C.3    85  ARG85       0.0489
      7  CD        21.7230   36.4000    6.4030 C.3    85  ARG85       0.2205
      8  NE        20.6920   36.1240    5.4040 N.pl3  85  ARG85      -0.0865
      9  CZ        20.8940   35.5970    4.2110 C.cat  85  ARG85       0.5346
     10  NH1       22.0840   35.2350    3.8340 N.pl3  85  ARG85       0.1354
     11  NH2       19.9060   35.4360    3.3950 N.pl3  85  ARG85       0.1354
     12  N         13.0490   33.0070   15.3030 N.3    89  TYR89      -0.1241
     13  CA        12.5920   34.3920   15.5190 C.3    89  TYR89       0.1605
     14  C         11.3340   34.2370   16.3560 C.2    89  TYR89       0.2264
     15  O         10.3090   33.8060   15.8630 O.2    89  TYR89      -0.2867
     16  CB        12.2320   35.0790   14.2150 C.3    89  TYR89       0.0534
     17  CG        13.4090   35.3470   13.2230 C.ar   89  TYR89      -0.0201
     18  CD1       14.2470   34.3500   12.8070 C.ar   89  TYR89      -0.0009
     19  CD2       13.6400   36.5870   12.7280 C.ar   89  TYR89      -0.0009
     20  CE1       15.2670   34.5760   11.9080 C.ar   89  TYR89       0.0417
     21  CE2       14.6320   36.8040   11.8030 C.ar   89  TYR89       0.0417
     22  CZ        15.4420   35.7970   11.3940 C.ar   89  TYR89       0.1957
     23  OH        16.4610   36.1060   10.4790 O.3    89  TYR89      -0.2866
     24  N         14.4480   30.5010   10.1630 N.3   102  CYS102     -0.1235
     25  CA        15.1770   30.7970    8.9010 C.3   102  CYS102      0.1677
     26  C         16.3810   29.8800    8.8200 C.2   102  CYS102      0.2270
     27  O         17.1320   29.6880    9.7810 O.2   102  CYS102     -0.2867
     28  CB        15.6010   32.2530    8.8780 C.3   102  CYS102      0.0956
     29  SG        16.6750   32.7360    7.4950 S.3   102  CYS102     -0.0801
     30  N         17.7890   32.2140    1.1670 N.3   181  SER181     -0.1217
     31  CA        17.2470   31.7790    2.4680 C.3   181  SER181      0.1889
     32  C         15.8350   31.2010    2.3160 C.2   181  SER181      0.2288
     33  O         15.0710   31.6120    1.4760 O.2   181  SER181     -0.2866
     34  CB        17.2590   32.9230    3.4650 C.3   181  SER181      0.2089
     35  OG        16.3550   33.9570    2.9740 O.3   181  SER181     -0.2183
     36  N         12.4960   30.7310    4.8220 N.3   183  VAL183     -0.1245
     37  CA        11.8740   31.0860    6.0610 C.3   183  VAL183      0.1561
     38  C         10.5950   30.3490    6.2510 C.2   183  VAL183      0.2260
     39  O          9.7050   30.3830    5.4170 O.2   183  VAL183     -0.2867
     40  CB        11.6480   32.6340    6.2190 C.3   183  VAL183      0.0252
     41  CG1       11.2990   32.9270    7.6910 C.3   183  VAL183      0.0019
     42  CG2       12.8400   33.4170    5.8270 C.3   183  VAL183      0.0019
     43  N          7.4990   30.5010    8.2590 N.3   185  ILE185     -0.1245
     44  CA         6.7290   31.4700    9.0620 C.3   185  ILE185      0.1561
     45  C          5.4070   30.9230    9.5350 C.2   185  ILE185      0.2260
     46  O          4.6600   30.3020    8.7440 O.2   185  ILE185     -0.2867
     47  CB         6.4320   32.7340    8.2430 C.3   185  ILE185      0.0252
     48  CG1        7.6660   33.2790    7.5690 C.3   185  ILE185      0.0019
     49  CG2        5.7930   33.7870    9.1810 C.3   185  ILE185      0.0019
     50  CD1        7.4050   34.3480    6.5400 C.3   185  ILE185      0.0001
     51  N          1.9550   32.1320   11.1980 N.3   187  TYR187     -0.1241
     52  CA         0.9930   33.1550   11.6300 C.3   187  TYR187      0.1605
     53  C         -0.0610   32.4400   12.4640 C.2   187  TYR187      0.2264
     54  O         -0.6880   31.5080   11.9540 O.2   187  TYR187     -0.2867
     55  CB         0.3500   33.8390   10.4140 C.3   187  TYR187      0.0534
     56  CG         1.1890   34.7340    9.6470 C.ar  187  TYR187     -0.0201
     57  CD1        1.2730   36.0910    9.9660 C.ar  187  TYR187     -0.0009
     58  CD2        1.9050   34.2680    8.5660 C.ar  187  TYR187     -0.0009
     59  CE1        2.0470   36.9290    9.2220 C.ar  187  TYR187      0.0417
     60  CE2        2.6720   35.1100    7.8250 C.ar  187  TYR187      0.0417
     61  CZ         2.7520   36.4150    8.1740 C.ar  187  TYR187      0.1957
     62  OH         3.5200   37.3060    7.3990 O.3   187  TYR187     -0.2866
     63  N          2.1540   42.8700    8.4720 N.3   209  PHE209     -0.1241
     64  CA         3.4520   43.3950    8.0040 C.3   209  PHE209      0.1605
     65  C          3.2000   44.5110    7.0370 C.2   209  PHE209      0.2264
     66  O          2.3640   44.4000    6.1320 O.2   209  PHE209     -0.2867
     67  CB         4.2840   42.3190    7.3120 C.3   209  PHE209      0.0534
     68  CG         4.8250   41.2860    8.2390 C.ar  209  PHE209     -0.0203
     69  CD1        5.9630   41.5270    8.9780 C.ar  209  PHE209     -0.0042
     70  CD2        4.2190   40.0330    8.3380 C.ar  209  PHE209     -0.0042
     71  CE1        6.4570   40.5630    9.8340 C.ar  209  PHE209     -0.0003
     72  CE2        4.7230   39.0820    9.2060 C.ar  209  PHE209     -0.0003
     73  CZ         5.8540   39.3320    9.9000 C.ar  209  PHE209     -0.0000
     74  N          6.4240   47.0890    1.7890 N.3   212  HIS212     -0.1241
     75  CA         7.8470   46.9640    1.5150 C.3   212  HIS212      0.1621
     76  C          8.0540   46.4500    0.0980 C.2   212  HIS212      0.2264
     77  O          7.1650   45.8940   -0.5340 O.2   212  HIS212     -0.2867
     78  CB         8.4950   45.9830    2.5140 C.3   212  HIS212      0.0745
     79  CG         7.9940   44.6000    2.4090 C.ar  212  HIS212      0.0817
     80  ND1        6.7530   44.2290    2.8690 N.ar  212  HIS212     -0.2268
     81  CD2        8.5350   43.4980    1.8510 C.ar  212  HIS212      0.1154
     82  CE1        6.5590   42.9600    2.5800 C.ar  212  HIS212      0.1986
     83  NE2        7.6040   42.4920    1.9200 N.ar  212  HIS212     -0.2212
     84  N         10.7710   43.5710   -1.5580 N.3   214  ASP214     -0.1225
     85  CA        11.6300   42.4820   -1.0690 C.3   214  ASP214      0.1805
     86  C         13.1170   42.7420   -1.3270 C.2   214  ASP214      0.2597
     87  O         13.4870   43.3000   -2.3560 O.2   214  ASP214     -0.2718
     88  CB        11.2560   41.1480   -1.7460 C.3   214  ASP214      0.1424
     89  CG         9.9640   40.5570   -1.2310 C.2   214  ASP214      0.3668
     90  OD1        9.4340   41.0490   -0.2410 O.co2 214  ASP214     -0.2456
     91  OD2        9.4660   39.6140   -1.8620 O.co2 214  ASP214     -0.2456
     92  N         13.8990   42.2250   -0.3890 N.am  215  VAL215     -0.1980
     93  CA        15.3500   42.1430   -0.4980 C.3   215  VAL215      0.1595
     94  C         15.7040   40.8060   -1.0740 C.2   215  VAL215      0.2287
     95  O         15.7490   39.7990   -0.3430 O.2   215  VAL215     -0.2864
     96  CB        16.0390   42.4310    0.8470 C.3   215  VAL215      0.0276
     97  CG1       17.5440   42.3790    0.6610 C.3   215  VAL215      0.0022
     98  CG2       15.6010   43.7900    1.3920 C.3   215  VAL215      0.0022
     99  N          7.4400   31.9290   -3.2920 N.3   221  LEU221     -0.1245
    100  CA         6.6690   31.7700   -2.0490 C.3   221  LEU221      0.1561
    101  C          5.6030   30.7250   -2.1370 C.2   221  LEU221      0.2260
    102  O          4.7340   30.7480   -3.0300 O.2   221  LEU221     -0.2867
    103  CB         5.9750   33.0810   -1.7430 C.3   221  LEU221      0.0270
    104  CG         5.0030   33.1520   -0.5890 C.3   221  LEU221      0.0019
    105  CD1        5.7610   33.0120    0.7160 C.3   221  LEU221      0.0001
    106  CD2        4.2910   34.5460   -0.5840 C.3   221  LEU221      0.0001
    107  N         -2.2820   38.7120    1.0580 N.3   229  LEU229     -0.1245
    108  CA        -1.3280   39.6690    0.4830 C.3   229  LEU229      0.1561
    109  C         -2.0350   40.6960   -0.3750 C.2   229  LEU229      0.2260
    110  O         -3.0360   40.4280   -1.0010 O.2   229  LEU229     -0.2867
    111  CB        -0.3320   38.9180   -0.3920 C.3   229  LEU229      0.0270
    112  CG         0.6380   37.9810    0.3640 C.3   229  LEU229      0.0019
    113  CD1        1.5170   37.2480   -0.6570 C.3   229  LEU229      0.0001
    114  CD2        1.4950   38.6820    1.3570 C.3   229  LEU229      0.0001
    115  N          4.3110   45.5840   -1.5870 N.3   268  HIS268     -0.1241
    116  CA         3.2630   44.7440   -1.0850 C.3   268  HIS268      0.1621
    117  C          3.2600   44.7580    0.4140 C.2   268  HIS268      0.2264
    118  O          4.2080   45.1940    1.0660 O.2   268  HIS268     -0.2867
    119  CB         3.4280   43.3250   -1.6770 C.3   268  HIS268      0.0745
    120  CG         4.7450   42.7060   -1.3960 C.ar  268  HIS268      0.0817
    121  ND1        5.8870   43.0330   -2.0700 N.ar  268  HIS268     -0.2268
    122  CD2        5.0600   41.7210   -0.5410 C.ar  268  HIS268      0.1154
    123  CE1        6.8820   42.3170   -1.5490 C.ar  268  HIS268      0.1986
    124  NE2        6.4140   41.5170   -0.6250 N.ar  268  HIS268     -0.2212
    125  N          1.1140   42.6480    4.0460 N.3   270  VAL270     -0.1245
    126  CA         0.4630   41.4300    4.5490 C.3   270  VAL270      0.1561
    127  C         -0.7190   41.8550    5.4520 C.2   270  VAL270      0.2260
    128  O         -0.4520   42.4440    6.5370 O.2   270  VAL270     -0.2867
    129  CB         1.4030   40.5350    5.3510 C.3   270  VAL270      0.0252
    130  CG1        0.6580   39.3150    5.8800 C.3   270  VAL270      0.0019
    131  CG2        2.6200   40.1130    4.4890 C.3   270  VAL270      0.0019
    132  N          3.4850   30.6480    5.8850 N.3   279  SER279     -0.1217
    133  CA         4.0390   31.4360    4.7890 C.3   279  SER279      0.1889
    134  C          5.5090   31.0110    4.6360 C.2   279  SER279      0.2288
    135  O          6.2770   31.1040    5.6090 O.2   279  SER279     -0.2866
    136  CB         3.9790   32.9200    5.0440 C.3   279  SER279      0.2089
    137  OG         4.4770   33.6600    3.8880 O.3   279  SER279     -0.2183
    138  N          8.5210   31.5830    2.3130 N.3   281  PRO281     -0.2116
    139  CA         9.2760   32.1850    1.2140 C.3   281  PRO281      0.1372
    140  C         10.6880   31.6100    1.0660 C.2   281  PRO281      0.2244
    141  O         11.3320   31.2140    2.0450 O.2   281  PRO281     -0.2868
    142  CB         9.3680   33.6600    1.6550 C.3   281  PRO281      0.0268
    143  CG         9.3480   33.5640    3.1290 C.3   281  PRO281      0.0207
    144  CD         8.3580   32.4880    3.4350 C.3   281  PRO281      0.0892
    145  N         13.9160   33.3010   -0.6060 N.3   283  PHE283     -0.1241
    146  CA        14.4890   34.5560   -1.1370 C.3   283  PHE283      0.1605
    147  C         15.6460   34.1840   -1.9840 C.2   283  PHE283      0.2264
    148  O         16.6720   33.6980   -1.4800 O.2   283  PHE283     -0.2867
    149  CB        14.8400   35.5200   -0.0190 C.3   283  PHE283      0.0534
    150  CG        13.6390   35.9520    0.7960 C.ar  283  PHE283     -0.0203
    151  CD1       12.7730   36.8650    0.2700 C.ar  283  PHE283     -0.0042
    152  CD2       13.4060   35.4630    2.0600 C.ar  283  PHE283     -0.0042
    153  CE1       11.6150   37.2760    0.9730 C.ar  283  PHE283     -0.0003
    154  CE2       12.2540   35.8700    2.7730 C.ar  283  PHE283     -0.0003
    155  CZ        11.4070   36.7890    2.2620 C.ar  283  PHE283     -0.0000
    156  N         18.7400   34.7860   -3.6660 N.3   285  ASN285     -0.1240
    157  CA        19.9370   35.6910   -3.5690 C.3   285  ASN285      0.1653
    158  C         21.0500   35.0250   -4.3730 C.2   285  ASN285      0.2266
    159  O         21.1780   33.7940   -4.4700 O.2   285  ASN285     -0.2867
    160  CB        20.3220   35.8190   -2.1340 C.3   285  ASN285      0.1155
    161  CG        19.2520   36.5580   -1.3330 C.2   285  ASN285      0.2627
    162  OD1       18.6330   37.5160   -1.8110 O.2   285  ASN285     -0.2716
    163  ND2       19.0560   36.1700   -0.0710 N.am  285  ASN285     -0.0877
    164  N         19.1150   44.0080    4.3840 N.3   319  LEU319     -0.1245
    165  CA        18.5420   43.2380    5.4980 C.3   319  LEU319      0.1561
    166  C         18.4450   44.1590    6.7170 C.2   319  LEU319      0.2260
    167  O         17.4190   44.1470    7.4450 O.2   319  LEU319     -0.2867
    168  CB        19.3430   41.9750    5.7620 C.3   319  LEU319      0.0270
    169  CG        19.1650   40.9200    4.6300 C.3   319  LEU319      0.0019
    170  CD1       20.0090   39.7180    4.9350 C.3   319  LEU319      0.0001
    171  CD2       17.7060   40.5800    4.2930 C.3   319  LEU319      0.0001
    172  N         15.4760   46.9530    6.0320 N.3   322  LEU322     -0.1245
    173  CA        14.1560   46.3800    6.1800 C.3   322  LEU322      0.1561
    174  C         13.8020   46.2180    7.6670 C.2   322  LEU322      0.2260
    175  O         12.6380   46.4750    8.0840 O.2   322  LEU322     -0.2867
    176  CB        14.1310   45.0350    5.4700 C.3   322  LEU322      0.0270
    177  CG        12.7660   44.3930    5.1930 C.3   322  LEU322      0.0019
    178  CD1       11.5890   45.3580    4.9950 C.3   322  LEU322      0.0001
    179  CD2       12.9370   43.4540    3.9890 C.3   322  LEU322      0.0001
@<TRIPOS>BOND
     1   159   158    2
     2   158   157    1
     3   156   157    1
     4   157   160    1
     5    99   100    1
     6   102   101    2
     7    87    86    2
     8   101   100    1
     9   160   161    1
    10   121   123   ar
    11   121   120   ar
    12   100   103    1
    13   147   148    2
    14   147   146    1
    15    91    89   ar
    16   162   161    2
    17    88    89    1
    18    88    85    1
    19   103   104    1
    20   119   120    1
    21   119   116    1
    22   115   116    1
    23    84    85    1
    24   123   124   ar
    25   120   122   ar
    26   161   163   am
    27    86    85    1
    28    86    92   am
    29    89    90   ar
    30   146   145    1
    31   146   149    1
    32   116   117    1
    33    94    93    1
    34    94    95    2
    35   110   109    2
    36   113   112    1
    37   124   122   ar
    38   104   106    1
    39   104   105    1
    40    77    76    2
    41    93    92    1
    42    93    96    1
    43   111   112    1
    44   111   108    1
    45   109   108    1
    46   149   150    1
    47    76    75    1
    48   151   150   ar
    49   151   153   ar
    50   112   114    1
    51   117   118    2
    52   108   107    1
    53    97    96    1
    54   150   152   ar
    55    96    98    1
    56   153   155   ar
    57   140   139    1
    58   140   141    2
    59    30    31    1
    60   139   142    1
    61   139   138    1
    62    33    32    2
    63    75    74    1
    64    75    78    1
    65   142   143    1
    66    81    83   ar
    67    81    79   ar
    68    83    82   ar
    69   152   154   ar
    70   155   154   ar
    71   138   144    1
    72    32    31    1
    73    79    78    1
    74    79    80   ar
    75    31    34    1
    76    82    80   ar
    77    35    34    1
    78   143   144    1
    79    11     9    1
    80    10     9    1
    81   137   136    1
    82   179   177    1
    83   125   126    1
    84     9     8    2
    85   171   169    1
    86   164   165    1
    87   131   129    1
    88   126   129    1
    89   126   127    1
    90   169   170    1
    91   169   168    1
    92   134   133    1
    93   134   135    2
    94   133   136    1
    95   133   132    1
    96    36    37    1
    97   178   177    1
    98   177   176    1
    99   129   130    1
   100     8     7    1
   101    39    38    2
   102   127   128    2
   103   176   173    1
   104   165   168    1
   105   165   166    1
   106    42    40    1
   107   172   173    1
   108    37    40    1
   109    37    38    1
   110    66    65    2
   111   173   174    1
   112    40    41    1
   113     7     6    1
   114    50    48    1
   115   166   167    2
   116    65    64    1
   117    67    64    1
   118    67    68    1
   119    62    61    1
   120    29    28    1
   121    48    47    1
   122   174   175    2
   123     6     5    1
   124    60    61   ar
   125    60    58   ar
   126    64    63    1
   127    61    59   ar
   128    68    70   ar
   129    68    69   ar
   130    47    44    1
   131    47    49    1
   132    43    44    1
   133    70    72   ar
   134     5     2    1
   135    58    56   ar
   136    46    45    2
   137    26    25    1
   138    26    27    2
   139    28    25    1
   140    25    24    1
   141    69    71   ar
   142    44    45    1
   143    72    73   ar
   144    59    57   ar
   145    56    57   ar
   146    56    55    1
   147    71    73   ar
   148     2     3    1
   149     2     1    1
   150     4     3    2
   151    55    52    1
   152    23    22    1
   153    51    52    1
   154    22    21   ar
   155    22    20   ar
   156    52    53    1
   157    21    19   ar
   158    20    18   ar
   159    54    53    2
   160    19    17   ar
   161    18    17   ar
   162    17    16    1
   163    16    13    1
   164    12    13    1
   165    13    14    1
   166    15    14    2
