@<TRIPOS>MOLECULE
tmp/3zkyA00.pdb
 218 201 0 0 0
SMALL
GASTEIGER

@<TRIPOS>ATOM
      1  N         21.0850   35.9270   10.8230 N.3    85  ARG85      -0.1245
      2  CA        20.0600   35.5440    9.8170 C.3    85  ARG85       0.1563
      3  C         19.4310   34.2160   10.1870 C.2    85  ARG85       0.2260
      4  O         18.1760   34.0600   10.1690 O.2    85  ARG85      -0.2867
      5  CB        20.6440   35.4020    8.3910 C.3    85  ARG85       0.0307
      6  CG        21.1960   36.6820    7.7520 C.3    85  ARG85       0.0489
      7  CD        21.8550   36.3890    6.3780 C.3    85  ARG85       0.2205
      8  NE        20.7950   36.1340    5.4290 N.pl3  85  ARG85      -0.0865
      9  CZ        20.9960   35.6210    4.2160 C.cat  85  ARG85       0.5346
     10  NH1       22.2280   35.2390    3.7840 N.pl3  85  ARG85       0.1354
     11  NH2       19.9740   35.4480    3.4290 N.pl3  85  ARG85       0.1354
     12  N         13.0620   33.0400   15.2310 N.3    89  TYR89      -0.1241
     13  CA        12.5970   34.4170   15.4720 C.3    89  TYR89       0.1605
     14  C         11.3160   34.2800   16.2910 C.2    89  TYR89       0.2264
     15  O         10.2880   33.8290   15.7830 O.2    89  TYR89      -0.2867
     16  CB        12.2410   35.0860   14.0980 C.3    89  TYR89       0.0534
     17  CG        13.4390   35.3690   13.1330 C.ar   89  TYR89      -0.0201
     18  CD1       14.2390   34.3500   12.7030 C.ar   89  TYR89      -0.0009
     19  CD2       13.5990   36.5960   12.6100 C.ar   89  TYR89      -0.0009
     20  CE1       15.2940   34.5660   11.8410 C.ar   89  TYR89       0.0417
     21  CE2       14.6690   36.8790   11.7290 C.ar   89  TYR89       0.0417
     22  CZ        15.4490   35.7930   11.3390 C.ar   89  TYR89       0.1957
     23  OH        16.5100   36.0970   10.4440 O.3    89  TYR89      -0.2866
     24  N         14.5200   30.5240   10.0910 N.3   102  CYS102     -0.1235
     25  CA        15.2170   30.8180    8.7990 C.3   102  CYS102      0.1677
     26  C         16.4290   29.9020    8.7170 C.2   102  CYS102      0.2270
     27  O         17.1710   29.7070    9.7220 O.2   102  CYS102     -0.2867
     28  CB        15.6730   32.2650    8.8250 C.3   102  CYS102      0.0956
     29  SG        16.7660   32.7510    7.4530 S.3   102  CYS102     -0.0801
     30  N         17.8650   32.2350    1.1060 N.3   181  SER181     -0.1217
     31  CA        17.3550   31.7640    2.4190 C.3   181  SER181      0.1889
     32  C         15.9350   31.2040    2.2290 C.2   181  SER181      0.2288
     33  O         15.1500   31.6310    1.3820 O.2   181  SER181     -0.2866
     34  CB        17.3450   32.9020    3.4330 C.3   181  SER181      0.2089
     35  OG        16.4730   33.9490    2.9500 O.3   181  SER181     -0.2183
     36  N         12.5870   30.8400    4.7110 N.3   183  VAL183     -0.1245
     37  CA        12.0110   31.2280    5.9870 C.3   183  VAL183      0.1561
     38  C         10.6920   30.4940    6.1630 C.2   183  VAL183      0.2260
     39  O          9.8010   30.5770    5.3100 O.2   183  VAL183     -0.2867
     40  CB        11.8050   32.7650    6.1500 C.3   183  VAL183      0.0252
     41  CG1       11.4760   33.0780    7.6490 C.3   183  VAL183      0.0019
     42  CG2       13.0480   33.5260    5.7020 C.3   183  VAL183      0.0019
     43  N          7.6020   30.7430    8.0930 N.3   185  ILE185     -0.1245
     44  CA         6.8490   31.6860    8.9490 C.3   185  ILE185      0.1561
     45  C          5.4910   31.1190    9.3620 C.2   185  ILE185      0.2260
     46  O          4.7270   30.6040    8.5350 O.2   185  ILE185     -0.2867
     47  CB         6.6450   33.0240    8.1820 C.3   185  ILE185      0.0252
     48  CG1        7.9080   33.5760    7.5670 C.3   185  ILE185      0.0019
     49  CG2        5.9040   34.0730    9.1100 C.3   185  ILE185      0.0019
     50  CD1        7.6200   34.7130    6.5980 C.3   185  ILE185      0.0001
     51  N          2.0170   32.2200   11.0150 N.3   187  TYR187     -0.1241
     52  CA         1.0860   33.2790   11.5010 C.3   187  TYR187      0.1605
     53  C          0.0140   32.5570   12.2720 C.2   187  TYR187      0.2264
     54  O         -0.6900   31.6700   11.7350 O.2   187  TYR187     -0.2867
     55  CB         0.4530   33.9850   10.2480 C.3   187  TYR187      0.0534
     56  CG         1.3120   34.9850    9.5860 C.ar  187  TYR187     -0.0201
     57  CD1        1.3450   36.2520   10.0880 C.ar  187  TYR187     -0.0009
     58  CD2        2.1690   34.7050    8.4650 C.ar  187  TYR187     -0.0009
     59  CE1        2.1430   37.2490    9.5740 C.ar  187  TYR187      0.0417
     60  CE2        2.9170   35.7270    7.9070 C.ar  187  TYR187      0.0417
     61  CZ         2.8920   37.0200    8.4760 C.ar  187  TYR187      0.1957
     62  OH         3.6920   38.0630    7.9960 O.3   187  TYR187     -0.2866
     63  N          2.1540   43.0610    8.3900 N.3   209  PHE209     -0.1241
     64  CA         3.5070   43.5870    7.9760 C.3   209  PHE209      0.1605
     65  C          3.2470   44.6880    6.9830 C.2   209  PHE209      0.2264
     66  O          2.3810   44.5670    6.0700 O.2   209  PHE209     -0.2867
     67  CB         4.3410   42.4250    7.4250 C.3   209  PHE209      0.0534
     68  CG         5.7850   42.7430    7.2670 C.ar  209  PHE209     -0.0203
     69  CD1        6.6360   42.6960    8.3720 C.ar  209  PHE209     -0.0042
     70  CD2        6.2940   42.9940    5.9790 C.ar  209  PHE209     -0.0042
     71  CE1        8.0260   42.9850    8.2120 C.ar  209  PHE209     -0.0003
     72  CE2        7.6600   43.3110    5.8530 C.ar  209  PHE209     -0.0003
     73  CZ         8.5180   43.2750    6.9480 C.ar  209  PHE209     -0.0000
     74  N          6.4870   47.2150    1.6940 N.3   212  HIS212     -0.1241
     75  CA         7.9280   47.0730    1.4420 C.3   212  HIS212      0.1621
     76  C          8.1350   46.5620    0.0470 C.2   212  HIS212      0.2264
     77  O          7.2230   46.0430   -0.5840 O.2   212  HIS212     -0.2867
     78  CB         8.5460   46.0430    2.4540 C.3   212  HIS212      0.0745
     79  CG         7.9980   44.6550    2.3200 C.ar  212  HIS212      0.0817
     80  ND1        6.7210   44.2970    2.7470 N.ar  212  HIS212     -0.2268
     81  CD2        8.5470   43.5550    1.7240 C.ar  212  HIS212      0.1154
     82  CE1        6.5250   43.0070    2.4460 C.ar  212  HIS212      0.1986
     83  NE2        7.6110   42.5400    1.8100 N.ar  212  HIS212     -0.2212
     84  N         10.8440   43.6840   -1.6280 N.3   214  ASP214     -0.1225
     85  CA        11.7090   42.5730   -1.1480 C.3   214  ASP214      0.1805
     86  C         13.1830   42.8150   -1.3860 C.2   214  ASP214      0.2597
     87  O         13.5810   43.4560   -2.4020 O.2   214  ASP214     -0.2718
     88  CB        11.3220   41.2620   -1.8380 C.3   214  ASP214      0.1424
     89  CG        10.0500   40.6800   -1.3250 C.2   214  ASP214      0.3668
     90  OD1        9.4340   41.1610   -0.3400 O.co2 214  ASP214     -0.2456
     91  OD2        9.5850   39.7040   -1.9440 O.co2 214  ASP214     -0.2456
     92  N         13.9860   42.3120   -0.4350 N.am  215  VAL215     -0.1980
     93  CA        15.4550   42.2910   -0.5940 C.3   215  VAL215      0.1595
     94  C         15.7940   40.9240   -1.1670 C.2   215  VAL215      0.2287
     95  O         15.8410   39.8970   -0.4790 O.2   215  VAL215     -0.2864
     96  CB        16.1350   42.4980    0.7680 C.3   215  VAL215      0.0276
     97  CG1       17.6700   42.4880    0.6450 C.3   215  VAL215      0.0022
     98  CG2       15.6840   43.8190    1.3880 C.3   215  VAL215      0.0022
     99  N         11.6820   36.4930   -5.4460 N.3   219  THR219     -0.1218
    100  CA        11.1520   35.7690   -4.2610 C.3   219  THR219      0.1862
    101  C         10.1520   34.7210   -4.7760 C.2   219  THR219      0.2287
    102  O          9.3480   34.9650   -5.6600 O.2   219  THR219     -0.2866
    103  CB        10.3900   36.7800   -3.3920 C.3   219  THR219      0.1770
    104  OG1       11.3480   37.7940   -2.9890 O.3   219  THR219     -0.2211
    105  CG2        9.7770   36.0930   -2.1710 C.3   219  THR219      0.0375
    106  N          7.5160   32.0730   -3.3750 N.3   221  LEU221     -0.1245
    107  CA         6.7550   31.9650   -2.1060 C.3   221  LEU221      0.1561
    108  C          5.6790   30.9280   -2.1530 C.2   221  LEU221      0.2260
    109  O          4.7880   30.9850   -3.0540 O.2   221  LEU221     -0.2867
    110  CB         6.1090   33.3420   -1.8300 C.3   221  LEU221      0.0270
    111  CG         5.1680   33.4190   -0.6220 C.3   221  LEU221      0.0019
    112  CD1        5.9130   33.2010    0.7170 C.3   221  LEU221      0.0001
    113  CD2        4.6110   34.8950   -0.6250 C.3   221  LEU221      0.0001
    114  N          2.3900   29.8800    0.1310 N.3   223  GLN223     -0.1245
    115  CA         1.4960   30.2530    1.2520 C.3   223  GLN223      0.1566
    116  C          0.3110   29.3790    1.3370 C.2   223  GLN223      0.2260
    117  O         -0.1460   28.8250    0.2960 O.2   223  GLN223     -0.2867
    118  CB         0.9650   31.7170    1.1150 C.3   223  GLN223      0.0367
    119  CG         2.0450   32.8120    1.0680 C.3   223  GLN223      0.0905
    120  CD         1.4500   34.0650    1.5290 C.2   223  GLN223      0.2608
    121  OE1        0.3440   34.4290    1.0890 O.2   223  GLN223     -0.2717
    122  NE2        2.1870   34.7840    2.3830 N.am  223  GLN223     -0.0878
    123  N         -2.2640   38.8800    0.9960 N.3   229  LEU229     -0.1245
    124  CA        -1.3080   39.8280    0.3810 C.3   229  LEU229      0.1561
    125  C         -2.0360   40.8650   -0.4490 C.2   229  LEU229      0.2260
    126  O         -3.0320   40.6290   -1.0830 O.2   229  LEU229     -0.2867
    127  CB        -0.2990   39.0710   -0.5310 C.3   229  LEU229      0.0270
    128  CG         0.5620   38.0840    0.2650 C.3   229  LEU229      0.0019
    129  CD1        1.4620   37.3250   -0.7290 C.3   229  LEU229      0.0001
    130  CD2        1.4550   38.8030    1.2190 C.3   229  LEU229      0.0001
    131  N          4.3960   45.7480   -1.6640 N.3   268  HIS268     -0.1241
    132  CA         3.3120   44.9180   -1.1810 C.3   268  HIS268      0.1621
    133  C          3.3060   44.8570    0.3140 C.2   268  HIS268      0.2264
    134  O          4.2550   45.3220    0.9950 O.2   268  HIS268     -0.2867
    135  CB         3.4810   43.4720   -1.8050 C.3   268  HIS268      0.0745
    136  CG         4.7890   42.8370   -1.5250 C.ar  268  HIS268      0.0817
    137  ND1        5.9450   43.1990   -2.1550 N.ar  268  HIS268     -0.2268
    138  CD2        5.1270   41.8520   -0.6220 C.ar  268  HIS268      0.1154
    139  CE1        6.9520   42.4610   -1.6700 C.ar  268  HIS268      0.1986
    140  NE2        6.4700   41.6280   -0.7300 N.ar  268  HIS268     -0.2212
    141  N          1.1370   42.8100    3.9610 N.3   270  VAL270     -0.1245
    142  CA         0.4740   41.5950    4.4820 C.3   270  VAL270      0.1561
    143  C         -0.7040   42.0290    5.3720 C.2   270  VAL270      0.2260
    144  O         -0.4450   42.6530    6.4370 O.2   270  VAL270     -0.2867
    145  CB         1.4480   40.7440    5.3040 C.3   270  VAL270      0.0252
    146  CG1        0.6530   39.5470    5.8750 C.3   270  VAL270      0.0019
    147  CG2        2.6460   40.2470    4.4550 C.3   270  VAL270      0.0019
    148  N          3.5200   31.0760    5.7350 N.3   279  SER279     -0.1217
    149  CA         4.1390   31.8660    4.6430 C.3   279  SER279      0.1889
    150  C          5.5820   31.3370    4.5450 C.2   279  SER279      0.2288
    151  O          6.3600   31.4590    5.5140 O.2   279  SER279     -0.2866
    152  CB         4.0790   33.3390    4.9920 C.3   279  SER279      0.2089
    153  OG         4.6720   34.0720    3.8590 O.3   279  SER279     -0.2183
    154  N          8.6210   31.7210    2.2350 N.3   281  PRO281     -0.2116
    155  CA         9.3840   32.3130    1.1410 C.3   281  PRO281      0.1372
    156  C         10.7720   31.7130    0.9900 C.2   281  PRO281      0.2244
    157  O         11.4310   31.3130    1.9550 O.2   281  PRO281     -0.2868
    158  CB         9.5760   33.8210    1.5310 C.3   281  PRO281      0.0268
    159  CG         9.5140   33.7160    3.0590 C.3   281  PRO281      0.0207
    160  CD         8.4470   32.7100    3.3720 C.3   281  PRO281      0.0892
    161  N         14.0380   33.3620   -0.6950 N.3   283  PHE283     -0.1241
    162  CA        14.6170   34.5960   -1.2900 C.3   283  PHE283      0.1605
    163  C         15.7970   34.2130   -2.1220 C.2   283  PHE283      0.2264
    164  O         16.8000   33.7080   -1.6040 O.2   283  PHE283     -0.2867
    165  CB        15.0110   35.5650   -0.1270 C.3   283  PHE283      0.0534
    166  CG        13.7940   36.0320    0.6650 C.ar  283  PHE283     -0.0203
    167  CD1       12.8810   36.9130    0.0760 C.ar  283  PHE283     -0.0042
    168  CD2       13.5240   35.5420    1.9720 C.ar  283  PHE283     -0.0042
    169  CE1       11.7460   37.3650    0.7790 C.ar  283  PHE283     -0.0003
    170  CE2       12.3790   35.9830    2.6840 C.ar  283  PHE283     -0.0003
    171  CZ        11.4550   36.8870    2.0960 C.ar  283  PHE283     -0.0000
    172  N         18.8600   34.8640   -3.7100 N.3   285  ASN285     -0.1240
    173  CA        20.0490   35.7760   -3.6270 C.3   285  ASN285      0.1653
    174  C         21.1510   35.1410   -4.4050 C.2   285  ASN285      0.2266
    175  O         21.2740   33.8860   -4.4630 O.2   285  ASN285     -0.2867
    176  CB        20.4180   35.8490   -2.1370 C.3   285  ASN285      0.1155
    177  CG        19.3510   36.6020   -1.2870 C.2   285  ASN285      0.2627
    178  OD1       18.7000   37.5560   -1.7940 O.2   285  ASN285     -0.2716
    179  ND2       19.1040   36.1740   -0.0240 N.am  285  ASN285     -0.0877
    180  N         22.8750   42.9820   -0.3070 N.3   315  LEU315     -0.1245
    181  CA        22.1190   42.1670    0.6850 C.3   315  LEU315      0.1561
    182  C         22.3910   42.6860    2.1090 C.2   315  LEU315      0.2260
    183  O         21.4450   42.8540    2.8860 O.2   315  LEU315     -0.2867
    184  CB        22.5130   40.7260    0.5960 C.3   315  LEU315      0.0270
    185  CG        21.7610   39.7600    1.5260 C.3   315  LEU315      0.0019
    186  CD1       20.2540   39.7520    1.1700 C.3   315  LEU315      0.0001
    187  CD2       22.3410   38.3570    1.3570 C.3   315  LEU315      0.0001
    188  N         19.1080   44.1470    4.2290 N.3   319  LEU319     -0.1245
    189  CA        18.5310   43.3980    5.3930 C.3   319  LEU319      0.1561
    190  C         18.4800   44.3270    6.6030 C.2   319  LEU319      0.2260
    191  O         17.3940   44.3820    7.2820 O.2   319  LEU319     -0.2867
    192  CB        19.2690   42.1060    5.6830 C.3   319  LEU319      0.0270
    193  CG        19.0240   41.0710    4.5350 C.3   319  LEU319      0.0019
    194  CD1       19.9040   39.8990    4.8510 C.3   319  LEU319      0.0001
    195  CD2       17.5730   40.7340    4.1940 C.3   319  LEU319      0.0001
    196  N         15.5630   46.9700    5.9600 N.3   322  LEU322     -0.1231
    197  CA        14.2190   46.4640    6.0840 C.3   322  LEU322      0.1693
    198  C         13.8490   46.2940    7.5500 C.2   322  LEU322      0.2591
    199  O         12.7050   46.5650    7.9240 O.2   322  LEU322     -0.2718
    200  CB        14.0690   45.1790    5.2700 C.3   322  LEU322      0.0284
    201  CG        12.6880   44.5100    5.1600 C.3   322  LEU322      0.0019
    202  CD1       11.5700   45.3510    4.5790 C.3   322  LEU322      0.0001
    203  CD2       12.9910   43.2130    4.4140 C.3   322  LEU322      0.0001
    204  N         14.8060   45.8370    8.3880 N.am  323  ILE323     -0.1980
    205  CA        14.5790   45.7700    9.8710 C.3   323  ILE323      0.1595
    206  C         14.2940   47.2100   10.4070 C.2   323  ILE323      0.2287
    207  O         13.3040   47.4580   11.1830 O.2   323  ILE323     -0.2864
    208  CB        15.7870   45.1390   10.5960 C.3   323  ILE323      0.0276
    209  CG1       15.9660   43.6820   10.1210 C.3   323  ILE323      0.0022
    210  CG2       15.5840   45.2080   12.1170 C.3   323  ILE323      0.0022
    211  CD1       17.2580   42.9920   10.5010 C.3   323  ILE323      0.0001
    212  N         11.5060   41.0800   12.7790 N.3   329  THR329     -0.1218
    213  CA        10.5510   39.9460   12.6230 C.3   329  THR329      0.1862
    214  C         10.8700   38.8500   13.5970 C.2   329  THR329      0.2287
    215  O         10.0840   37.8430   13.5570 O.2   329  THR329     -0.2866
    216  CB        10.4800   39.3290   11.1780 C.3   329  THR329      0.1770
    217  OG1       11.7660   38.8380   10.7750 O.3   329  THR329     -0.2211
    218  CG2       10.0070   40.3650   10.1620 C.3   329  THR329      0.0375
@<TRIPOS>BOND
     1   102   101    2
     2    99   100    1
     3   101   100    1
     4   175   174    2
     5   174   173    1
     6   100   103    1
     7   172   173    1
     8   173   176    1
     9   103   104    1
    10   103   105    1
    11   106   107    1
    12   109   108    2
    13    87    86    2
    14   137   139   ar
    15   137   136   ar
    16   108   107    1
    17   176   177    1
    18   163   164    2
    19   163   162    1
    20   107   110    1
    21    91    89   ar
    22    88    89    1
    23    88    85    1
    24   110   111    1
    25   135   136    1
    26   135   132    1
    27   178   177    2
    28   139   140   ar
    29   131   132    1
    30    84    85    1
    31   136   138   ar
    32    86    85    1
    33    86    92   am
    34    89    90   ar
    35   162   161    1
    36   162   165    1
    37   177   179   am
    38   132   133    1
    39    94    93    1
    40    94    95    2
    41   126   125    2
    42   140   138   ar
    43   129   128    1
    44   113   111    1
    45   111   112    1
    46    93    92    1
    47    93    96    1
    48    77    76    2
    49   127   128    1
    50   127   124    1
    51   125   124    1
    52   180   181    1
    53   165   166    1
    54    76    75    1
    55   167   166   ar
    56   167   169   ar
    57   114   115    1
    58   128   130    1
    59   117   116    2
    60   133   134    2
    61   124   123    1
    62   184   181    1
    63   184   185    1
    64    97    96    1
    65   166   168   ar
    66   181   182    1
    67    96    98    1
    68   169   171   ar
    69   156   155    1
    70   156   157    2
    71   119   118    1
    72   119   120    1
    73   121   120    2
    74    30    31    1
    75   118   115    1
    76   155   158    1
    77   155   154    1
    78   186   185    1
    79   115   116    1
    80   187   185    1
    81    33    32    2
    82    75    74    1
    83    75    78    1
    84   120   122   am
    85   158   159    1
    86    81    83   ar
    87    81    79   ar
    88    83    82   ar
    89   168   170   ar
    90   171   170   ar
    91   182   183    2
    92    32    31    1
    93   154   160    1
    94    79    78    1
    95    79    80   ar
    96    31    34    1
    97    82    80   ar
    98    35    34    1
    99   159   160    1
   100    11     9    1
   101    10     9    1
   102   153   152    1
   103   141   142    1
   104   195   193    1
   105     9     8    2
   106   188   189    1
   107   203   201    1
   108   147   145    1
   109   142   145    1
   110   142   143    1
   111   193   194    1
   112   193   192    1
   113   150   149    1
   114   150   151    2
   115   202   201    1
   116   149   152    1
   117   149   148    1
   118    36    37    1
   119   201   200    1
   120   200   197    1
   121   145   146    1
   122    39    38    2
   123   143   144    2
   124   189   192    1
   125   189   190    1
   126     8     7    1
   127    42    40    1
   128    72    70   ar
   129    72    73   ar
   130   196   197    1
   131    70    68   ar
   132    37    40    1
   133    37    38    1
   134    66    65    2
   135   197   198    1
   136    40    41    1
   137     7     6    1
   138    50    48    1
   139   190   191    2
   140    73    71   ar
   141    65    64    1
   142    68    67    1
   143    68    69   ar
   144    67    64    1
   145    29    28    1
   146   198   199    2
   147   198   204   am
   148    48    47    1
   149     6     5    1
   150    60    58   ar
   151    60    61   ar
   152    64    63    1
   153    62    61    1
   154    43    44    1
   155    47    44    1
   156    47    49    1
   157    71    69   ar
   158   204   205    1
   159     5     2    1
   160    58    56   ar
   161    61    59   ar
   162    46    45    2
   163    26    25    1
   164    26    27    2
   165    25    28    1
   166    25    24    1
   167    44    45    1
   168    59    57   ar
   169    56    57   ar
   170    56    55    1
   171     2     3    1
   172     2     1    1
   173   205   206    1
   174   205   208    1
   175   209   211    1
   176   209   208    1
   177   218   216    1
   178     4     3    2
   179    55    52    1
   180   206   207    2
   181    23    22    1
   182   208   210    1
   183   217   216    1
   184    51    52    1
   185   216   213    1
   186    22    21   ar
   187    22    20   ar
   188    52    53    1
   189    21    19   ar
   190    54    53    2
   191    20    18   ar
   192    19    17   ar
   193   213   212    1
   194   213   214    1
   195    18    17   ar
   196    17    16    1
   197   215   214    2
   198    16    13    1
   199    12    13    1
   200    13    14    1
   201    15    14    2
