@<TRIPOS>MOLECULE
tmp/3zl1B00.pdb
 123 117 0 0 0
SMALL
GASTEIGER

@<TRIPOS>ATOM
      1  N          5.0120   -9.0370   -5.8690 N.3     1  PHE1       -0.1241
      2  CA         4.9590   -9.1130   -4.4050 C.3     1  PHE1        0.1605
      3  C          3.5370   -9.3680   -3.9460 C.2     1  PHE1        0.2264
      4  O          2.6080   -8.7290   -4.4270 O.2     1  PHE1       -0.2867
      5  CB         5.4540   -7.7930   -3.8160 C.3     1  PHE1        0.0534
      6  CG         5.3740   -7.7240   -2.3140 C.ar    1  PHE1       -0.0203
      7  CD1        4.2120   -7.3150   -1.6880 C.ar    1  PHE1       -0.0042
      8  CD2        6.4680   -8.0520   -1.5360 C.ar    1  PHE1       -0.0042
      9  CE1        4.1350   -7.2350   -0.2960 C.ar    1  PHE1       -0.0003
     10  CE2        6.3940   -7.9780   -0.1520 C.ar    1  PHE1       -0.0003
     11  CZ         5.2230   -7.5640    0.4600 C.ar    1  PHE1       -0.0000
     12  N         -0.8920   -9.3010   -5.6550 N.3    13  ILE13      -0.1231
     13  CA        -0.1680   -8.2020   -6.2980 C.3    13  ILE13       0.1692
     14  C         -1.0940   -6.9950   -6.3950 C.2    13  ILE13       0.2592
     15  O         -2.2400   -7.1280   -6.8380 O.2    13  ILE13      -0.2718
     16  CB         0.3130   -8.6350   -7.7150 C.3    13  ILE13       0.0266
     17  CG1        1.4550   -9.6530   -7.6030 C.3    13  ILE13       0.0019
     18  CG2        0.7350   -7.4210   -8.5670 C.3    13  ILE13       0.0020
     19  CD1        1.8030  -10.3480   -8.9430 C.3    13  ILE13       0.0001
     20  N         -0.6270   -5.8400   -5.9290 N.am   14  GLY14      -0.1957
     21  CA        -1.4240   -4.6230   -5.9730 C.3    14  GLY14       0.1869
     22  C         -2.0230   -4.2100   -4.6420 C.2    14  GLY14       0.2309
     23  O         -2.5660   -3.1140   -4.5110 O.2    14  GLY14      -0.2863
     24  N          8.6680  -11.8770   -2.9010 N.3    46  ASN46      -0.1225
     25  CA         8.9430  -11.0950   -4.1020 C.3    46  ASN46       0.1785
     26  C          8.6310  -11.9960   -5.3160 C.2    46  ASN46       0.2597
     27  O          9.0450  -13.1540   -5.3350 O.2    46  ASN46      -0.2718
     28  CB        10.4360  -10.7000   -4.0570 C.3    46  ASN46       0.1169
     29  CG        10.8860   -9.8280   -5.2290 C.2    46  ASN46       0.2627
     30  OD1       10.4120   -9.9670   -6.3610 O.2    46  ASN46      -0.2716
     31  ND2       11.8480   -8.9390   -4.9610 N.am   46  ASN46      -0.0877
     32  N          7.8940  -11.4800   -6.3030 N.am   47  ASP47      -0.1960
     33  CA         7.4990  -12.2940   -7.4740 C.3    47  ASP47       0.1840
     34  C          8.4800  -12.2320   -8.6370 C.2    47  ASP47       0.2622
     35  O          8.3400  -12.9650   -9.6150 O.2    47  ASP47      -0.2715
     36  CB         6.0940  -11.9140   -7.9660 C.3    47  ASP47       0.1450
     37  CG         4.9850  -12.5220   -7.1190 C.2    47  ASP47       0.3671
     38  OD1        4.8680  -13.7720   -7.0780 O.co2  47  ASP47      -0.2456
     39  OD2        4.2160  -11.7490   -6.5040 O.co2  47  ASP47      -0.2456
     40  N          9.4680  -11.3500   -8.5400 N.am   48  TYR48      -0.1974
     41  CA        10.4120  -11.1440   -9.6300 C.3    48  TYR48       0.1639
     42  C         11.7890  -10.7390   -9.0770 C.2    48  TYR48       0.2290
     43  O         12.3330   -9.7190   -9.4960 O.2    48  TYR48      -0.2864
     44  CB         9.8430  -10.0460  -10.5390 C.3    48  TYR48       0.0560
     45  CG        10.4450   -9.8630  -11.9210 C.ar   48  TYR48      -0.0198
     46  CD1       11.1620  -10.8690  -12.5450 C.ar   48  TYR48      -0.0009
     47  CD2       10.2570   -8.6700  -12.6100 C.ar   48  TYR48      -0.0009
     48  CE1       11.6910  -10.6840  -13.8250 C.ar   48  TYR48       0.0417
     49  CE2       10.7760   -8.4760  -13.8830 C.ar   48  TYR48       0.0417
     50  CZ        11.4930   -9.4850  -14.4810 C.ar   48  TYR48       0.1957
     51  OH        12.0000   -9.2710  -15.7480 O.3    48  TYR48      -0.2866
     52  N         13.7940   -7.2840   -9.7150 N.3    52  ILE52      -0.1245
     53  CA        13.2550   -6.2830   -8.7820 C.3    52  ILE52       0.1561
     54  C         13.5540   -6.5790   -7.3050 C.2    52  ILE52       0.2260
     55  O         13.5050   -7.7290   -6.8630 O.2    52  ILE52      -0.2867
     56  CB        11.7170   -6.1330   -8.9740 C.3    52  ILE52       0.0252
     57  CG1       11.3840   -5.8330  -10.4360 C.3    52  ILE52       0.0019
     58  CG2       11.1540   -5.0470   -8.0740 C.3    52  ILE52       0.0019
     59  CD1        9.9000   -5.7540  -10.7170 C.3    52  ILE52       0.0001
     60  N         12.1150   -5.6630   -3.5760 N.3    54  ASP54      -0.1239
     61  CA        10.9420   -5.0950   -2.9060 C.3    54  ASP54       0.1674
     62  C         11.2920   -4.5140   -1.5460 C.2    54  ASP54       0.2266
     63  O         12.1710   -5.0260   -0.8610 O.2    54  ASP54      -0.2867
     64  CB         9.8490   -6.1530   -2.7240 C.3    54  ASP54       0.1410
     65  CG         9.1950   -6.5460   -4.0400 C.2    54  ASP54       0.3668
     66  OD1        9.0370   -5.6620   -4.9140 O.co2  54  ASP54      -0.2456
     67  OD2        8.8500   -7.7430   -4.1980 O.co2  54  ASP54      -0.2456
     68  N          4.2710   -1.5150    0.4540 N.3   133  GLN133     -0.1245
     69  CA         5.2620   -2.1630   -0.4000 C.3   133  GLN133      0.1566
     70  C          5.6190   -1.3180   -1.5990 C.2   133  GLN133      0.2260
     71  O          4.7470   -0.8670   -2.3400 O.2   133  GLN133     -0.2867
     72  CB         4.7720   -3.5460   -0.8520 C.3   133  GLN133      0.0367
     73  CG         5.7020   -4.2540   -1.8430 C.3   133  GLN133      0.0905
     74  CD         5.1830   -4.2190   -3.2740 C.2   133  GLN133      0.2608
     75  OE1        3.9780   -4.3470   -3.5220 O.2   133  GLN133     -0.2717
     76  NE2        6.0940   -4.0530   -4.2320 N.am  133  GLN133     -0.0878
     77  N          9.2800   -0.7050   -4.4660 N.3   135  ASN135     -0.1240
     78  CA        10.4040   -1.4350   -5.0390 C.3   135  ASN135      0.1653
     79  C         11.4790   -0.4850   -5.5720 C.2   135  ASN135      0.2266
     80  O         11.3660    0.7300   -5.4130 O.2   135  ASN135     -0.2867
     81  CB         9.9250   -2.4380   -6.1040 C.3   135  ASN135      0.1155
     82  CG         9.2190   -1.7700   -7.2640 C.2   135  ASN135      0.2627
     83  OD1        9.6740   -0.7520   -7.7820 O.2   135  ASN135     -0.2716
     84  ND2        8.0800   -2.3280   -7.6680 N.am  135  ASN135     -0.0877
     85  N         12.3350   -0.4590   -8.8650 N.3   137  TYR137     -0.1227
     86  CA        12.1990   -0.7050  -10.3030 C.3   137  TYR137      0.1736
     87  C         11.2040    0.2360  -10.9820 C.2   137  TYR137      0.2595
     88  O         11.4640    0.7380  -12.0850 O.2   137  TYR137     -0.2718
     89  CB        11.7690   -2.1690  -10.4970 C.3   137  TYR137      0.0548
     90  CG        11.4210   -2.5920  -11.9130 C.ar  137  TYR137     -0.0200
     91  CD1       12.4000   -3.0230  -12.7860 C.ar  137  TYR137     -0.0009
     92  CD2       10.1020   -2.5990  -12.3530 C.ar  137  TYR137     -0.0009
     93  CE1       12.0860   -3.4210  -14.0740 C.ar  137  TYR137      0.0417
     94  CE2        9.7780   -2.9980  -13.6400 C.ar  137  TYR137      0.0417
     95  CZ        10.7710   -3.4090  -14.4940 C.ar  137  TYR137      0.1957
     96  OH        10.4490   -3.8090  -15.7720 O.3   137  TYR137     -0.2866
     97  N         10.0730    0.4690  -10.3230 N.am  138  ASN138     -0.1974
     98  CA         9.0280    1.3450  -10.8340 C.3   138  ASN138      0.1688
     99  C          8.3150    2.1190   -9.7300 C.2   138  ASN138      0.2292
    100  O          8.8090    2.2130   -8.6070 O.2   138  ASN138     -0.2864
    101  CB         8.0300    0.5950  -11.7250 C.3   138  ASN138      0.1181
    102  CG         7.3250   -0.5400  -11.0060 C.2   138  ASN138      0.2629
    103  OD1        7.0940   -0.4960   -9.7920 O.2   138  ASN138     -0.2716
    104  ND2        6.9610   -1.5640  -11.7630 N.am  138  ASN138     -0.0877
    105  N          5.4280    1.4740   -8.2510 N.3   140  ASP140     -0.1239
    106  CA         4.4780    0.7110   -7.4470 C.3   140  ASP140      0.1674
    107  C          4.5520    1.1580   -5.9820 C.2   140  ASP140      0.2266
    108  O          5.6280    1.2570   -5.3990 O.2   140  ASP140     -0.2867
    109  CB         4.7160   -0.8040   -7.5810 C.3   140  ASP140      0.1410
    110  CG         4.2450   -1.3660   -8.9200 C.2   140  ASP140      0.3668
    111  OD1        3.7250   -0.6000   -9.7720 O.co2 140  ASP140     -0.2456
    112  OD2        4.3740   -2.5970   -9.1230 O.co2 140  ASP140     -0.2456
    113  N          2.0130    0.0860   -2.9230 N.3   142  PHE142     -0.1241
    114  CA         0.8030   -0.6680   -2.6090 C.3   142  PHE142      0.1605
    115  C          0.6300   -0.8610   -1.1050 C.2   142  PHE142      0.2264
    116  O          1.6110   -0.9770   -0.3660 O.2   142  PHE142     -0.2867
    117  CB         0.8440   -2.0330   -3.3000 C.3   142  PHE142      0.0534
    118  CG         0.8750   -1.9660   -4.8160 C.ar  142  PHE142     -0.0203
    119  CD1       -0.0430   -1.1910   -5.5070 C.ar  142  PHE142     -0.0042
    120  CD2        1.7930   -2.7030   -5.5410 C.ar  142  PHE142     -0.0042
    121  CE1       -0.0290   -1.1440   -6.9020 C.ar  142  PHE142     -0.0003
    122  CE2        1.8060   -2.6540   -6.9380 C.ar  142  PHE142     -0.0003
    123  CZ         0.8940   -1.8760   -7.6070 C.ar  142  PHE142     -0.0000
@<TRIPOS>BOND
     1    96    95    1
     2    51    50    1
     3    95    93   ar
     4    95    94   ar
     5    50    49   ar
     6    50    48   ar
     7    93    91   ar
     8    49    47   ar
     9    48    46   ar
    10    94    92   ar
    11    91    90   ar
    12    47    45   ar
    13    46    45   ar
    14    92    90   ar
    15    88    87    2
    16    45    44    1
    17    90    89    1
    18   104   102   am
    19   101   102    1
    20   101    98    1
    21   102   103    2
    22    87    97   am
    23    87    86    1
    24    98    97    1
    25    98    99    1
    26    59    57    1
    27    44    41    1
    28    89    86    1
    29    57    56    1
    30    86    85    1
    31   111   110   ar
    32    99   100    2
    33    52    53    1
    34    41    42    1
    35    41    40    1
    36    35    34    2
    37    43    42    2
    38   112   110   ar
    39    56    53    1
    40    56    58    1
    41    19    17    1
    42   110   109    1
    43    53    54    1
    44    34    40   am
    45    34    33    1
    46    18    16    1
    47   105   106    1
    48    36    33    1
    49    36    37    1
    50    83    82    2
    51    16    17    1
    52    16    13    1
    53    84    82   am
    54   123   122   ar
    55   123   121   ar
    56   109   106    1
    57    33    32    1
    58   106   107    1
    59    54    55    2
    60    82    81    1
    61    37    38   ar
    62    37    39   ar
    63   122   120   ar
    64   121   119   ar
    65    15    14    2
    66    14    13    1
    67    14    20   am
    68    30    29    2
    69    32    26   am
    70    13    12    1
    71    81    78    1
    72   107   108    2
    73    21    20    1
    74    21    22    1
    75     1     2    1
    76    79    80    2
    77    79    78    1
    78   120   118   ar
    79   119   118   ar
    80    27    26    2
    81    26    25    1
    82    29    31   am
    83    29    28    1
    84    78    77    1
    85    66    65   ar
    86   118   117    1
    87    22    23    2
    88     4     3    2
    89     2     3    1
    90     2     5    1
    91    76    74   am
    92    67    65   ar
    93    25    28    1
    94    25    24    1
    95    65    64    1
    96     5     6    1
    97    60    61    1
    98    75    74    2
    99   117   114    1
   100    74    73    1
   101   113   114    1
   102    61    64    1
   103    61    62    1
   104   114   115    1
   105    71    70    2
   106     6     7   ar
   107     6     8   ar
   108    73    72    1
   109     7     9   ar
   110    70    69    1
   111    62    63    2
   112     8    10   ar
   113   115   116    2
   114    72    69    1
   115    69    68    1
   116     9    11   ar
   117    10    11   ar
