@<TRIPOS>MOLECULE
tmp/3zl4A00.pdb
 82 79 0 0 0
SMALL
GASTEIGER

@<TRIPOS>ATOM
      1  N         33.1120   12.7700   30.5160 N.3    34  TYR34      -0.1241
      2  CA        31.8240   12.3560   31.0450 C.3    34  TYR34       0.1605
      3  C         31.7040   12.7030   32.5250 C.2    34  TYR34       0.2264
      4  O         32.6370   12.4760   33.2880 O.2    34  TYR34      -0.2867
      5  CB        31.6370   10.8420   30.8340 C.3    34  TYR34       0.0534
      6  CG        30.3820   10.2860   31.4850 C.ar   34  TYR34      -0.0201
      7  CD1       30.3680    9.9420   32.8390 C.ar   34  TYR34      -0.0009
      8  CD2       29.2120   10.1150   30.7530 C.ar   34  TYR34      -0.0009
      9  CE1       29.2290    9.4500   33.4400 C.ar   34  TYR34       0.0417
     10  CE2       28.0790    9.6140   31.3390 C.ar   34  TYR34       0.0417
     11  CZ        28.0860    9.2970   32.6990 C.ar   34  TYR34       0.1957
     12  OH        26.9550    8.8110   33.3090 O.3    34  TYR34      -0.2866
     13  N         28.5350   12.2910   35.6840 N.3    36  GLY36      -0.1225
     14  CA        27.2350   11.6740   35.8740 C.3    36  GLY36       0.1811
     15  C         26.8510   11.4490   37.3250 C.2    36  GLY36       0.2280
     16  O         27.6550   11.6490   38.2210 O.2    36  GLY36      -0.2866
     17  N         24.8660    8.6280   39.9780 N.3    38  ILE38      -0.1245
     18  CA        24.3690    7.2850   40.2120 C.3    38  ILE38       0.1561
     19  C         23.7730    7.3120   41.6220 C.2    38  ILE38       0.2260
     20  O         24.2560    8.0560   42.4650 O.2    38  ILE38      -0.2867
     21  CB        25.5340    6.2620   40.1900 C.3    38  ILE38       0.0252
     22  CG1       26.3720    6.4050   38.9180 C.3    38  ILE38       0.0019
     23  CG2       25.0180    4.8350   40.3350 C.3    38  ILE38       0.0019
     24  CD1       25.5850    6.1400   37.6600 C.3    38  ILE38       0.0001
     25  N         21.5230    4.3430   37.4660 N.3    48  TRP48      -0.1241
     26  CA        21.9550    5.5280   36.7400 C.3    48  TRP48       0.1605
     27  C         20.8760    6.6060   36.7960 C.2    48  TRP48       0.2264
     28  O         19.6890    6.3250   36.6390 O.2    48  TRP48      -0.2867
     29  CB        22.2860    5.1630   35.2850 C.3    48  TRP48       0.0550
     30  CG        22.5030    6.3440   34.3810 C.ar   48  TRP48       0.0003
     31  CD1       23.4770    7.2920   34.4880 C.ar   48  TRP48       0.0946
     32  CD2       21.7430    6.6750   33.2090 C.ar   48  TRP48       0.0152
     33  NE1       23.3630    8.2030   33.4530 N.ar   48  TRP48      -0.2442
     34  CE2       22.3040    7.8460   32.6610 C.ar   48  TRP48       0.0810
     35  CE3       20.6350    6.1010   32.5780 C.ar   48  TRP48       0.0012
     36  CZ2       21.7930    8.4540   31.5080 C.ar   48  TRP48       0.0191
     37  CZ3       20.1300    6.7060   31.4330 C.ar   48  TRP48       0.0001
     38  CH2       20.7110    7.8670   30.9120 C.ar   48  TRP48       0.0015
     39  N         30.1100   10.8680   39.6030 N.3    97  ALA97      -0.1231
     40  CA        31.1790   10.0910   39.0070 C.3    97  ALA97       0.1694
     41  C         31.5990   10.7280   37.6710 C.2    97  ALA97       0.2593
     42  O         30.8840   11.5740   37.1310 O.2    97  ALA97      -0.2718
     43  CB        30.7370    8.6140   38.8210 C.3    97  ALA97       0.0304
     44  N         32.7620   10.3450   37.1570 N.am   98  GLY98      -0.1942
     45  CA        33.2320   10.9070   35.8990 C.3    98  GLY98       0.2014
     46  C         34.2710   10.0550   35.1890 C.2    98  GLY98       0.2638
     47  O         34.9530    9.2570   35.8190 O.2    98  GLY98      -0.2714
     48  N         34.3780   10.2320   33.8730 N.am   99  LEU99      -0.1977
     49  CA        35.4210    9.6010   33.0650 C.3    99  LEU99       0.1596
     50  C         36.1880   10.7130   32.3970 C.2    99  LEU99       0.2287
     51  O         35.5970   11.5500   31.7290 O.2    99  LEU99      -0.2864
     52  CB        34.8110    8.6940   31.9830 C.3    99  LEU99       0.0297
     53  CG        34.1170    7.4620   32.5610 C.3    99  LEU99       0.0022
     54  CD1       33.1510    6.8480   31.5670 C.3    99  LEU99       0.0001
     55  CD2       35.1470    6.4320   33.0420 C.3    99  LEU99       0.0001
     56  N         37.4040    3.1190   30.7730 N.3   105  ASN105     -0.1240
     57  CA        36.2880    3.2000   31.7120 C.3   105  ASN105      0.1653
     58  C         36.6950    3.1620   33.1930 C.2   105  ASN105      0.2266
     59  O         35.9350    2.7000   34.0450 O.2   105  ASN105     -0.2867
     60  CB        35.1700    2.2010   31.3750 C.3   105  ASN105      0.1155
     61  CG        35.5260    0.7580   31.6890 C.2   105  ASN105      0.2627
     62  OD1       36.6920    0.4080   31.8680 O.2   105  ASN105     -0.2716
     63  ND2       34.5080   -0.0970   31.7360 N.am  105  ASN105     -0.0877
     64  N         36.4470    4.9170   35.9570 N.3   107  ALA107     -0.1245
     65  CA        35.6900    6.0650   36.4430 C.3   107  ALA107      0.1562
     66  C         36.1980    6.5470   37.7950 C.2   107  ALA107      0.2260
     67  O         36.6650    5.7560   38.6070 O.2   107  ALA107     -0.2867
     68  CB        34.2060    5.7180   36.5410 C.3   107  ALA107      0.0290
     69  N         34.9280    8.3090   41.3080 N.3   109  TRP109     -0.1241
     70  CA        33.6870    8.3150   42.0610 C.3   109  TRP109      0.1605
     71  C         33.8740    9.1920   43.2970 C.2   109  TRP109      0.2264
     72  O         34.9600    9.2250   43.8850 O.2   109  TRP109     -0.2867
     73  CB        33.3690    6.9030   42.5560 C.3   109  TRP109      0.0550
     74  CG        32.7840    5.9970   41.5480 C.ar  109  TRP109      0.0003
     75  CD1       33.3880    5.5320   40.3930 C.ar  109  TRP109      0.0946
     76  CD2       31.4810    5.4120   41.5780 C.ar  109  TRP109      0.0152
     77  NE1       32.5320    4.7110   39.7230 N.ar  109  TRP109     -0.2442
     78  CE2       31.3550    4.6170   40.4220 C.ar  109  TRP109      0.0810
     79  CE3       30.4030    5.4900   42.4650 C.ar  109  TRP109      0.0012
     80  CZ2       30.1940    3.9040   40.1310 C.ar  109  TRP109      0.0191
     81  CZ3       29.2550    4.7890   42.1800 C.ar  109  TRP109      0.0001
     82  CH2       29.1540    4.0010   41.0170 C.ar  109  TRP109      0.0015
@<TRIPOS>BOND
     1     1     2    1
     2     8    10   ar
     3     8     6   ar
     4    56    57    1
     5     5     2    1
     6     5     6    1
     7    38    37   ar
     8    38    36   ar
     9     2     3    1
    10    10    11   ar
    11    60    61    1
    12    60    57    1
    13    37    35   ar
    14     6     7   ar
    15    36    34   ar
    16    54    53    1
    17    61    63   am
    18    61    62    2
    19    57    58    1
    20    51    50    2
    21    52    53    1
    22    52    49    1
    23    50    49    1
    24     3     4    2
    25    53    55    1
    26    35    32   ar
    27    34    32   ar
    28    34    33   ar
    29    11    12    1
    30    11     9   ar
    31     7     9   ar
    32    49    48    1
    33    58    59    2
    34    32    30   ar
    35    33    31   ar
    36    48    46   am
    37    30    31   ar
    38    30    29    1
    39    46    47    2
    40    46    45    1
    41    29    26    1
    42    13    14    1
    43    14    15    1
    44    45    44    1
    45    64    65    1
    46    65    68    1
    47    65    66    1
    48    28    27    2
    49    26    27    1
    50    26    25    1
    51    42    41    2
    52    44    41   am
    53    15    16    2
    54    24    22    1
    55    41    40    1
    56    66    67    2
    57    43    40    1
    58    22    21    1
    59    40    39    1
    60    77    75   ar
    61    77    78   ar
    62    17    18    1
    63    80    78   ar
    64    80    82   ar
    65    21    18    1
    66    21    23    1
    67    18    19    1
    68    75    74   ar
    69    78    76   ar
    70    82    81   ar
    71    69    70    1
    72    74    76   ar
    73    74    73    1
    74    76    79   ar
    75    19    20    2
    76    70    73    1
    77    70    71    1
    78    81    79   ar
    79    71    72    2
