@<TRIPOS>MOLECULE
tmp/3zl5F00.pdb
 77 70 0 0 0
SMALL
GASTEIGER

@<TRIPOS>ATOM
      1  N         82.7350    6.6890    7.0460 N.3   126  LEU126     -0.1245
      2  CA        83.3630    7.9610    6.7720 C.3   126  LEU126      0.1561
      3  C         82.3700    8.7650    5.9560 C.2   126  LEU126      0.2260
      4  O         81.7780    8.2480    5.0110 O.2   126  LEU126     -0.2867
      5  CB        84.6640    7.7530    6.0040 C.3   126  LEU126      0.0270
      6  CG        85.6210    8.9410    5.9870 C.3   126  LEU126      0.0019
      7  CD1       87.0490    8.4380    6.0250 C.3   126  LEU126      0.0001
      8  CD2       85.3880    9.7990    4.7550 C.3   126  LEU126      0.0001
      9  N         79.8990   12.4100    0.3060 N.3   137  GLN137     -0.1245
     10  CA        80.4220   11.0540    0.1480 C.3   137  GLN137      0.1566
     11  C         80.0830   10.1440    1.3270 C.2   137  GLN137      0.2260
     12  O         80.0760   10.5810    2.4800 O.2   137  GLN137     -0.2867
     13  CB        81.9370   11.0920   -0.0800 C.3   137  GLN137      0.0367
     14  CG        82.4850    9.9180   -0.8740 C.3   137  GLN137      0.0905
     15  CD        82.8150    8.7260   -0.0030 C.2   137  GLN137      0.2608
     16  OE1       83.2330    8.8800    1.1440 O.2   137  GLN137     -0.2717
     17  NE2       82.6290    7.5270   -0.5430 N.am  137  GLN137     -0.0878
     18  N         81.1470    6.3560    2.9730 N.3   139  THR139     -0.1218
     19  CA        81.9940    5.1710    3.0000 C.3   139  THR139      0.1862
     20  C         81.7810    4.3730    4.2780 C.2   139  THR139      0.2287
     21  O         82.0030    4.8820    5.3740 O.2   139  THR139     -0.2866
     22  CB        83.4810    5.5430    2.9150 C.3   139  THR139      0.1770
     23  OG1       83.7290    6.2820    1.7140 O.3   139  THR139     -0.2211
     24  CG2       84.3320    4.2900    2.9160 C.3   139  THR139      0.0375
     25  N         82.8860    0.6820    6.0040 N.3   141  ASN141     -0.1240
     26  CA        83.7390   -0.4990    5.9290 C.3   141  ASN141      0.1653
     27  C         83.3790   -1.5280    6.9920 C.2   141  ASN141      0.2266
     28  O         82.9440   -1.1710    8.0860 O.2   141  ASN141     -0.2867
     29  CB        85.2140   -0.1070    6.0900 C.3   141  ASN141      0.1155
     30  CG        85.7880    0.5570    4.8510 C.2   141  ASN141      0.2627
     31  OD1       86.8520    0.1750    4.3640 O.2   141  ASN141     -0.2716
     32  ND2       85.0870    1.5540    4.3380 N.am  141  ASN141     -0.0877
     33  N         90.3990   -0.9420    7.6980 N.3   146  GLY146     -0.1210
     34  CA        90.4970    0.4860    7.9420 C.3   146  GLY146      0.1956
     35  C         90.3500    1.3580    6.7070 C.2   146  GLY146      0.2612
     36  O         89.7820    0.9370    5.7010 O.2   146  GLY146     -0.2717
     37  N         90.8730    2.5790    6.7850 N.am  147  ARG147     -0.1965
     38  CA        90.6680    3.5760    5.7360 C.3   147  ARG147      0.1729
     39  C         91.9430    4.3090    5.3220 C.2   147  ARG147      0.2616
     40  O         92.9590    4.2480    6.0110 O.2   147  ARG147     -0.2715
     41  CB        89.6010    4.5840    6.1770 C.3   147  ARG147      0.0348
     42  CG        88.1740    4.0800    6.0600 C.3   147  ARG147      0.0492
     43  CD        87.2700    4.7400    7.0870 C.3   147  ARG147      0.2205
     44  NE        87.6730    4.3960    8.4480 N.pl3 147  ARG147     -0.0865
     45  CZ        86.9510    4.6440    9.5350 C.cat 147  ARG147      0.5346
     46  NH1       85.7710    5.2360    9.4340 N.pl3 147  ARG147      0.1354
     47  NH2       87.4090    4.2870   10.7270 N.pl3 147  ARG147      0.1354
     48  N         91.8650    5.0040    4.1910 N.am  148  SER148     -0.1950
     49  CA        92.9980    5.7360    3.6380 C.3   148  SER148      0.1924
     50  C         92.8140    7.2460    3.7520 C.2   148  SER148      0.2314
     51  O         91.7520    7.7820    3.4330 O.2   148  SER148     -0.2863
     52  CB        93.2130    5.3520    2.1710 C.3   148  SER148      0.2116
     53  OG        93.8600    6.3880    1.4500 O.3   148  SER148     -0.2180
     54  N         92.9840    8.5940   -0.0260 N.3   151  GLU151     -0.1231
     55  CA        91.7170    8.5400   -0.7450 C.3   151  GLU151      0.1699
     56  C         90.7320    9.5940   -0.2490 C.2   151  GLU151      0.2592
     57  O         90.0310   10.2110   -1.0450 O.2   151  GLU151     -0.2718
     58  CB        91.0960    7.1420   -0.6550 C.3   151  GLU151      0.0402
     59  CG        89.7010    7.0240   -1.2650 C.3   151  GLU151      0.1161
     60  CD        89.7020    7.0230   -2.7840 C.2   151  GLU151      0.3649
     61  OE1       90.7790    7.2150   -3.3900 O.co2 151  GLU151     -0.2457
     62  OE2       88.6200    6.8210   -3.3780 O.co2 151  GLU151     -0.2457
     63  N         90.6870    9.7960    1.0640 N.am  152  THR152     -0.1953
     64  CA        89.8420   10.8290    1.6550 C.3   152  THR152      0.1897
     65  C         90.1980   12.1850    1.0480 C.2   152  THR152      0.2313
     66  O         89.3230   12.9380    0.5960 O.2   152  THR152     -0.2863
     67  CB        90.0240   10.8870    3.1820 C.3   152  THR152      0.1794
     68  OG1       89.9670    9.5610    3.7210 O.3   152  THR152     -0.2208
     69  CG2       88.9440   11.7410    3.8210 C.3   152  THR152      0.0378
     70  N         89.0300   12.4060   -2.6400 N.3   155  LEU155     -0.1245
     71  CA        87.6060   12.7030   -2.6380 C.3   155  LEU155      0.1561
     72  C         87.3820   14.1860   -2.4040 C.2   155  LEU155      0.2260
     73  O         86.7120   14.8550   -3.1920 O.2   155  LEU155     -0.2867
     74  CB        86.9120   11.9090   -1.5280 C.3   155  LEU155      0.0270
     75  CG        86.4260   10.4750   -1.7460 C.3   155  LEU155      0.0019
     76  CD1       87.3820    9.6820   -2.5930 C.3   155  LEU155      0.0001
     77  CD2       86.2610    9.7950   -0.4060 C.3   155  LEU155      0.0001
@<TRIPOS>BOND
     1    61    60   ar
     2    62    60   ar
     3    73    72    2
     4    60    59    1
     5    70    71    1
     6    71    72    1
     7    71    74    1
     8    76    75    1
     9    75    74    1
    10    75    77    1
    11    59    58    1
    12    57    56    2
    13    14    13    1
    14    14    15    1
    15    55    58    1
    16    55    56    1
    17    55    54    1
    18    17    15   am
    19    56    63   am
    20    13    10    1
    21    15    16    2
    22    10     9    1
    23    10    11    1
    24    66    65    2
    25    65    64    1
    26    63    64    1
    27    11    12    2
    28    53    52    1
    29    64    67    1
    30    23    22    1
    31    52    49    1
    32    22    24    1
    33    22    19    1
    34    18    19    1
    35    19    20    1
    36    67    68    1
    37    67    69    1
    38    51    50    2
    39    49    50    1
    40    49    48    1
    41    48    39   am
    42    20    21    2
    43    32    30   am
    44    31    30    2
    45     8     6    1
    46    30    29    1
    47     4     3    2
    48    39    38    1
    49    39    40    2
    50    36    35    2
    51    38    41    1
    52    38    37    1
    53    26    25    1
    54    26    29    1
    55    26    27    1
    56     3     2    1
    57     6     5    1
    58     6     7    1
    59     5     2    1
    60    42    41    1
    61    42    43    1
    62    35    37   am
    63    35    34    1
    64     2     1    1
    65    27    28    2
    66    43    44    1
    67    33    34    1
    68    44    45    2
    69    46    45    1
    70    45    47    1
