@<TRIPOS>MOLECULE
tmp/3zl6A00.pdb
 129 122 0 0 0
SMALL
GASTEIGER

@<TRIPOS>ATOM
      1  N          1.1230   21.6470  -12.0360 N.3    45  LYS45      -0.1231
      2  CA        -0.0610   21.9080  -11.2570 C.3    45  LYS45       0.1693
      3  C         -0.4300   23.4050  -11.0730 C.2    45  LYS45       0.2592
      4  O         -1.5420   23.7180  -10.6690 O.2    45  LYS45      -0.2718
      5  CB         0.1170   21.2830   -9.8710 C.3    45  LYS45       0.0285
      6  CG         0.2680   19.7770   -9.6910 C.3    45  LYS45       0.0035
      7  CD         1.1210   19.6290   -8.3620 C.3    45  LYS45       0.0206
      8  CE         0.6830   18.6350   -7.2610 C.3    45  LYS45       0.1093
      9  NZ         1.2660   17.2650   -7.3760 N.3    45  LYS45      -0.1314
     10  N          0.4730   24.3220  -11.4240 N.am   46  ARG46      -0.1966
     11  CA         0.1690   25.7470  -11.3970 C.3    46  ARG46       0.1729
     12  C         -0.3090   26.2600  -10.0150 C.2    46  ARG46       0.2616
     13  O         -1.1860   27.0920   -9.9120 O.2    46  ARG46      -0.2715
     14  CB        -0.8600   26.1130  -12.4710 C.3    46  ARG46       0.0348
     15  CG        -0.6170   25.5430  -13.8460 C.3    46  ARG46       0.0492
     16  CD         0.7540   25.9090  -14.4450 C.3    46  ARG46       0.2205
     17  NE         0.6940   25.5840  -15.8740 N.pl3  46  ARG46      -0.0865
     18  CZ         1.7350   25.2090  -16.6020 C.cat  46  ARG46       0.5346
     19  NH1        2.9430   25.0820  -16.0640 N.pl3  46  ARG46       0.1354
     20  NH2        1.5740   24.9130  -17.8800 N.pl3  46  ARG46       0.1354
     21  N          0.4090   25.8540   -8.9840 N.am   47  VAL47      -0.1963
     22  CA         0.1360   26.3350   -7.6130 C.3    47  VAL47       0.1727
     23  C          0.3270   27.8350   -7.5030 C.2    47  VAL47       0.2616
     24  O         -0.4420   28.5160   -6.8260 O.2    47  VAL47      -0.2715
     25  CB         1.0760   25.6680   -6.6220 C.3    47  VAL47       0.0290
     26  CG1        0.7810   26.1730   -5.2060 C.3    47  VAL47       0.0023
     27  CG2        0.8580   24.1850   -6.6590 C.3    47  VAL47       0.0023
     28  N          1.3250   28.3640   -8.2100 N.am   48  ARG48      -0.1977
     29  CA         1.6120   29.8130   -8.1590 C.3    48  ARG48       0.1597
     30  C          0.5420   30.6360   -8.8010 C.2    48  ARG48       0.2287
     31  O          0.0230   31.5730   -8.1940 O.2    48  ARG48      -0.2864
     32  CB         3.0260   30.0730   -8.6730 C.3    48  ARG48       0.0334
     33  CG         4.0390   29.5370   -7.6140 C.3    48  ARG48       0.0492
     34  CD         5.4610   29.3320   -8.2030 C.3    48  ARG48       0.2205
     35  NE         6.3030   28.6300   -7.2660 N.pl3  48  ARG48      -0.0865
     36  CZ         6.2850   27.3150   -7.0850 C.cat  48  ARG48       0.5346
     37  NH1        5.4820   26.5580   -7.8220 N.pl3  48  ARG48       0.1354
     38  NH2        7.0810   26.7570   -6.1940 N.pl3  48  ARG48       0.1354
     39  N         -2.3820   30.5160   -6.3600 N.3    51  LEU51      -0.1245
     40  CA        -2.1860   31.4990   -5.3170 C.3    51  LEU51       0.1561
     41  C         -2.5510   32.9310   -5.7860 C.2    51  LEU51       0.2260
     42  O         -3.1310   33.6930   -5.0240 O.2    51  LEU51      -0.2867
     43  CB        -0.7800   31.4230   -4.7700 C.3    51  LEU51       0.0270
     44  CG        -0.5110   30.1770   -3.9070 C.3    51  LEU51       0.0019
     45  CD1        0.9870   29.9060   -3.7610 C.3    51  LEU51       0.0001
     46  CD2       -1.1220   30.2720   -2.5500 C.3    51  LEU51       0.0001
     47  N          8.7270   30.6940  -12.4090 N.3    77  HIS77      -0.1241
     48  CA         8.8520   29.3140  -11.9710 C.3    77  HIS77       0.1621
     49  C          9.4390   28.4100  -13.0600 C.2    77  HIS77       0.2264
     50  O         10.4240   27.7250  -12.7920 O.2    77  HIS77      -0.2867
     51  CB         7.5100   28.8000  -11.3910 C.3    77  HIS77       0.0745
     52  CG         7.5620   27.4050  -10.8370 C.ar   77  HIS77       0.0817
     53  ND1        8.3930   27.0120   -9.8200 N.ar   77  HIS77      -0.2268
     54  CD2        6.8490   26.2980  -11.1820 C.ar   77  HIS77       0.1154
     55  CE1        8.2060   25.7280   -9.5670 C.ar   77  HIS77       0.1986
     56  NE2        7.2860   25.2730  -10.3890 N.ar   77  HIS77      -0.2212
     57  N         12.1380   28.9850   -2.3960 N.3   179  THR179     -0.1218
     58  CA        10.7490   28.8510   -2.8140 C.3   179  THR179      0.1862
     59  C          9.8260   29.9050   -2.1850 C.2   179  THR179      0.2287
     60  O          8.8390   30.2890   -2.7920 O.2   179  THR179     -0.2866
     61  CB        10.2250   27.4330   -2.5000 C.3   179  THR179      0.1770
     62  OG1       10.4820   27.0810   -1.1630 O.3   179  THR179     -0.2211
     63  CG2       10.8800   26.3500   -3.3790 C.3   179  THR179      0.0375
     64  N          6.5380   32.2430   -3.8400 N.3   183  ILE183     -0.1245
     65  CA         5.2090   31.9430   -3.2960 C.3   183  ILE183      0.1561
     66  C          4.5680   33.2020   -2.7340 C.2   183  ILE183      0.2260
     67  O          3.4190   33.5040   -3.0510 O.2   183  ILE183     -0.2867
     68  CB         5.3110   30.7940   -2.2760 C.3   183  ILE183      0.0252
     69  CG1        5.5520   29.4970   -3.0780 C.3   183  ILE183      0.0019
     70  CG2        4.0970   30.7770   -1.3680 C.3   183  ILE183      0.0019
     71  CD1        5.9980   28.3470   -2.2440 C.3   183  ILE183      0.0001
     72  N          2.4260   28.8820    4.5410 N.3   212  ILE212     -0.1245
     73  CA         2.2390   27.7890    3.6160 C.3   212  ILE212      0.1561
     74  C          3.5100   27.3610    2.8660 C.2   212  ILE212      0.2260
     75  O          3.6480   26.1950    2.5470 O.2   212  ILE212     -0.2867
     76  CB         1.1210   27.9670    2.5840 C.3   212  ILE212      0.0252
     77  CG1        1.2530   29.2150    1.6920 C.3   212  ILE212      0.0019
     78  CG2       -0.1970   28.0680    3.3060 C.3   212  ILE212      0.0019
     79  CD1        0.8450   28.8700    0.3070 C.3   212  ILE212      0.0001
     80  N          4.6030   23.3950    3.0870 N.3   216  PHE216     -0.1241
     81  CA         4.8200   22.5540    1.9840 C.3   216  PHE216      0.1605
     82  C          6.1460   21.8260    2.0680 C.2   216  PHE216      0.2264
     83  O          6.2270   20.6320    1.7240 O.2   216  PHE216     -0.2867
     84  CB         4.8220   23.3410    0.7000 C.3   216  PHE216      0.0534
     85  CG         5.0530   22.4600   -0.4910 C.ar  216  PHE216     -0.0203
     86  CD1        4.0350   21.5660   -0.9180 C.ar  216  PHE216     -0.0042
     87  CD2        6.2720   22.4250   -1.1160 C.ar  216  PHE216     -0.0042
     88  CE1        4.2650   20.6750   -1.9860 C.ar  216  PHE216     -0.0003
     89  CE2        6.5030   21.5630   -2.1680 C.ar  216  PHE216     -0.0003
     90  CZ         5.5030   20.6960   -2.6140 C.ar  216  PHE216     -0.0000
     91  N         -6.4480   25.3890    0.5850 N.3   265  LEU265     -0.1245
     92  CA        -5.1080   25.0930    0.1120 C.3   265  LEU265      0.1561
     93  C         -4.1790   24.8620    1.3080 C.2   265  LEU265      0.2260
     94  O         -3.4330   23.8990    1.2810 O.2   265  LEU265     -0.2867
     95  CB        -4.5710   26.2290   -0.7130 C.3   265  LEU265      0.0270
     96  CG        -3.1180   26.0070   -1.2300 C.3   265  LEU265      0.0019
     97  CD1       -3.0630   24.8400   -2.1820 C.3   265  LEU265      0.0001
     98  CD2       -2.5790   27.2480   -1.8900 C.3   265  LEU265      0.0001
     99  N         -4.8530   21.4110    2.6080 N.3   268  TYR268     -0.1227
    100  CA        -4.5370   20.4590    1.5750 C.3   268  TYR268      0.1736
    101  C         -3.0310   20.1060    1.6450 C.2   268  TYR268      0.2595
    102  O         -2.6610   18.9260    1.6440 O.2   268  TYR268     -0.2718
    103  CB        -4.9050   21.0090    0.2040 C.3   268  TYR268      0.0548
    104  CG        -4.2930   20.1580   -0.8360 C.ar  268  TYR268     -0.0200
    105  CD1       -4.8390   18.9110   -1.1410 C.ar  268  TYR268     -0.0009
    106  CD2       -3.1080   20.5330   -1.4560 C.ar  268  TYR268     -0.0009
    107  CE1       -4.2380   18.0720   -2.0790 C.ar  268  TYR268      0.0417
    108  CE2       -2.4850   19.6930   -2.3780 C.ar  268  TYR268      0.0417
    109  CZ        -3.0610   18.4620   -2.6880 C.ar  268  TYR268      0.1957
    110  OH        -2.4230   17.6210   -3.6180 O.3   268  TYR268     -0.2866
    111  N         -2.2030   21.1300    1.8060 N.am  269  ILE269     -0.1980
    112  CA        -0.7290   21.0330    1.8500 C.3   269  ILE269      0.1595
    113  C         -0.2980   20.0700    2.9630 C.2   269  ILE269      0.2287
    114  O          0.5180   19.1710    2.7260 O.2   269  ILE269     -0.2864
    115  CB        -0.0720   22.4270    2.0350 C.3   269  ILE269      0.0276
    116  CG1       -0.2900   23.2680    0.7720 C.3   269  ILE269      0.0022
    117  CG2        1.4220   22.2920    2.3940 C.3   269  ILE269      0.0022
    118  CD1        0.0180   24.7510    0.9200 C.3   269  ILE269      0.0001
    119  N         -1.9990   16.1420    2.4810 N.3   272  ARG272     -0.1245
    120  CA        -1.6030   15.2940    1.3750 C.3   272  ARG272      0.1563
    121  C         -0.7120   14.1370    1.8040 C.2   272  ARG272      0.2260
    122  O         -0.0720   14.1300    2.9010 O.2   272  ARG272     -0.2867
    123  CB        -1.0470   16.1040    0.1700 C.3   272  ARG272      0.0307
    124  CG         0.3240   16.6920    0.3280 C.3   272  ARG272      0.0489
    125  CD         0.5810   18.0250   -0.4340 C.3   272  ARG272      0.2205
    126  NE         1.7870   18.6740    0.1400 N.pl3 272  ARG272     -0.0865
    127  CZ         3.0340   18.3010   -0.1830 C.cat 272  ARG272      0.5346
    128  NH1        3.2310   17.3500   -1.1070 N.pl3 272  ARG272      0.1354
    129  NH2        4.1050   18.8530    0.4210 N.pl3 272  ARG272      0.1354
@<TRIPOS>BOND
     1    20    18    1
     2    18    19    1
     3    18    17    2
     4    17    16    1
     5    16    15    1
     6    15    14    1
     7    49    50    2
     8    49    48    1
     9    14    11    1
    10    47    48    1
    11     1     2    1
    12    48    51    1
    13    10    11    1
    14    10     3   am
    15    11    12    1
    16    51    52    1
    17     2     3    1
    18     2     5    1
    19    54    52   ar
    20    54    56   ar
    21     3     4    2
    22    52    53   ar
    23    56    55   ar
    24    12    13    2
    25    12    21   am
    26     5     6    1
    27    53    55   ar
    28     6     7    1
    29    21    22    1
    30    30    31    2
    31    30    29    1
    32    32    29    1
    33    32    33    1
    34     7     8    1
    35    28    29    1
    36    28    23   am
    37    34    33    1
    38    34    35    1
    39    37    36    1
    40    22    23    1
    41    22    25    1
    42    23    24    2
    43     9     8    1
    44    35    36    2
    45    36    38    1
    46    27    25    1
    47    25    26    1
    48    39    40    1
    49    41    40    1
    50    41    42    2
    51    40    43    1
    52    43    44    1
    53    44    45    1
    54    44    46    1
    55    64    65    1
    56   110   109    1
    57    63    61    1
    58    65    66    1
    59    65    68    1
    60    69    68    1
    61    69    71    1
    62    67    66    2
    63    58    61    1
    64    58    57    1
    65    58    59    1
    66    60    59    2
    67   109   108   ar
    68   109   107   ar
    69    90    89   ar
    70    90    88   ar
    71    61    62    1
    72   108   106   ar
    73    68    70    1
    74    97    96    1
    75    89    87   ar
    76   107   105   ar
    77    88    86   ar
    78    98    96    1
    79   106   104   ar
    80    96    95    1
    81   105   104   ar
    82    87    85   ar
    83   128   127    1
    84    86    85   ar
    85   104   103    1
    86    95    92    1
    87    85    84    1
    88   125   126    1
    89   125   124    1
    90   127   126    2
    91   127   129    1
    92    92    91    1
    93    92    93    1
    94   123   124    1
    95   123   120    1
    96   103   100    1
    97    79    77    1
    98    84    81    1
    99   116   118    1
   100   116   115    1
   101    94    93    2
   102   120   121    1
   103   120   119    1
   104   100   101    1
   105   100    99    1
   106   102   101    2
   107   101   111   am
   108    77    76    1
   109    83    82    2
   110   121   122    2
   111   111   112    1
   112   112   115    1
   113   112   113    1
   114    81    82    1
   115    81    80    1
   116   115   117    1
   117    75    74    2
   118    76    78    1
   119    76    73    1
   120   114   113    2
   121    74    73    1
   122    73    72    1
