@<TRIPOS>MOLECULE
tmp/3zlbA00.pdb
 190 183 0 0 0
SMALL
GASTEIGER

@<TRIPOS>ATOM
      1  N         32.4010  -24.0540  -18.9340 N.3   202  GLY202     -0.1210
      2  CA        31.9610  -24.6850  -17.7170 C.3   202  GLY202      0.1956
      3  C         31.8380  -26.1850  -17.8500 C.2   202  GLY202      0.2612
      4  O         32.2870  -26.7780  -18.8410 O.2   202  GLY202     -0.2717
      5  N         31.1780  -26.7980  -16.8700 N.am  203  SER203     -0.1952
      6  CA        31.2380  -28.2340  -16.6650 C.3   203  SER203      0.1924
      7  C         30.3220  -29.0470  -17.5860 C.2   203  SER203      0.2314
      8  O         30.6840  -30.1470  -17.9910 O.2   203  SER203     -0.2863
      9  CB        30.8760  -28.5560  -15.1680 C.3   203  SER203      0.2116
     10  OG        29.7100  -27.8240  -14.7460 O.3   203  SER203     -0.2180
     11  N         22.9330  -27.4620  -18.1970 N.3   207  ASP207     -0.1225
     12  CA        22.4790  -26.1950  -17.6170 C.3   207  ASP207      0.1805
     13  C         22.6050  -25.0510  -18.6100 C.2   207  ASP207      0.2597
     14  O         22.2230  -23.9250  -18.2960 O.2   207  ASP207     -0.2718
     15  CB        23.1930  -25.8680  -16.3040 C.3   207  ASP207      0.1424
     16  CG        24.6330  -26.2900  -16.3030 C.2   207  ASP207      0.3668
     17  OD1       25.3700  -25.9030  -17.2330 O.co2 207  ASP207     -0.2456
     18  OD2       25.0180  -27.0260  -15.3610 O.co2 207  ASP207     -0.2456
     19  N         23.0910  -25.3290  -19.8170 N.am  208  LYS208     -0.1979
     20  CA        23.2500  -24.2500  -20.8060 C.3   208  LYS208      0.1596
     21  C         22.5200  -24.4460  -22.1320 C.2   208  LYS208      0.2287
     22  O         22.6870  -23.6430  -23.0560 O.2   208  LYS208     -0.2864
     23  CB        24.7210  -23.9910  -21.0450 C.3   208  LYS208      0.0298
     24  CG        25.4560  -23.4660  -19.8100 C.3   208  LYS208      0.0038
     25  CD        26.5960  -22.5550  -20.2090 C.3   208  LYS208      0.0206
     26  CE        27.7180  -22.4710  -19.1610 C.3   208  LYS208      0.1093
     27  NZ        27.3220  -22.8560  -17.7710 N.3   208  LYS208     -0.1314
     28  N         35.3660  -25.9620  -22.0900 N.3   226  GLY226     -0.1210
     29  CA        35.0970  -26.5990  -20.8160 C.3   226  GLY226      0.1956
     30  C         34.6650  -28.0340  -20.9510 C.2   226  GLY226      0.2612
     31  O         34.8880  -28.6660  -21.9960 O.2   226  GLY226     -0.2717
     32  N         34.0350  -28.5640  -19.9140 N.am  227  GLY227     -0.1956
     33  CA        33.5900  -29.9330  -19.9210 C.3   227  GLY227      0.1869
     34  C         32.5200  -30.1630  -20.9480 C.2   227  GLY227      0.2309
     35  O         32.3630  -31.2860  -21.4060 O.2   227  GLY227     -0.2863
     36  N         32.9430  -32.2190  -24.2780 N.3   230  TYR230     -0.1241
     37  CA        33.1070  -33.6760  -24.4900 C.3   230  TYR230      0.1605
     38  C         31.7830  -34.3390  -24.7610 C.2   230  TYR230      0.2264
     39  O         31.7210  -35.4220  -25.3780 O.2   230  TYR230     -0.2867
     40  CB        33.9290  -34.3260  -23.3520 C.3   230  TYR230      0.0534
     41  CG        35.1990  -33.5860  -23.2420 C.ar  230  TYR230     -0.0201
     42  CD1       36.1890  -33.7370  -24.2200 C.ar  230  TYR230     -0.0009
     43  CD2       35.3870  -32.6090  -22.2660 C.ar  230  TYR230     -0.0009
     44  CE1       37.3530  -32.9710  -24.1860 C.ar  230  TYR230      0.0417
     45  CE2       36.5470  -31.8280  -22.2380 C.ar  230  TYR230      0.0417
     46  CZ        37.5220  -32.0320  -23.1960 C.ar  230  TYR230      0.1957
     47  OH        38.6910  -31.2780  -23.2130 O.3   230  TYR230     -0.2866
     48  N         34.3680  -35.5850  -18.6220 N.3   244  LEU244     -0.1245
     49  CA        33.0330  -35.3530  -18.0990 C.3   244  LEU244      0.1561
     50  C         32.0640  -35.2920  -19.2650 C.2   244  LEU244      0.2260
     51  O         32.2280  -34.4670  -20.1610 O.2   244  LEU244     -0.2867
     52  CB        33.0380  -34.0360  -17.3510 C.3   244  LEU244      0.0270
     53  CG        31.9080  -33.7530  -16.4130 C.3   244  LEU244      0.0019
     54  CD1       31.8190  -34.8820  -15.4010 C.3   244  LEU244      0.0001
     55  CD2       32.2110  -32.4240  -15.7600 C.3   244  LEU244      0.0001
     56  N         42.1310  -37.0240  -12.7480 N.3   276  PHE276     -0.1241
     57  CA        41.6330  -35.6900  -12.4760 C.3   276  PHE276      0.1605
     58  C         42.5070  -35.0050  -11.4380 C.2   276  PHE276      0.2264
     59  O         42.7580  -33.7850  -11.5120 O.2   276  PHE276     -0.2867
     60  CB        40.1850  -35.7350  -11.9820 C.3   276  PHE276      0.0534
     61  CG        39.6230  -34.3810  -11.6570 C.ar  276  PHE276     -0.0203
     62  CD1       39.1280  -33.5480  -12.6640 C.ar  276  PHE276     -0.0042
     63  CD2       39.6100  -33.9330  -10.3460 C.ar  276  PHE276     -0.0042
     64  CE1       38.6370  -32.2750  -12.3750 C.ar  276  PHE276     -0.0003
     65  CE2       39.1150  -32.6720  -10.0350 C.ar  276  PHE276     -0.0003
     66  CZ        38.6300  -31.8450  -11.0390 C.ar  276  PHE276     -0.0000
     67  N         41.6950  -37.7690  -19.4810 N.3   295  LEU295     -0.1231
     68  CA        40.5260  -36.9300  -19.6720 C.3   295  LEU295      0.1693
     69  C         40.9310  -35.5150  -20.0520 C.2   295  LEU295      0.2593
     70  O         42.0500  -35.0700  -19.7420 O.2   295  LEU295     -0.2718
     71  CB        39.6060  -36.9720  -18.4490 C.3   295  LEU295      0.0284
     72  CG        39.9470  -36.2100  -17.1910 C.3   295  LEU295      0.0019
     73  CD1       38.7050  -36.1600  -16.2740 C.3   295  LEU295      0.0001
     74  CD2       41.1320  -36.8700  -16.4950 C.3   295  LEU295      0.0001
     75  N         40.0670  -34.8020  -20.7680 N.am  296  GLY296     -0.1942
     76  CA        40.3890  -33.4420  -21.1510 C.3   296  GLY296      0.2014
     77  C         40.0620  -32.4500  -20.0450 C.2   296  GLY296      0.2639
     78  O         38.9370  -32.4560  -19.5390 O.2   296  GLY296     -0.2714
     79  N         41.0230  -31.5900  -19.6790 N.am  297  LEU297     -0.1963
     80  CA        40.8610  -30.6910  -18.5290 C.3   297  LEU297      0.1728
     81  C         41.0550  -29.2340  -18.9000 C.2   297  LEU297      0.2616
     82  O         40.8760  -28.3640  -18.0610 O.2   297  LEU297     -0.2715
     83  CB        41.8040  -31.0620  -17.3920 C.3   297  LEU297      0.0311
     84  CG        41.6050  -32.4810  -16.8500 C.3   297  LEU297      0.0022
     85  CD1       42.7300  -32.8650  -15.9240 C.3   297  LEU297      0.0001
     86  CD2       40.2320  -32.6440  -16.1420 C.3   297  LEU297      0.0001
     87  N         41.3920  -28.9700  -20.1540 N.am  298  ASP298     -0.1971
     88  CA        41.4210  -27.6090  -20.6600 C.3   298  ASP298      0.1709
     89  C         41.3480  -27.6690  -22.1610 C.2   298  ASP298      0.2293
     90  O         41.6540  -28.7070  -22.7730 O.2   298  ASP298     -0.2864
     91  CB        42.7090  -26.9080  -20.2070 C.3   298  ASP298      0.1436
     92  CG        42.6210  -25.3760  -20.2840 C.2   298  ASP298      0.3671
     93  OD1       41.5230  -24.8440  -20.5920 O.co2 298  ASP298     -0.2456
     94  OD2       43.6500  -24.7140  -20.0340 O.co2 298  ASP298     -0.2456
     95  N         30.1510  -17.0350  -20.5970 N.3   320  ASN320     -0.1225
     96  CA        29.8500  -17.7600  -19.3780 C.3   320  ASN320      0.1785
     97  C         30.4800  -19.1330  -19.4220 C.2   320  ASN320      0.2598
     98  O         30.0400  -19.9870  -20.1900 O.2   320  ASN320     -0.2718
     99  CB        28.3510  -17.9070  -19.1720 C.3   320  ASN320      0.1169
    100  CG        28.0060  -18.7240  -17.9290 C.2   320  ASN320      0.2627
    101  OD1       28.8770  -19.2910  -17.2850 O.2   320  ASN320     -0.2716
    102  ND2       26.7210  -18.8280  -17.6260 N.am  320  ASN320     -0.0877
    103  N         31.4980  -19.3420  -18.6020 N.am  321  GLY321     -0.1943
    104  CA        31.9750  -20.6710  -18.2840 C.3   321  GLY321      0.1998
    105  C         33.4570  -20.8480  -18.5750 C.2   321  GLY321      0.2481
    106  O         33.9030  -20.5830  -19.6870 O.2   321  GLY321     -0.2729
    107  N         34.2300  -21.2950  -17.5840 N.am  322  PRO322     -0.2715
    108  CA        35.6630  -21.4610  -17.8460 C.3   322  PRO322      0.1536
    109  C         35.9430  -22.4940  -18.9240 C.2   322  PRO322      0.2598
    110  O         35.1130  -23.4150  -19.1230 O.2   322  PRO322     -0.2715
    111  CB        36.2060  -21.9370  -16.5030 C.3   322  PRO322      0.0310
    112  CG        35.2350  -21.3300  -15.4720 C.3   322  PRO322      0.0237
    113  CD        33.8930  -21.4560  -16.1550 C.3   322  PRO322      0.0939
    114  N         37.0740  -22.3270  -19.6180 N.am  323  MET323     -0.1964
    115  CA        37.4490  -23.2020  -20.7240 C.3   323  MET323      0.1736
    116  C         38.0710  -24.4970  -20.2550 C.2   323  MET323      0.2617
    117  O         38.2460  -25.4150  -21.0550 O.2   323  MET323     -0.2715
    118  CB        38.4610  -22.4890  -21.6340 C.3   323  MET323      0.0427
    119  CG        37.8980  -21.2590  -22.3570 C.3   323  MET323      0.0599
    120  SD        36.6440  -21.5990  -23.6230 S.3   323  MET323     -0.1393
    121  CE        35.1080  -21.3710  -22.6770 C.3   323  MET323      0.0692
    122  N         38.4030  -24.5630  -18.9650 N.am  324  GLY324     -0.1940
    123  CA        39.0650  -25.7120  -18.3680 C.3   324  GLY324      0.2014
    124  C         38.9180  -25.6920  -16.8640 C.2   324  GLY324      0.2639
    125  O         38.1970  -24.8640  -16.3140 O.2   324  GLY324     -0.2714
    126  N         39.5850  -26.6110  -16.1850 N.am  325  VAL325     -0.1963
    127  CA        39.4740  -26.7330  -14.7220 C.3   325  VAL325      0.1727
    128  C         40.3250  -25.6420  -14.0640 C.2   325  VAL325      0.2616
    129  O         41.4580  -25.8650  -13.6480 O.2   325  VAL325     -0.2715
    130  CB        39.9130  -28.1420  -14.2980 C.3   325  VAL325      0.0290
    131  CG1       39.9140  -28.2980  -12.7920 C.3   325  VAL325      0.0023
    132  CG2       38.9850  -29.1590  -14.9700 C.3   325  VAL325      0.0023
    133  N         39.7460  -24.4490  -13.9860 N.am  326  PHE326     -0.1960
    134  CA        40.4740  -23.2450  -13.6910 C.3   326  PHE326      0.1771
    135  C         40.9760  -23.2030  -12.2590 C.2   326  PHE326      0.2619
    136  O         41.8910  -22.4380  -11.9320 O.2   326  PHE326     -0.2715
    137  CB        39.5400  -22.0750  -13.9240 C.3   326  PHE326      0.0574
    138  CG        40.2220  -20.7900  -13.9230 C.ar  326  PHE326     -0.0200
    139  CD1       40.7750  -20.3010  -15.0860 C.ar  326  PHE326     -0.0042
    140  CD2       40.3550  -20.0800  -12.7470 C.ar  326  PHE326     -0.0042
    141  CE1       41.4450  -19.0810  -15.0860 C.ar  326  PHE326     -0.0003
    142  CE2       41.0120  -18.8810  -12.7250 C.ar  326  PHE326     -0.0003
    143  CZ        41.5580  -18.3690  -13.8890 C.ar  326  PHE326     -0.0000
    144  N         40.3670  -24.0150  -11.3990 N.am  327  GLU327     -0.1977
    145  CA        40.7830  -24.1150  -10.0030 C.3   327  GLU327      0.1602
    146  C         42.2390  -24.5700   -9.9240 C.2   327  GLU327      0.2287
    147  O         42.9260  -24.3200   -8.9420 O.2   327  GLU327     -0.2864
    148  CB        39.9250  -25.1470   -9.2680 C.3   327  GLU327      0.0415
    149  CG        38.4530  -24.8060   -9.1140 C.3   327  GLU327      0.1163
    150  CD        37.5660  -25.3630  -10.2240 C.2   327  GLU327      0.3649
    151  OE1       38.0340  -25.4780  -11.3920 O.co2 327  GLU327     -0.2457
    152  OE2       36.3910  -25.6860   -9.9250 O.co2 327  GLU327     -0.2457
    153  N         28.9880  -13.4500  -17.5730 N.3   353  GLY353     -0.1210
    154  CA        27.7780  -13.8720  -16.9060 C.3   353  GLY353      0.1956
    155  C         27.8150  -15.2490  -16.2770 C.2   353  GLY353      0.2612
    156  O         26.8520  -15.9960  -16.3900 O.2   353  GLY353     -0.2717
    157  N         28.8940  -15.5730  -15.5850 N.am  354  GLY354     -0.1942
    158  CA        28.9550  -16.7920  -14.7920 C.3   354  GLY354      0.2014
    159  C         29.8010  -16.5640  -13.5670 C.2   354  GLY354      0.2639
    160  O         30.6490  -15.6700  -13.5640 O.2   354  GLY354     -0.2714
    161  N         29.5390  -17.3280  -12.5110 N.am  355  GLY355     -0.1939
    162  CA        30.1800  -17.1610  -11.2200 C.3   355  GLY355      0.2014
    163  C         31.6610  -17.4620  -11.1610 C.2   355  GLY355      0.2639
    164  O         32.4490  -16.6290  -10.6820 O.2   355  GLY355     -0.2714
    165  N         32.0500  -18.6550  -11.6070 N.am  356  ASP356     -0.1957
    166  CA        33.4560  -19.0260  -11.6860 C.3   356  ASP356      0.1840
    167  C         34.1510  -18.1940  -12.7350 C.2   356  ASP356      0.2622
    168  O         35.3410  -17.8780  -12.6020 O.2   356  ASP356     -0.2715
    169  CB        33.5980  -20.5020  -12.0750 C.3   356  ASP356      0.1450
    170  CG        33.5880  -21.4310  -10.8870 C.2   356  ASP356      0.3671
    171  OD1       33.1740  -21.0230   -9.7760 O.co2 356  ASP356     -0.2456
    172  OD2       34.0360  -22.5770  -11.0590 O.co2 356  ASP356     -0.2456
    173  N         33.4300  -17.8180  -13.7770 N.am  357  SER357     -0.1950
    174  CA        34.0280  -16.9860  -14.8410 C.3   357  SER357      0.1924
    175  C         34.4170  -15.6010  -14.3140 C.2   357  SER357      0.2314
    176  O         35.5180  -15.1000  -14.5770 O.2   357  SER357     -0.2863
    177  CB        33.0630  -16.8440  -16.0100 C.3   357  SER357      0.2116
    178  OG        32.6340  -18.1200  -16.4910 O.3   357  SER357     -0.2180
    179  N         23.3850  -14.3560  -11.4620 N.3   377  GLY377     -0.1225
    180  CA        23.2270  -15.8080  -11.3790 C.3   377  GLY377      0.1811
    181  C         22.0910  -16.4180  -12.1940 C.2   377  GLY377      0.2280
    182  O         22.1300  -16.4060  -13.4210 O.2   377  GLY377     -0.2866
    183  N         21.2720  -16.1680  -16.3610 N.3   381  MET381     -0.1245
    184  CA        21.0520  -17.3150  -17.2380 C.3   381  MET381      0.1570
    185  C         19.7000  -17.2370  -17.9120 C.2   381  MET381      0.2261
    186  O         19.6040  -17.4300  -19.1140 O.2   381  MET381     -0.2867
    187  CB        21.1320  -18.6140  -16.4210 C.3   381  MET381      0.0387
    188  CG        20.9080  -19.9200  -17.1910 C.3   381  MET381      0.0595
    189  SD        22.2590  -20.3250  -18.3100 S.3   381  MET381     -0.1393
    190  CE        23.5990  -19.3340  -17.6630 C.3   381  MET381      0.0692
@<TRIPOS>BOND
     1    39    38    2
     2    38    37    1
     3    37    36    1
     4    37    40    1
     5    42    44   ar
     6    42    41   ar
     7    44    46   ar
     8   120   121    1
     9   120   119    1
    10    40    41    1
    11    41    43   ar
    12    47    46    1
    13    46    45   ar
    14    22    21    2
    15    90    89    2
    16   119   118    1
    17    43    45   ar
    18    89    88    1
    19    21    20    1
    20    28    29    1
    21    31    30    2
    22   118   115    1
    23    35    34    2
    24    76    75    1
    25    76    77    1
    26   117   116    2
    27    23    20    1
    28    23    24    1
    29    30    29    1
    30    30    32   am
    31    34    33    1
    32    20    19    1
    33    75    69   am
    34   115   116    1
    35   115   114    1
    36    88    91    1
    37    88    87    1
    38    95    96    1
    39    93    92   ar
    40    92    91    1
    41    92    94   ar
    42   116   122   am
    43    25    24    1
    44    25    26    1
    45    98    97    2
    46    51    50    2
    47    87    81   am
    48    69    70    2
    49    69    68    1
    50    77    79   am
    51    77    78    2
    52    33    32    1
    53    19    13   am
    54   106   105    2
    55    79    80    1
    56    68    67    1
    57    68    71    1
    58   114   109   am
    59    97    96    1
    60    97   103   am
    61    96    99    1
    62    50    49    1
    63    99   100    1
    64    26    27    1
    65   110   109    2
    66   186   185    2
    67   122   123    1
    68     1     2    1
    69   109   108    1
    70    81    80    1
    71    81    82    2
    72     4     3    2
    73    48    49    1
    74    13    14    2
    75    13    12    1
    76   103   104    1
    77   105   104    1
    78   105   107   am
    79    80    83    1
    80    71    72    1
    81   123   124    1
    82   189   190    1
    83   189   188    1
    84    11    12    1
    85    49    52    1
    86     8     7    2
    87   100   102   am
    88   100   101    2
    89   185   184    1
    90     3     2    1
    91     3     5   am
    92   108   107    1
    93   108   111    1
    94    12    15    1
    95     7     6    1
    96   107   113    1
    97   153   154    1
    98    83    84    1
    99    52    53    1
   100   184   187    1
   101   184   183    1
   102    17    16   ar
   103   188   187    1
   104    72    74    1
   105    72    73    1
   106   154   155    1
   107     5     6    1
   108   124   125    2
   109   124   126   am
   110    84    86    1
   111    84    85    1
   112     6     9    1
   113   111   112    1
   114   178   177    1
   115    53    55    1
   116    53    54    1
   117   156   155    2
   118    15    16    1
   119    16    18   ar
   120   155   157   am
   121   126   127    1
   122   113   112    1
   123   177   174    1
   124   157   158    1
   125     9    10    1
   126   141   139   ar
   127   141   143   ar
   128   139   138   ar
   129   132   130    1
   130   174   175    1
   131   174   173    1
   132   158   159    1
   133   127   130    1
   134   127   128    1
   135   176   175    2
   136   130   131    1
   137   128   133   am
   138   128   129    2
   139   133   134    1
   140   137   138    1
   141   137   134    1
   142   138   140   ar
   143   143   142   ar
   144   173   167   am
   145   134   135    1
   146   159   160    2
   147   159   161   am
   148   182   181    2
   149    56    57    1
   150   140   142   ar
   151   167   168    2
   152   167   166    1
   153    62    64   ar
   154    62    61   ar
   155   161   162    1
   156    57    60    1
   157    57    58    1
   158    64    66   ar
   159   135   136    2
   160   135   144   am
   161   181   180    1
   162   169   166    1
   163   169   170    1
   164    60    61    1
   165   166   165    1
   166    61    63   ar
   167   165   163   am
   168    59    58    2
   169   179   180    1
   170   144   145    1
   171   151   150   ar
   172   162   163    1
   173   163   164    2
   174   172   170   ar
   175    66    65   ar
   176   170   171   ar
   177    63    65   ar
   178   150   152   ar
   179   150   149    1
   180   145   146    1
   181   145   148    1
   182   146   147    2
   183   148   149    1
