@<TRIPOS>MOLECULE
tmp/3zllB00.pdb
 109 106 0 0 0
SMALL
GASTEIGER

@<TRIPOS>ATOM
      1  N         28.1680  -22.2840   51.5700 N.3    50  LEU50      -0.1245
      2  CA        28.5440  -23.0990   52.7320 C.3    50  LEU50       0.1561
      3  C         27.6770  -24.3300   52.8770 C.2    50  LEU50       0.2260
      4  O         28.1270  -25.3330   53.4170 O.2    50  LEU50      -0.2867
      5  CB        28.5120  -22.2700   54.0140 C.3    50  LEU50       0.0270
      6  CG        29.6210  -21.2350   54.1420 C.3    50  LEU50       0.0019
      7  CD1       29.3000  -20.1870   55.2130 C.3    50  LEU50       0.0001
      8  CD2       30.9490  -21.9330   54.4230 C.3    50  LEU50       0.0001
      9  N         26.0660  -15.7680   61.3320 N.3   119  TYR119     -0.1227
     10  CA        27.4400  -16.0170   61.7510 C.3   119  TYR119      0.1736
     11  C         27.4280  -16.9990   62.9170 C.2   119  TYR119      0.2596
     12  O         26.5980  -16.8790   63.8440 O.2   119  TYR119     -0.2718
     13  CB        28.1180  -14.6900   62.1300 C.3   119  TYR119      0.0548
     14  CG        29.3100  -14.8550   63.0340 C.ar  119  TYR119     -0.0200
     15  CD1       30.5710  -15.0800   62.5060 C.ar  119  TYR119     -0.0009
     16  CD2       29.1680  -14.8340   64.4270 C.ar  119  TYR119     -0.0009
     17  CE1       31.6650  -15.2810   63.3250 C.ar  119  TYR119      0.0417
     18  CE2       30.2520  -15.0290   65.2510 C.ar  119  TYR119      0.0417
     19  CZ        31.5050  -15.2450   64.6900 C.ar  119  TYR119      0.1957
     20  OH        32.6020  -15.4320   65.4950 O.3   119  TYR119     -0.2866
     21  N         28.3250  -17.9800   62.8840 N.am  120  GLY120     -0.1957
     22  CA        28.5780  -18.7800   64.0810 C.3   120  GLY120      0.1869
     23  C         29.3620  -20.0530   63.8280 C.2   120  GLY120      0.2309
     24  O         29.6570  -20.3770   62.6900 O.2   120  GLY120     -0.2863
     25  N         28.4000  -23.3610   61.3660 N.3   123  PHE123     -0.1227
     26  CA        27.2460  -23.0680   60.5470 C.3   123  PHE123      0.1736
     27  C         27.2720  -24.0220   59.3600 C.2   123  PHE123      0.2595
     28  O         26.2470  -24.5790   58.9980 O.2   123  PHE123     -0.2718
     29  CB        27.2870  -21.5990   60.0930 C.3   123  PHE123      0.0547
     30  CG        26.0370  -21.1380   59.4100 C.ar  123  PHE123     -0.0202
     31  CD1       24.7910  -21.4170   59.9440 C.ar  123  PHE123     -0.0042
     32  CD2       26.1110  -20.4020   58.2420 C.ar  123  PHE123     -0.0042
     33  CE1       23.6330  -20.9820   59.3170 C.ar  123  PHE123     -0.0003
     34  CE2       24.9650  -19.9580   57.6120 C.ar  123  PHE123     -0.0003
     35  CZ        23.7190  -20.2530   58.1470 C.ar  123  PHE123     -0.0000
     36  N         28.4570  -24.2190   58.7830 N.am  124  HIS124     -0.1975
     37  CA        28.7050  -25.2650   57.7650 C.3   124  HIS124      0.1656
     38  C         28.1150  -26.6290   58.0850 C.2   124  HIS124      0.2291
     39  O         27.5080  -27.2790   57.2240 O.2   124  HIS124     -0.2864
     40  CB        30.2150  -25.4150   57.5630 C.3   124  HIS124      0.0771
     41  CG        30.5910  -26.3980   56.4810 C.ar  124  HIS124      0.0820
     42  ND1       30.4550  -27.7340   56.6320 N.ar  124  HIS124     -0.2267
     43  CD2       31.1050  -26.1960   55.2010 C.ar  124  HIS124      0.1154
     44  CE1       30.8570  -28.3540   55.5060 C.ar  124  HIS124      0.1986
     45  NE2       31.2530  -27.4110   54.6300 N.ar  124  HIS124     -0.2212
     46  N         37.8830  -12.9900   57.2920 N.3   254  LYS254     -0.1231
     47  CA        36.6860  -12.3420   56.7660 C.3   254  LYS254      0.1693
     48  C         35.4600  -13.2290   56.9100 C.2   254  LYS254      0.2592
     49  O         35.5430  -14.4490   56.8220 O.2   254  LYS254     -0.2718
     50  CB        36.8810  -11.9190   55.3170 C.3   254  LYS254      0.0285
     51  CG        37.7830  -10.7120   55.1580 C.3   254  LYS254      0.0035
     52  CD        37.6440  -10.1000   53.7780 C.3   254  LYS254      0.0206
     53  CE        38.6240   -8.9500   53.5640 C.3   254  LYS254      0.1093
     54  NZ        38.2520   -7.6680   54.2240 N.3   254  LYS254     -0.1314
     55  N         34.3200  -12.5990   57.1600 N.am  255  VAL255     -0.1966
     56  CA        33.0370  -13.2900   57.1380 C.3   255  VAL255      0.1727
     57  C         32.4640  -13.1690   55.7350 C.2   255  VAL255      0.2616
     58  O         32.3220  -12.0600   55.1970 O.2   255  VAL255     -0.2715
     59  CB        32.0280  -12.6510   58.1440 C.3   255  VAL255      0.0290
     60  CG1       30.6830  -13.3620   58.0580 C.3   255  VAL255      0.0023
     61  CG2       32.5710  -12.7320   59.5630 C.3   255  VAL255      0.0023
     62  N         32.1040  -14.2850   55.1430 N.am  256  ALA256     -0.1963
     63  CA        31.3350  -14.2570   53.8980 C.3   256  ALA256      0.1728
     64  C         32.1500  -13.7550   52.7170 C.2   256  ALA256      0.2616
     65  O         31.7270  -12.8670   51.9770 O.2   256  ALA256     -0.2715
     66  CB        30.0850  -13.4180   54.0600 C.3   256  ALA256      0.0334
     67  N         33.3310  -14.3340   52.5680 N.am  257  CYS257     -0.1968
     68  CA        34.2310  -14.0340   51.4640 C.3   257  CYS257      0.1712
     69  C         34.0850  -15.1970   50.4630 C.2   257  CYS257      0.2296
     70  O         34.5450  -16.3000   50.7230 O.2   257  CYS257     -0.2864
     71  CB        35.6720  -13.9220   51.9840 C.3   257  CYS257      0.0983
     72  SG        36.8910  -13.7560   50.6590 S.3   257  CYS257     -0.0798
     73  N         37.1590  -17.0880   49.2170 N.3   260  GLU260     -0.1231
     74  CA        37.6860  -17.9430   50.2600 C.3   260  GLU260      0.1699
     75  C         36.9050  -19.2250   50.3650 C.2   260  GLU260      0.2592
     76  O         37.4920  -20.2830   50.4760 O.2   260  GLU260     -0.2718
     77  CB        37.6920  -17.2490   51.6280 C.3   260  GLU260      0.0402
     78  CG        38.2860  -18.1490   52.6900 C.3   260  GLU260      0.1161
     79  CD        38.4680  -17.4880   54.0400 C.2   260  GLU260      0.3649
     80  OE1       37.9520  -16.3590   54.2670 O.co2 260  GLU260     -0.2457
     81  OE2       39.1340  -18.1370   54.8780 O.co2 260  GLU260     -0.2457
     82  N         35.5690  -19.1270   50.3490 N.am  261  ILE261     -0.1980
     83  CA        34.7220  -20.2820   50.5370 C.3   261  ILE261      0.1595
     84  C         34.8420  -21.2740   49.3750 C.2   261  ILE261      0.2287
     85  O         34.9100  -22.4880   49.5860 O.2   261  ILE261     -0.2864
     86  CB        33.2420  -19.8840   50.7840 C.3   261  ILE261      0.0276
     87  CG1       33.1300  -19.1140   52.1300 C.3   261  ILE261      0.0022
     88  CG2       32.3860  -21.1290   50.8000 C.3   261  ILE261      0.0022
     89  CD1       31.8680  -18.2930   52.3110 C.3   261  ILE261      0.0001
     90  N         38.1680  -23.1260   49.7400 N.3   264  ARG264     -0.1231
     91  CA        38.1590  -24.1340   50.8020 C.3   264  ARG264      0.1694
     92  C         37.2460  -25.2930   50.4520 C.2   264  ARG264      0.2591
     93  O         37.4680  -26.4110   50.9180 O.2   264  ARG264     -0.2718
     94  CB        37.7920  -23.5150   52.1600 C.3   264  ARG264      0.0321
     95  CG        38.7400  -22.3920   52.5710 C.3   264  ARG264      0.0489
     96  CD        38.7210  -22.1120   54.0630 C.3   264  ARG264      0.2205
     97  NE        39.5570  -20.9680   54.4090 N.pl3 264  ARG264     -0.0865
     98  CZ        40.8700  -20.9980   54.6600 C.cat 264  ARG264      0.5346
     99  NH1       41.5580  -22.1300   54.6290 N.pl3 264  ARG264      0.1354
    100  NH2       41.4990  -19.8670   54.9510 N.pl3 264  ARG264      0.1354
    101  N         36.2320  -25.0340   49.6250 N.am  265  GLN265     -0.1979
    102  CA        35.3050  -26.0730   49.1470 C.3   265  GLN265      0.1601
    103  C         35.8990  -26.9280   48.0130 C.2   265  GLN265      0.2287
    104  O         35.3130  -27.9360   47.6290 O.2   265  GLN265     -0.2864
    105  CB        34.0240  -25.4410   48.6090 C.3   265  GLN265      0.0394
    106  CG        33.1070  -24.8260   49.6530 C.3   265  GLN265      0.0908
    107  CD        32.2740  -25.8520   50.3700 C.2   265  GLN265      0.2608
    108  OE1       32.7720  -26.9190   50.7450 O.2   265  GLN265     -0.2717
    109  NE2       31.0000  -25.5330   50.5840 N.am  265  GLN265     -0.0878
@<TRIPOS>BOND
     1   104   103    2
     2   103   102    1
     3   105   102    1
     4   105   106    1
     5   102   101    1
     6    73    74    1
     7    84    85    2
     8    84    83    1
     9   101    92   am
    10   106   107    1
    11    90    91    1
    12    74    75    1
    13    74    77    1
    14    82    75   am
    15    82    83    1
    16    75    76    2
    17   107   109   am
    18   107   108    2
    19    92    91    1
    20    92    93    2
    21    69    70    2
    22    69    68    1
    23    83    86    1
    24    72    71    1
    25    86    88    1
    26    86    87    1
    27    91    94    1
    28    68    71    1
    29    68    67    1
    30     1     2    1
    31    77    78    1
    32    65    64    2
    33    87    89    1
    34    94    95    1
    35    67    64   am
    36    95    96    1
    37    78    79    1
    38    64    63    1
    39     2     3    1
    40     2     5    1
    41     3     4    2
    42    53    52    1
    43    53    54    1
    44    52    51    1
    45    63    66    1
    46    63    62    1
    47     5     6    1
    48    79    80   ar
    49    79    81   ar
    50    96    97    1
    51     6     8    1
    52     6     7    1
    53    97    98    2
    54    99    98    1
    55    45    43   ar
    56    45    44   ar
    57    98   100    1
    58    62    57   am
    59    51    50    1
    60    58    57    2
    61    43    41   ar
    62    50    47    1
    63    44    42   ar
    64    57    56    1
    65    41    42   ar
    66    41    40    1
    67    47    48    1
    68    47    46    1
    69    49    48    2
    70    48    55   am
    71    56    55    1
    72    56    59    1
    73    39    38    2
    74    40    37    1
    75    34    35   ar
    76    34    32   ar
    77    37    38    1
    78    37    36    1
    79    60    59    1
    80    59    61    1
    81    35    33   ar
    82    32    30   ar
    83    36    27   am
    84    28    27    2
    85    33    31   ar
    86    27    26    1
    87    30    31   ar
    88    30    29    1
    89    29    26    1
    90    26    25    1
    91     9    10    1
    92    10    13    1
    93    10    11    1
    94    13    14    1
    95    15    14   ar
    96    15    17   ar
    97    24    23    2
    98    21    11   am
    99    21    22    1
   100    11    12    2
   101    14    16   ar
   102    17    19   ar
   103    23    22    1
   104    16    18   ar
   105    19    18   ar
   106    19    20    1
