@<TRIPOS>MOLECULE
tmp/3zlnA00.pdb
 161 155 0 0 0
SMALL
GASTEIGER

@<TRIPOS>ATOM
      1  N        -22.4680  -13.3770   22.4920 N.3    44  PHE44      -0.1227
      2  CA       -21.5990  -13.3820   21.3190 C.3    44  PHE44       0.1736
      3  C        -20.1940  -12.8970   21.6540 C.2    44  PHE44       0.2595
      4  O        -19.1940  -13.5430   21.3190 O.2    44  PHE44      -0.2718
      5  CB       -22.1740  -12.4880   20.2230 C.3    44  PHE44       0.0547
      6  CG       -21.2420  -12.3010   19.0510 C.ar   44  PHE44      -0.0202
      7  CD1      -21.0680  -13.3130   18.1210 C.ar   44  PHE44      -0.0042
      8  CD2      -20.5310  -11.1230   18.8930 C.ar   44  PHE44      -0.0042
      9  CE1      -20.2030  -13.1550   17.0440 C.ar   44  PHE44      -0.0003
     10  CE2      -19.6610  -10.9550   17.8310 C.ar   44  PHE44      -0.0003
     11  CZ       -19.4950  -11.9770   16.8990 C.ar   44  PHE44      -0.0000
     12  N        -20.1230  -11.7350   22.2920 N.am   45  GLU45      -0.1979
     13  CA       -18.8430  -11.1600   22.6770 C.3    45  GLU45       0.1602
     14  C        -18.1030  -12.0840   23.6390 C.2    45  GLU45       0.2287
     15  O        -16.8990  -12.3140   23.5060 O.2    45  GLU45      -0.2864
     16  CB       -19.0520   -9.7710   23.2770 C.3    45  GLU45       0.0415
     17  CG       -19.6280   -8.7800   22.2680 C.3    45  GLU45       0.1163
     18  CD       -20.2200   -7.5220   22.9040 C.2    45  GLU45       0.3649
     19  OE1      -19.9520   -7.2300   24.0950 O.co2  45  GLU45      -0.2457
     20  OE2      -20.9630   -6.8220   22.1980 O.co2  45  GLU45      -0.2457
     21  N        -18.3660  -16.2430   21.3720 N.3    48  TYR48      -0.1227
     22  CA       -18.3780  -16.5460   19.9400 C.3    48  TYR48       0.1736
     23  C        -17.3930  -15.7300   19.1230 C.2    48  TYR48       0.2595
     24  O        -16.7180  -16.2590   18.2420 O.2    48  TYR48      -0.2718
     25  CB       -19.7840  -16.3140   19.3710 C.3    48  TYR48       0.0548
     26  CG       -20.7980  -17.3400   19.7990 C.ar   48  TYR48      -0.0200
     27  CD1      -21.2540  -17.3900   21.1160 C.ar   48  TYR48      -0.0009
     28  CD2      -21.3050  -18.2660   18.8920 C.ar   48  TYR48      -0.0009
     29  CE1      -22.1830  -18.3370   21.5190 C.ar   48  TYR48       0.0417
     30  CE2      -22.2390  -19.2250   19.2880 C.ar   48  TYR48       0.0417
     31  CZ       -22.6740  -19.2500   20.6020 C.ar   48  TYR48       0.1957
     32  OH       -23.5960  -20.1820   21.0050 O.3    48  TYR48      -0.2866
     33  N        -17.3230  -14.4410   19.4310 N.am   49  ARG49      -0.1980
     34  CA       -16.5870  -13.4680   18.6250 C.3    49  ARG49       0.1597
     35  C        -15.1390  -13.8660   18.3210 C.2    49  ARG49       0.2287
     36  O        -14.6770  -13.7450   17.1850 O.2    49  ARG49      -0.2864
     37  CB       -16.6270  -12.0960   19.3070 C.3    49  ARG49       0.0334
     38  CG       -15.9820  -10.9760   18.5080 C.3    49  ARG49       0.0492
     39  CD       -15.0140  -10.1790   19.3850 C.3    49  ARG49       0.2205
     40  NE       -13.6340  -10.3100   18.9310 N.pl3  49  ARG49      -0.0865
     41  CZ       -12.5780  -10.2190   19.7270 C.cat  49  ARG49       0.5346
     42  NH1      -12.7450  -10.0030   21.0230 N.pl3  49  ARG49       0.1354
     43  NH2      -11.3550  -10.3530   19.2250 N.pl3  49  ARG49       0.1354
     44  N        -13.7550  -15.6360   15.1590 N.3    52  PHE52      -0.1227
     45  CA       -13.6950  -14.9160   13.8930 C.3    52  PHE52       0.1736
     46  C        -12.5300  -13.9430   13.8920 C.2    52  PHE52       0.2596
     47  O        -11.9230  -13.6910   14.9290 O.2    52  PHE52      -0.2718
     48  CB       -15.0080  -14.1510   13.6700 C.3    52  PHE52       0.0547
     49  CG       -16.2250  -15.0310   13.6950 C.ar   52  PHE52      -0.0202
     50  CD1      -16.6780  -15.6300   12.5410 C.ar   52  PHE52      -0.0042
     51  CD2      -16.9000  -15.2730   14.8770 C.ar   52  PHE52      -0.0042
     52  CE1      -17.7890  -16.4330   12.5650 C.ar   52  PHE52      -0.0003
     53  CE2      -18.0000  -16.0830   14.9040 C.ar   52  PHE52      -0.0003
     54  CZ       -18.4510  -16.6640   13.7410 C.ar   52  PHE52      -0.0000
     55  N        -12.2100  -13.3980   12.7270 N.am   53  SER53      -0.1938
     56  CA       -11.2250  -12.3370   12.6630 C.3    53  SER53       0.2055
     57  C        -11.8510  -11.0630   13.2330 C.2    53  SER53       0.2643
     58  O        -13.0600  -10.8540   13.1260 O.2    53  SER53      -0.2714
     59  CB       -10.7760  -12.1170   11.2270 C.3    53  SER53       0.2130
     60  OG       -11.9000  -11.9000   10.4000 O.3    53  SER53      -0.2179
     61  N        -11.0200  -10.2280   13.8440 N.am   54  ASP54      -0.1957
     62  CA       -11.4630   -8.9790   14.4550 C.3    54  ASP54       0.1840
     63  C        -11.8150   -7.9890   13.3620 C.2    54  ASP54       0.2622
     64  O        -10.9460   -7.4000   12.7430 O.2    54  ASP54      -0.2715
     65  CB       -10.3610   -8.4010   15.3450 C.3    54  ASP54       0.1450
     66  CG       -10.8220   -7.1940   16.1470 C.2    54  ASP54       0.3671
     67  OD1      -11.8670   -6.5960   15.8170 O.co2  54  ASP54      -0.2456
     68  OD2      -10.1280   -6.8340   17.1160 O.co2  54  ASP54      -0.2456
     69  N        -13.1040   -7.7980   13.1410 N.am   55  LEU55      -0.1963
     70  CA       -13.5390   -6.9760   12.0370 C.3    55  LEU55       0.1728
     71  C        -13.1850   -5.4960   12.2500 C.2    55  LEU55       0.2616
     72  O        -13.0700   -4.7440   11.2880 O.2    55  LEU55      -0.2715
     73  CB       -15.0340   -7.1840   11.7770 C.3    55  LEU55       0.0311
     74  CG       -15.4920   -6.6610   10.4220 C.3    55  LEU55       0.0022
     75  CD1      -14.6890   -7.3210    9.3100 C.3    55  LEU55       0.0001
     76  CD2      -16.9650   -6.9000   10.2430 C.3    55  LEU55       0.0001
     77  N        -12.9810   -5.0880   13.5010 N.am   56  THR56      -0.1951
     78  CA       -12.6150   -3.6970   13.7990 C.3    56  THR56       0.1897
     79  C        -11.2570   -3.2960   13.2250 C.2    56  THR56       0.2313
     80  O        -11.0090   -2.1140   12.9960 O.2    56  THR56      -0.2863
     81  CB       -12.6060   -3.3730   15.3240 C.3    56  THR56       0.1794
     82  OG1      -11.5960   -4.1430   15.9780 O.3    56  THR56      -0.2208
     83  CG2      -13.9560   -3.6580   15.9590 C.3    56  THR56       0.0378
     84  N        -18.8460   -8.0400    5.0750 N.3    76  GLU76      -0.1231
     85  CA       -18.1400   -9.3000    5.3610 C.3    76  GLU76       0.1699
     86  C        -18.8740  -10.2080    6.3700 C.2    76  GLU76       0.2592
     87  O        -18.8170  -11.4330    6.2700 O.2    76  GLU76      -0.2718
     88  CB       -16.6830   -9.0420    5.7970 C.3    76  GLU76       0.0402
     89  CG       -15.6790   -8.9160    4.6340 C.3    76  GLU76       0.1161
     90  CD       -15.5390  -10.2070    3.8080 C.2    76  GLU76       0.3649
     91  OE1      -15.4020  -11.2910    4.4140 O.co2  76  GLU76      -0.2457
     92  OE2      -15.5730  -10.1240    2.5620 O.co2  76  GLU76      -0.2457
     93  N        -19.5880   -9.6090    7.3150 N.am   77  LEU77      -0.1980
     94  CA       -20.3920  -10.3790    8.2540 C.3    77  LEU77       0.1596
     95  C        -21.4680  -11.1510    7.5160 C.2    77  LEU77       0.2287
     96  O        -22.0070  -12.1530    8.0140 O.2    77  LEU77      -0.2864
     97  CB       -21.0890   -9.4540    9.2430 C.3    77  LEU77       0.0297
     98  CG       -20.2520   -8.6140   10.1900 C.3    77  LEU77       0.0022
     99  CD1      -21.1960   -7.8110   11.0750 C.3    77  LEU77       0.0001
    100  CD2      -19.3450   -9.5070   11.0150 C.3    77  LEU77       0.0001
    101  N        -21.1890  -12.2270    4.2410 N.3    79  ARG79      -0.1245
    102  CA       -20.6100  -12.8830    3.0720 C.3    79  ARG79       0.1563
    103  C        -21.4260  -14.1080    2.6600 C.2    79  ARG79       0.2260
    104  O        -21.4960  -14.4490    1.4780 O.2    79  ARG79      -0.2867
    105  CB       -19.1570  -13.2860    3.3480 C.3    79  ARG79       0.0307
    106  CG       -18.9880  -14.3010    4.4800 C.3    79  ARG79       0.0489
    107  CD       -17.5300  -14.4290    4.9200 C.3    79  ARG79       0.2205
    108  NE       -17.3700  -15.3300    6.0680 N.pl3  79  ARG79      -0.0865
    109  CZ       -16.2460  -15.4410    6.7750 C.cat  79  ARG79       0.5346
    110  NH1      -15.1860  -14.7060    6.4540 N.pl3  79  ARG79       0.1354
    111  NH2      -16.1730  -16.2840    7.7970 N.pl3  79  ARG79       0.1354
    112  N        -28.2420  -14.2990    8.8530 N.3    83  ASN83      -0.1240
    113  CA       -28.9560  -15.1090    9.8380 C.3    83  ASN83       0.1653
    114  C        -28.9490  -14.3250   11.1540 C.2    83  ASN83       0.2266
    115  O        -28.2630  -13.3120   11.2500 O.2    83  ASN83      -0.2867
    116  CB       -28.3740  -16.5380    9.9610 C.3    83  ASN83       0.1155
    117  CG       -26.9570  -16.5720   10.5480 C.2    83  ASN83       0.2627
    118  OD1      -26.5200  -15.6450   11.2370 O.2    83  ASN83      -0.2716
    119  ND2      -26.2450  -17.6620   10.2860 N.am   83  ASN83      -0.0877
    120  N        -27.5850  -14.8040   14.0480 N.3    85  GLY85      -0.1210
    121  CA       -26.2970  -14.7260   14.7100 C.3    85  GLY85       0.1956
    122  C        -25.3990  -13.6460   14.1380 C.2    85  GLY85       0.2611
    123  O        -24.6220  -13.0300   14.8580 O.2    85  GLY85      -0.2717
    124  N        -25.4980  -13.4160   12.8350 N.am   86  ARG86      -0.1979
    125  CA       -24.6840  -12.3960   12.1880 C.3    86  ARG86       0.1597
    126  C        -25.2970  -11.0220   12.4260 C.2    86  ARG86       0.2287
    127  O        -24.5930  -10.0150   12.4960 O.2    86  ARG86      -0.2864
    128  CB       -24.5450  -12.6900   10.6880 C.3    86  ARG86       0.0334
    129  CG       -23.9010  -14.0390   10.3940 C.3    86  ARG86       0.0492
    130  CD       -24.1430  -14.5010    8.9550 C.3    86  ARG86       0.2205
    131  NE       -23.6170  -15.8480    8.7440 N.pl3  86  ARG86      -0.0865
    132  CZ       -23.9930  -16.6750    7.7690 C.cat  86  ARG86       0.5346
    133  NH1      -24.9120  -16.3110    6.8790 N.pl3  86  ARG86       0.1354
    134  NH2      -23.4560  -17.8850    7.7000 N.pl3  86  ARG86       0.1354
    135  N        -24.0080  -10.1730   15.7890 N.3    89  ALA89      -0.1245
    136  CA       -22.6120   -9.7380   15.5820 C.3    89  ALA89       0.1562
    137  C        -22.5320   -8.3260   15.0300 C.2    89  ALA89       0.2260
    138  O        -21.6280   -7.5650   15.3750 O.2    89  ALA89      -0.2867
    139  CB       -21.8700  -10.6850   14.6580 C.3    89  ALA89       0.0290
    140  N        -23.0020   -5.9190   17.9580 N.3    92  SER92      -0.1202
    141  CA       -21.7660   -5.9330   18.7440 C.3    92  SER92       0.2020
    142  C        -20.6710   -5.1550   18.0430 C.2    92  SER92       0.2618
    143  O        -19.9000   -4.4370   18.6830 O.2    92  SER92      -0.2717
    144  CB       -21.2710   -7.3670   18.9940 C.3    92  SER92       0.2103
    145  OG       -22.1070   -8.0390   19.9170 O.3    92  SER92      -0.2182
    146  N        -20.5980   -5.3150   16.7260 N.am   93  PHE93      -0.1975
    147  CA       -19.5660   -4.6600   15.9380 C.3    93  PHE93       0.1639
    148  C        -19.7640   -3.1480   15.9920 C.2    93  PHE93       0.2290
    149  O        -18.8060   -2.3990   16.1630 O.2    93  PHE93      -0.2864
    150  CB       -19.5720   -5.1910   14.4990 C.3    93  PHE93       0.0560
    151  CG       -18.5890   -4.5020   13.5830 C.ar   93  PHE93      -0.0200
    152  CD1      -17.2190   -4.6400   13.7750 C.ar   93  PHE93      -0.0042
    153  CD2      -19.0400   -3.7340   12.5120 C.ar   93  PHE93      -0.0042
    154  CE1      -16.3100   -4.0070   12.9260 C.ar   93  PHE93      -0.0003
    155  CE2      -18.1380   -3.1010   11.6540 C.ar   93  PHE93      -0.0003
    156  CZ       -16.7640   -3.2420   11.8640 C.ar   93  PHE93      -0.0000
    157  N        -18.6740   -2.0350   19.4530 N.3    96  ALA96      -0.1245
    158  CA       -17.2280   -1.9970   19.5680 C.3    96  ALA96       0.1562
    159  C        -16.6610   -0.7400   18.8830 C.2    96  ALA96       0.2260
    160  O        -15.7490   -0.1080   19.4010 O.2    96  ALA96      -0.2867
    161  CB       -16.6160   -3.2720   18.9940 C.3    96  ALA96       0.0290
@<TRIPOS>BOND
     1   104   103    2
     2    92    90   ar
     3   103   102    1
     4   102   105    1
     5   102   101    1
     6   105   106    1
     7    90    91   ar
     8    90    89    1
     9   106   107    1
    10    89    88    1
    11   107   108    1
    12    84    85    1
    13    85    88    1
    14    85    86    1
    15   108   109    2
    16    87    86    2
    17    86    93   am
    18   110   109    1
    19   109   111    1
    20   133   132    1
    21    93    94    1
    22    95    96    2
    23    95    94    1
    24   134   132    1
    25   132   131    2
    26    94    97    1
    27   131   130    1
    28   112   113    1
    29   130   129    1
    30    97    98    1
    31    75    74    1
    32   113   116    1
    33   113   114    1
    34   116   117    1
    35    98   100    1
    36    98    99    1
    37    76    74    1
    38   119   117   am
    39   129   128    1
    40    60    59    1
    41    74    73    1
    42   117   118    2
    43   128   125    1
    44   114   115    2
    45    59    56    1
    46    72    71    2
    47   155   156   ar
    48   155   153   ar
    49    73    70    1
    50   156   154   ar
    51    70    71    1
    52    70    69    1
    53   125   126    1
    54   125   124    1
    55    71    77   am
    56   126   127    2
    57   153   151   ar
    58    50    52   ar
    59    50    49   ar
    60    52    54   ar
    61    56    55    1
    62    56    57    1
    63    55    46   am
    64    64    63    2
    65   124   122   am
    66   154   152   ar
    67    80    79    2
    68    58    57    2
    69    69    63   am
    70    79    78    1
    71    57    61   am
    72    63    62    1
    73    77    78    1
    74   151   152   ar
    75   151   150    1
    76    48    49    1
    77    48    45    1
    78    49    51   ar
    79    54    53   ar
    80    78    81    1
    81    61    62    1
    82    46    45    1
    83    46    47    2
    84    45    44    1
    85   120   121    1
    86   122   121    1
    87   122   123    2
    88    62    65    1
    89   150   147    1
    90   139   136    1
    91    51    53   ar
    92   137   138    2
    93   137   136    1
    94    81    83    1
    95    81    82    1
    96    65    66    1
    97   136   135    1
    98    67    66   ar
    99   147   148    1
   100   147   146    1
   101   148   149    2
   102    66    68   ar
   103   146   142   am
   104    11     9   ar
   105    11    10   ar
   106     9     7   ar
   107    36    35    2
   108    10     8   ar
   109   140   141    1
   110   142   143    2
   111   142   141    1
   112     7     6   ar
   113    24    23    2
   114    35    34    1
   115    38    37    1
   116    38    39    1
   117    34    37    1
   118    34    33    1
   119   141   144    1
   120   159   160    2
   121   159   158    1
   122    28    30   ar
   123    28    26   ar
   124     8     6   ar
   125    40    39    1
   126    40    41    2
   127   144   145    1
   128   161   158    1
   129     6     5    1
   130    23    33   am
   131    23    22    1
   132    43    41    1
   133    30    31   ar
   134    25    26    1
   135    25    22    1
   136   157   158    1
   137    41    42    1
   138    26    27   ar
   139    22    21    1
   140     5     2    1
   141    31    32    1
   142    31    29   ar
   143    27    29   ar
   144     2     3    1
   145     2     1    1
   146     4     3    2
   147     3    12   am
   148    20    18   ar
   149    17    18    1
   150    17    16    1
   151    12    13    1
   152    13    16    1
   153    13    14    1
   154    18    19   ar
   155    15    14    2
