@<TRIPOS>MOLECULE
tmp/3zloA00.pdb
 213 205 0 0 0
SMALL
GASTEIGER

@<TRIPOS>ATOM
      1  N         12.8550  -20.8000   13.9020 N.3    38  ALA38      -0.1245
      2  CA        12.4040  -22.0830   13.3600 C.3    38  ALA38       0.1562
      3  C         13.3600  -23.2320   13.7140 C.2    38  ALA38       0.2260
      4  O         12.9300  -24.3690   13.9430 O.2    38  ALA38      -0.2867
      5  CB        12.2240  -21.9840   11.8510 C.3    38  ALA38       0.0290
      6  N         12.6030  -24.1310   17.3610 N.3    41  GLU41      -0.1231
      7  CA        11.4120  -24.9750   17.3580 C.3    41  GLU41       0.1699
      8  C         11.7400  -26.3400   16.7760 C.2    41  GLU41       0.2592
      9  O         11.2630  -27.3550   17.2710 O.2    41  GLU41      -0.2718
     10  CB        10.2530  -24.3380   16.5720 C.3    41  GLU41       0.0402
     11  CG         9.6010  -23.1230   17.2280 C.3    41  GLU41       0.1161
     12  CD         8.9580  -23.4360   18.5820 C.2    41  GLU41       0.3649
     13  OE1        8.7090  -24.6230   18.8910 O.co2  41  GLU41      -0.2457
     14  OE2        8.6880  -22.4810   19.3410 O.co2  41  GLU41      -0.2457
     15  N         12.5430  -26.3800   15.7180 N.am   42  PHE42      -0.1976
     16  CA        12.8990  -27.6710   15.1670 C.3    42  PHE42       0.1639
     17  C         13.5530  -28.5490   16.2390 C.2    42  PHE42       0.2290
     18  O         13.2050  -29.7190   16.3950 O.2    42  PHE42      -0.2864
     19  CB        13.8130  -27.5350   13.9590 C.3    42  PHE42       0.0560
     20  CG        14.2480  -28.8560   13.4060 C.ar   42  PHE42      -0.0200
     21  CD1       13.3390  -29.6810   12.7630 C.ar   42  PHE42      -0.0042
     22  CD2       15.5350  -29.3080   13.5930 C.ar   42  PHE42      -0.0042
     23  CE1       13.7240  -30.9150   12.2820 C.ar   42  PHE42      -0.0003
     24  CE2       15.9280  -30.5430   13.1180 C.ar   42  PHE42      -0.0003
     25  CZ        15.0240  -31.3450   12.4570 C.ar   42  PHE42      -0.0000
     26  N         11.1650  -29.6660   19.0740 N.3    45  ARG45      -0.1231
     27  CA         9.9320  -30.3280   18.6600 C.3    45  ARG45       0.1694
     28  C         10.0620  -31.5680   17.7680 C.2    45  ARG45       0.2592
     29  O          9.2580  -32.4890   17.8970 O.2    45  ARG45      -0.2718
     30  CB         8.9770  -29.3160   18.0160 C.3    45  ARG45       0.0321
     31  CG         8.3180  -28.3360   19.0030 C.3    45  ARG45       0.0489
     32  CD         7.3070  -27.3970   18.3100 C.3    45  ARG45       0.2205
     33  NE         6.5130  -26.6350   19.2670 N.pl3  45  ARG45      -0.0865
     34  CZ         5.4870  -27.1290   19.9550 C.cat  45  ARG45       0.5346
     35  NH1        5.1050  -28.3920   19.7940 N.pl3  45  ARG45       0.1354
     36  NH2        4.8410  -26.3560   20.8170 N.pl3  45  ARG45       0.1354
     37  N         11.0490  -31.6060   16.8740 N.am   46  TYR46      -0.1962
     38  CA        11.1020  -32.6830   15.8800 C.3    46  TYR46       0.1771
     39  C         12.4170  -33.4410   15.8060 C.2    46  TYR46       0.2619
     40  O         12.4130  -34.6450   15.5930 O.2    46  TYR46      -0.2715
     41  CB        10.7560  -32.1560   14.4880 C.3    46  TYR46       0.0574
     42  CG         9.4700  -31.3500   14.4040 C.ar   46  TYR46      -0.0198
     43  CD1        8.2380  -31.9800   14.2400 C.ar   46  TYR46      -0.0009
     44  CD2        9.4930  -29.9550   14.4620 C.ar   46  TYR46      -0.0009
     45  CE1        7.0550  -31.2420   14.1560 C.ar   46  TYR46       0.0417
     46  CE2        8.3270  -29.2150   14.3770 C.ar   46  TYR46       0.0417
     47  CZ         7.1110  -29.8620   14.2250 C.ar   46  TYR46       0.1957
     48  OH         5.9570  -29.1160   14.1480 O.3    46  TYR46      -0.2866
     49  N         13.5260  -32.7240   15.9590 N.am   47  ARG47      -0.1977
     50  CA        14.8800  -33.2780   15.8590 C.3    47  ARG47       0.1597
     51  C         14.9920  -34.7560   16.2330 C.2    47  ARG47       0.2287
     52  O         15.6330  -35.5540   15.5280 O.2    47  ARG47      -0.2864
     53  CB        15.8500  -32.4560   16.7260 C.3    47  ARG47       0.0334
     54  CG        17.1030  -33.2160   17.1900 C.3    47  ARG47       0.0492
     55  CD        18.0160  -32.3530   18.0670 C.3    47  ARG47       0.2205
     56  NE        18.8650  -31.4640   17.2750 N.pl3  47  ARG47      -0.0865
     57  CZ        19.7170  -30.5750   17.7830 C.cat  47  ARG47       0.5346
     58  NH1       19.8420  -30.4410   19.0970 N.pl3  47  ARG47       0.1354
     59  NH2       20.4440  -29.8140   16.9720 N.pl3  47  ARG47       0.1354
     60  N         13.4370  -38.0000   13.9220 N.3    50  PHE50      -0.1227
     61  CA        14.1770  -38.5620   12.7990 C.3    50  PHE50       0.1736
     62  C         15.4610  -39.2090   13.2610 C.2    50  PHE50       0.2596
     63  O         15.9500  -38.9310   14.3550 O.2    50  PHE50      -0.2718
     64  CB        14.5020  -37.4750   11.7840 C.3    50  PHE50       0.0547
     65  CG        13.3020  -36.7430   11.3140 C.ar   50  PHE50      -0.0202
     66  CD1       12.5470  -37.2320   10.2730 C.ar   50  PHE50      -0.0042
     67  CD2       12.8960  -35.5850   11.9440 C.ar   50  PHE50      -0.0042
     68  CE1       11.4190  -36.5590    9.8450 C.ar   50  PHE50      -0.0003
     69  CE2       11.7640  -34.9100   11.5300 C.ar   50  PHE50      -0.0003
     70  CZ        11.0250  -35.3960   10.4770 C.ar   50  PHE50      -0.0000
     71  N         15.9960  -40.0820   12.4150 N.am   51  SER51      -0.1938
     72  CA        17.2990  -40.6660   12.6450 C.3    51  SER51       0.2055
     73  C         18.3200  -39.5340   12.7670 C.2    51  SER51       0.2643
     74  O         18.1480  -38.4920   12.1510 O.2    51  SER51      -0.2714
     75  CB        17.6520  -41.5830   11.4790 C.3    51  SER51       0.2130
     76  OG        18.9440  -42.1370   11.6410 O.3    51  SER51      -0.2179
     77  N         19.3660  -39.7390   13.5680 N.am   52  ASP52      -0.1957
     78  CA        20.4050  -38.7300   13.7860 C.3    52  ASP52       0.1840
     79  C         21.4320  -38.6650   12.6510 C.2    52  ASP52       0.2622
     80  O         22.3390  -39.4950   12.5690 O.2    52  ASP52      -0.2715
     81  CB        21.1290  -38.9860   15.1080 C.3    52  ASP52       0.1450
     82  CG        21.9990  -37.8170   15.5370 C.2    52  ASP52       0.3671
     83  OD1       22.1020  -36.8240   14.7920 O.co2  52  ASP52      -0.2456
     84  OD2       22.5870  -37.8910   16.6290 O.co2  52  ASP52      -0.2456
     85  N         21.3030  -37.6530   11.8010 N.am   53  LEU53      -0.1963
     86  CA        22.1950  -37.5080   10.6610 C.3    53  LEU53       0.1728
     87  C         23.6450  -37.2840   11.0510 C.2    53  LEU53       0.2616
     88  O         24.5500  -37.6630   10.3140 O.2    53  LEU53      -0.2715
     89  CB        21.7310  -36.3830    9.7490 C.3    53  LEU53       0.0311
     90  CG        20.7110  -36.8250    8.7110 C.3    53  LEU53       0.0022
     91  CD1       20.5550  -35.7360    7.6840 C.3    53  LEU53       0.0001
     92  CD2       21.1400  -38.1420    8.0710 C.3    53  LEU53       0.0001
     93  N         23.8700  -36.6700   12.2050 N.am   54  THR54      -0.1951
     94  CA        25.2320  -36.4710   12.6740 C.3    54  THR54       0.1897
     95  C         25.8600  -37.8030   13.0450 C.2    54  THR54       0.2313
     96  O         27.0810  -37.9330   13.0470 O.2    54  THR54      -0.2863
     97  CB        25.3040  -35.5360   13.8860 C.3    54  THR54       0.1794
     98  OG1       24.9100  -36.2530   15.0660 O.3    54  THR54      -0.2208
     99  CG2       24.4190  -34.3060   13.6690 C.3    54  THR54       0.0378
    100  N         25.5100  -40.4180   11.2380 N.3    56  GLN56      -0.1245
    101  CA        25.9260  -40.9800    9.9550 C.3    56  GLN56       0.1566
    102  C         27.2280  -40.3610    9.4000 C.2    56  GLN56       0.2260
    103  O         28.0320  -41.0520    8.7760 O.2    56  GLN56      -0.2867
    104  CB        24.7720  -40.9150    8.9410 C.3    56  GLN56       0.0367
    105  CG        23.4810  -41.5810    9.4480 C.3    56  GLN56       0.0905
    106  CD        22.5160  -41.9740    8.3340 C.2    56  GLN56       0.2608
    107  OE1       22.9330  -42.3700    7.2450 O.2    56  GLN56      -0.2717
    108  NE2       21.2160  -41.8730    8.6110 N.am   56  GLN56      -0.0878
    109  N         20.4750  -36.9700    2.0540 N.3    74  GLU74      -0.1231
    110  CA        19.4850  -37.8080    2.7480 C.3    74  GLU74       0.1699
    111  C         18.2640  -37.0190    3.2070 C.2    74  GLU74       0.2592
    112  O         17.1220  -37.4480    3.0400 O.2    74  GLU74      -0.2718
    113  CB        20.1210  -38.5080    3.9520 C.3    74  GLU74       0.0402
    114  CG        21.0540  -39.6590    3.6010 C.3    74  GLU74       0.1161
    115  CD        20.3530  -40.9980    3.6350 C.2    74  GLU74       0.3649
    116  OE1       19.1340  -41.0220    3.9090 O.co2  74  GLU74      -0.2457
    117  OE2       21.0180  -42.0280    3.3960 O.co2  74  GLU74      -0.2457
    118  N         18.5350  -35.8600    3.7880 N.am   75  LEU75      -0.1980
    119  CA        17.5130  -34.9210    4.2150 C.3    75  LEU75       0.1596
    120  C         16.4550  -34.6810    3.1350 C.2    75  LEU75       0.2287
    121  O         15.2540  -34.7290    3.3950 O.2    75  LEU75      -0.2864
    122  CB        18.2030  -33.6060    4.5600 C.3    75  LEU75       0.0297
    123  CG        17.5470  -32.6440    5.5310 C.3    75  LEU75       0.0022
    124  CD1       16.8960  -33.4140    6.6490 C.3    75  LEU75       0.0001
    125  CD2       18.6070  -31.7110    6.0890 C.3    75  LEU75       0.0001
    126  N         15.8270  -36.4790    0.3610 N.3    77  ARG77      -0.1231
    127  CA        15.5450  -37.6650   -0.4490 C.3    77  ARG77       0.1694
    128  C         14.1490  -37.6430   -1.0790 C.2    77  ARG77       0.2592
    129  O         13.9530  -38.1680   -2.1720 O.2    77  ARG77      -0.2718
    130  CB        15.7430  -38.9510    0.3690 C.3    77  ARG77       0.0321
    131  CG        14.8770  -39.0810    1.6330 C.3    77  ARG77       0.0489
    132  CD        15.3840  -40.2230    2.5310 C.3    77  ARG77       0.2205
    133  NE        15.4670  -41.5010    1.8180 N.pl3  77  ARG77      -0.0865
    134  CZ        16.1060  -42.5810    2.2690 C.cat  77  ARG77       0.5346
    135  NH1       16.7320  -42.5470    3.4390 N.pl3  77  ARG77       0.1354
    136  NH2       16.1220  -43.6960    1.5450 N.pl3  77  ARG77       0.1354
    137  N         13.1860  -37.0250   -0.3990 N.am   78  ASP78      -0.1974
    138  CA        11.8070  -36.9970   -0.8860 C.3    78  ASP78       0.1709
    139  C         11.3510  -35.5990   -1.3310 C.2    78  ASP78       0.2293
    140  O         10.1530  -35.3190   -1.3520 O.2    78  ASP78      -0.2864
    141  CB        10.8470  -37.5560    0.1790 C.3    78  ASP78       0.1436
    142  CG        11.0870  -39.0360    0.4790 C.2    78  ASP78       0.3671
    143  OD1       11.1410  -39.8360   -0.4770 O.co2  78  ASP78      -0.2456
    144  OD2       11.2180  -39.4020    1.6710 O.co2  78  ASP78      -0.2456
    145  N         11.1900  -29.0210    0.9350 N.3    81  ASN81      -0.1240
    146  CA        10.3040  -28.0230    1.5230 C.3    81  ASN81       0.1653
    147  C         11.1190  -27.1110    2.4150 C.2    81  ASN81       0.2266
    148  O         12.2930  -27.3840    2.6650 O.2    81  ASN81      -0.2867
    149  CB         9.1310  -28.6470    2.2860 C.3    81  ASN81       0.1155
    150  CG         9.5760  -29.5440    3.4200 C.2    81  ASN81       0.2627
    151  OD1       10.2830  -29.1030    4.3250 O.2    81  ASN81      -0.2716
    152  ND2        9.1420  -30.8100    3.3900 N.am   81  ASN81      -0.0877
    153  N         10.8180  -26.6790    5.6340 N.3    83  GLY83      -0.1210
    154  CA        11.1390  -27.3880    6.8630 C.3    83  GLY83       0.1956
    155  C         12.4940  -28.0660    6.7920 C.2    83  GLY83       0.2611
    156  O         13.3890  -27.8390    7.6230 O.2    83  GLY83      -0.2717
    157  N         12.6560  -28.8890    5.7690 N.am   84  ARG84      -0.1979
    158  CA        13.9160  -29.5820    5.5450 C.3    84  ARG84       0.1597
    159  C         15.1050  -28.6300    5.4020 C.2    84  ARG84       0.2287
    160  O         16.2060  -28.9280    5.8590 O.2    84  ARG84      -0.2864
    161  CB        13.7660  -30.5010    4.3400 C.3    84  ARG84       0.0334
    162  CG        12.5550  -31.3730    4.5100 C.3    84  ARG84       0.0492
    163  CD        12.2340  -32.1770    3.2980 C.3    84  ARG84       0.2205
    164  NE        11.1240  -33.0780    3.5740 N.pl3  84  ARG84      -0.0865
    165  CZ        10.6810  -33.9790    2.7150 C.cat  84  ARG84       0.5346
    166  NH1       11.2630  -34.0960    1.5350 N.pl3  84  ARG84       0.1354
    167  NH2        9.6690  -34.7670    3.0380 N.pl3  84  ARG84       0.1354
    168  N         15.1940  -25.8630    7.0770 N.3    86  VAL86      -0.1231
    169  CA        15.3700  -25.5360    8.4780 C.3    86  VAL86       0.1692
    170  C         16.1960  -26.6380    9.1120 C.2    86  VAL86       0.2591
    171  O         17.2020  -26.3820    9.7850 O.2    86  VAL86      -0.2718
    172  CB        14.0170  -25.4400    9.2120 C.3    86  VAL86       0.0266
    173  CG1       14.2230  -25.3870   10.7300 C.3    86  VAL86       0.0020
    174  CG2       13.2170  -24.2350    8.7130 C.3    86  VAL86       0.0020
    175  N         15.7810  -27.8720    8.8650 N.am   87  ALA87      -0.1980
    176  CA        16.4790  -29.0330    9.4110 C.3    87  ALA87       0.1597
    177  C         17.9320  -29.0930    8.9400 C.2    87  ALA87       0.2287
    178  O         18.8380  -29.4220    9.7090 O.2    87  ALA87      -0.2864
    179  CB        15.7380  -30.3150    9.0430 C.3    87  ALA87       0.0319
    180  N         19.7260  -26.6280   10.9920 N.3    90  SER90      -0.1202
    181  CA        19.8650  -27.2280   12.3080 C.3    90  SER90       0.2020
    182  C         20.9880  -28.2520   12.3220 C.2    90  SER90       0.2618
    183  O         21.7390  -28.3850   13.2950 O.2    90  SER90      -0.2717
    184  CB        18.5690  -27.8990   12.7260 C.3    90  SER90       0.2103
    185  OG        18.5230  -27.9820   14.1350 O.3    90  SER90      -0.2182
    186  N         21.0940  -28.9710   11.2190 N.am   91  PHE91      -0.1975
    187  CA        22.1190  -29.9760   11.0800 C.3    91  PHE91       0.1639
    188  C         23.5290  -29.3730   11.1240 C.2    91  PHE91       0.2290
    189  O         24.4030  -29.8750   11.8390 O.2    91  PHE91      -0.2864
    190  CB        21.8910  -30.7700    9.7920 C.3    91  PHE91       0.0560
    191  CG        22.9430  -31.8010    9.5310 C.ar   91  PHE91      -0.0200
    192  CD1       23.0900  -32.8850   10.3800 C.ar   91  PHE91      -0.0042
    193  CD2       23.7880  -31.6880    8.4370 C.ar   91  PHE91      -0.0042
    194  CE1       24.0640  -33.8360   10.1480 C.ar   91  PHE91      -0.0003
    195  CE2       24.7510  -32.6410    8.1930 C.ar   91  PHE91      -0.0003
    196  CZ        24.8940  -33.7170    9.0500 C.ar   91  PHE91      -0.0000
    197  N         24.5220  -28.5010   14.5030 N.3    94  ALA94      -0.1245
    198  CA        24.8730  -29.6310   15.3470 C.3    94  ALA94       0.1562
    199  C         26.2520  -30.1650   14.9860 C.2    94  ALA94       0.2260
    200  O         26.9930  -30.5850   15.8600 O.2    94  ALA94      -0.2867
    201  CB        23.7920  -30.7410   15.2980 C.3    94  ALA94       0.0290
    202  N          6.3540  -18.4930    8.3080 N.3   140  TYR140     -0.1241
    203  CA         6.8450  -19.0270    9.5640 C.3   140  TYR140      0.1605
    204  C          7.1630  -17.9610   10.6430 C.2   140  TYR140      0.2264
    205  O          7.6480  -18.3000   11.7200 O.2   140  TYR140     -0.2867
    206  CB         8.0750  -19.9060    9.2880 C.3   140  TYR140      0.0534
    207  CG         7.8540  -21.1470    8.4100 C.ar  140  TYR140     -0.0201
    208  CD1        7.4820  -21.0370    7.0710 C.ar  140  TYR140     -0.0009
    209  CD2        8.0870  -22.4300    8.9160 C.ar  140  TYR140     -0.0009
    210  CE1        7.2990  -22.1720    6.2690 C.ar  140  TYR140      0.0417
    211  CE2        7.9170  -23.5690    8.1250 C.ar  140  TYR140      0.0417
    212  CZ         7.5230  -23.4380    6.8050 C.ar  140  TYR140      0.1957
    213  OH         7.3550  -24.5780    6.0360 O.3   140  TYR140     -0.2866
@<TRIPOS>BOND
     1   129   128    2
     2   140   139    2
     3   139   138    1
     4   128   127    1
     5   128   137   am
     6   138   137    1
     7   138   141    1
     8   143   142   ar
     9   127   126    1
    10   127   130    1
    11   141   142    1
    12   130   131    1
    13   142   144   ar
    14   145   146    1
    15   146   149    1
    16   146   147    1
    17   166   165    1
    18   136   134    1
    19   131   132    1
    20   133   134    2
    21   133   132    1
    22   109   110    1
    23   134   135    1
    24   149   150    1
    25   147   148    2
    26   165   167    1
    27   165   164    2
    28   110   111    1
    29   110   113    1
    30   112   111    2
    31   120   121    2
    32   120   119    1
    33   111   118   am
    34   163   164    1
    35   163   162    1
    36   152   150   am
    37   117   115   ar
    38   150   151    2
    39   114   115    1
    40   114   113    1
    41   115   116   ar
    42   118   119    1
    43   119   122    1
    44   161   162    1
    45   161   158    1
    46   122   123    1
    47   159   158    1
    48   159   160    2
    49   123   125    1
    50   123   124    1
    51   158   157    1
    52   153   154    1
    53   157   155   am
    54   213   212    1
    55   210   212   ar
    56   210   208   ar
    57   155   154    1
    58   155   156    2
    59   212   211   ar
    60   208   207   ar
    61   168   169    1
    62   107   106    2
    63    91    90    1
    64    92    90    1
    65   211   209   ar
    66   195   193   ar
    67   195   196   ar
    68   202   203    1
    69   106   108   am
    70   106   105    1
    71   207   209   ar
    72   207   206    1
    73   193   191   ar
    74   169   170    1
    75   169   172    1
    76    90    89    1
    77   174   172    1
    78   103   102    2
    79   175   170   am
    80   175   176    1
    81   177   176    1
    82   177   178    2
    83   104   105    1
    84   104   101    1
    85   179   176    1
    86   196   194   ar
    87   170   171    2
    88   172   173    1
    89   206   203    1
    90   102   101    1
    91   191   190    1
    92   191   192   ar
    93   203   204    1
    94    89    86    1
    95   190   187    1
    96    68    66   ar
    97    68    70   ar
    98   101   100    1
    99   194   192   ar
   100    66    65   ar
   101    88    87    2
   102    70    69   ar
   103   204   205    2
   104    86    87    1
   105    86    85    1
   106   180   181    1
   107    87    93   am
   108   187   188    1
   109   187   186    1
   110   188   189    2
   111   186   182   am
   112    65    64    1
   113    65    67   ar
   114    75    76    1
   115    75    72    1
   116    69    67   ar
   117    64    61    1
   118    85    79   am
   119     5     2    1
   120    74    73    2
   121    93    94    1
   122    23    25   ar
   123    23    21   ar
   124   181   182    1
   125   181   184    1
   126   182   183    2
   127    71    72    1
   128    71    62   am
   129    25    24   ar
   130    80    79    2
   131    72    73    1
   132    79    78    1
   133    94    95    1
   134    94    97    1
   135   184   185    1
   136    21    20   ar
   137    73    77   am
   138    61    62    1
   139    61    60    1
   140    95    96    2
   141    24    22   ar
   142    62    63    2
   143     2     3    1
   144     2     1    1
   145    20    22   ar
   146    20    19    1
   147    77    78    1
   148    99    97    1
   149     3     4    2
   150    78    81    1
   151    97    98    1
   152    19    16    1
   153    48    47    1
   154    45    47   ar
   155    45    43   ar
   156    47    46   ar
   157    43    42   ar
   158    46    44   ar
   159    42    44   ar
   160    42    41    1
   161    41    38    1
   162   197   198    1
   163    83    82   ar
   164   199   198    1
   165   199   200    2
   166    81    82    1
   167    16    15    1
   168    16    17    1
   169   201   198    1
   170    52    51    2
   171    82    84   ar
   172    40    39    2
   173    15     8   am
   174    39    38    1
   175    39    49   am
   176    50    49    1
   177    50    51    1
   178    50    53    1
   179    38    37    1
   180    17    18    2
   181    10    11    1
   182    10     7    1
   183    53    54    1
   184     8     9    2
   185     8     7    1
   186    37    28   am
   187    59    57    1
   188    54    55    1
   189    11    12    1
   190    56    57    2
   191    56    55    1
   192     7     6    1
   193    28    29    2
   194    28    27    1
   195    57    58    1
   196    30    27    1
   197    30    31    1
   198    32    31    1
   199    32    33    1
   200    12    13   ar
   201    12    14   ar
   202    27    26    1
   203    33    34    2
   204    35    34    1
   205    34    36    1
