@<TRIPOS>MOLECULE
tmp/3zlqB00.pdb
 206 198 0 0 0
SMALL
GASTEIGER

@<TRIPOS>ATOM
      1  N         10.7890   12.6330   25.1210 N.3    11  ASP11      -0.1225
      2  CA        11.6620   12.0360   24.1220 C.3    11  ASP11       0.1805
      3  C         11.6040   12.8150   22.8010 C.2    11  ASP11       0.2598
      4  O         10.8970   13.8440   22.6870 O.2    11  ASP11      -0.2718
      5  CB        11.3030   10.5530   23.9490 C.3    11  ASP11       0.1424
      6  CG         9.8170   10.3470   23.7470 C.2    11  ASP11       0.3668
      7  OD1        9.3770   10.5160   22.5880 O.co2  11  ASP11      -0.2456
      8  OD2        9.0730   10.0640   24.7330 O.co2  11  ASP11      -0.2456
      9  N         12.3600   12.3180   21.8180 N.am   12  SER12      -0.1938
     10  CA        12.3920   12.8860   20.4590 C.3    12  SER12       0.2055
     11  C         11.0970   12.6760   19.6600 C.2    12  SER12       0.2644
     12  O         10.8630   13.3770   18.6680 O.2    12  SER12      -0.2714
     13  CB        13.5620   12.2980   19.6640 C.3    12  SER12       0.2130
     14  OG        13.3860   10.9060   19.3870 O.3    12  SER12      -0.2179
     15  N         10.2970   11.6850   20.0770 N.am   13  GLY13      -0.1939
     16  CA         8.9820   11.4120   19.4910 C.3    13  GLY13       0.2014
     17  C          7.8790   12.3000   20.0510 C.2    13  GLY13       0.2639
     18  O          7.1160   12.9060   19.2840 O.2    13  GLY13      -0.2714
     19  N          7.7940   12.3930   21.3770 N.am   14  ARG14      -0.1963
     20  CA         6.7580   13.2090   22.0190 C.3    14  ARG14       0.1729
     21  C          7.1800   14.5950   22.5060 C.2    14  ARG14       0.2617
     22  O          6.3170   15.3440   22.9650 O.2    14  ARG14      -0.2715
     23  CB         6.0550   12.4360   23.1220 C.3    14  ARG14       0.0348
     24  CG         5.2170   11.2580   22.6120 C.3    14  ARG14       0.0492
     25  CD         4.4290   10.6150   23.7500 C.3    14  ARG14       0.2205
     26  NE         4.5000    9.1550   23.7780 N.pl3  14  ARG14      -0.0865
     27  CZ         5.4400    8.4360   24.3970 C.cat  14  ARG14       0.5346
     28  NH1        6.4440    9.0170   25.0570 N.pl3  14  ARG14       0.1354
     29  NH2        5.3800    7.1120   24.3450 N.pl3  14  ARG14       0.1354
     30  N          8.4620   14.9620   22.3210 N.am   15  GLY15      -0.1940
     31  CA         8.9940   16.2940   22.6870 C.3    15  GLY15       0.2014
     32  C          9.6880   16.2720   24.0560 C.2    15  GLY15       0.2638
     33  O          9.4790   15.3490   24.8020 O.2    15  GLY15      -0.2714
     34  N         10.5460   17.2600   24.3420 N.am   16  TYR16      -0.1973
     35  CA        11.2130   17.3710   25.6460 C.3    16  TYR16       0.1639
     36  C         10.6500   18.5590   26.3430 C.2    16  TYR16       0.2290
     37  O         10.4490   19.6240   25.7270 O.2    16  TYR16      -0.2864
     38  CB        12.7240   17.5820   25.5140 C.3    16  TYR16       0.0560
     39  CG        13.3920   16.3630   24.9490 C.ar   16  TYR16      -0.0198
     40  CD1       13.7850   15.3150   25.7750 C.ar   16  TYR16      -0.0009
     41  CD2       13.5740   16.2350   23.5530 C.ar   16  TYR16      -0.0009
     42  CE1       14.4050   14.1880   25.2370 C.ar   16  TYR16       0.0417
     43  CE2       14.2010   15.1260   23.0050 C.ar   16  TYR16       0.0417
     44  CZ        14.5960   14.0890   23.8560 C.ar   16  TYR16       0.1957
     45  OH        15.1910   12.9870   23.2840 O.3    16  TYR16      -0.2866
     46  N          6.8360   22.0910   26.9880 N.3    32  LEU32      -0.1245
     47  CA         7.6850   21.7730   25.8520 C.3    32  LEU32       0.1561
     48  C          8.7450   22.8350   25.5180 C.2    32  LEU32       0.2260
     49  O          8.4240   24.0190   25.3820 O.2    32  LEU32      -0.2867
     50  CB         6.7730   21.6600   24.6480 C.3    32  LEU32       0.0270
     51  CG         7.3630   21.3620   23.3200 C.3    32  LEU32       0.0019
     52  CD1        7.6220   19.8820   23.2820 C.3    32  LEU32       0.0001
     53  CD2        6.3070   21.6680   22.2700 C.3    32  LEU32       0.0001
     54  N         10.7000   24.6680   22.8760 N.3    34  ASP34      -0.1239
     55  CA        10.5790   24.8800   21.4570 C.3    34  ASP34       0.1674
     56  C         11.3750   26.0730   20.9050 C.2    34  ASP34       0.2266
     57  O         10.9860   27.2540   21.0220 O.2    34  ASP34      -0.2867
     58  CB         9.1180   24.9500   21.1270 C.3    34  ASP34       0.1410
     59  CG         8.8650   25.3120   19.7070 C.2    34  ASP34       0.3668
     60  OD1        9.7870   25.2140   18.9010 O.co2  34  ASP34      -0.2456
     61  OD2        7.7610   25.7850   19.4040 O.co2  34  ASP34      -0.2456
     62  N         11.7510   26.8000   17.8550 N.3    36  GLY36      -0.1210
     63  CA        11.1050   27.3230   16.6410 C.3    36  GLY36       0.1956
     64  C          9.8980   28.2540   16.7540 C.2    36  GLY36       0.2612
     65  O          9.1370   28.3760   15.8260 O.2    36  GLY36      -0.2717
     66  N          9.6660   28.8510   17.9080 N.am   37  SER37      -0.1952
     67  CA         8.6460   29.8810   18.0230 C.3    37  SER37       0.1924
     68  C          9.0620   30.7000   19.2280 C.2    37  SER37       0.2314
     69  O         10.1410   30.4910   19.7810 O.2    37  SER37      -0.2863
     70  CB         7.2720   29.2550   18.3120 C.3    37  SER37       0.2116
     71  OG         7.3810   28.4640   19.4940 O.3    37  SER37      -0.2180
     72  N         -2.5810   32.1640   17.3310 N.3    71  VAL71      -0.1245
     73  CA        -1.4930   31.6560   16.5520 C.3    71  VAL71       0.1561
     74  C         -2.0710   30.5000   15.7250 C.2    71  VAL71       0.2260
     75  O         -2.5700   29.5050   16.3150 O.2    71  VAL71      -0.2867
     76  CB        -0.3850   31.0830   17.4540 C.3    71  VAL71       0.0252
     77  CG1        0.5190   30.1370   16.6820 C.3    71  VAL71       0.0019
     78  CG2        0.4320   32.1950   18.0690 C.3    71  VAL71       0.0019
     79  N         -1.2000   27.5930   12.7030 N.3    73  TYR73      -0.1241
     80  CA        -0.1580   26.7730   12.0670 C.3    73  TYR73       0.1605
     81  C         -0.7840   25.6850   11.1400 C.2    73  TYR73       0.2264
     82  O         -1.9870   25.3940   11.2630 O.2    73  TYR73      -0.2867
     83  CB         0.7520   26.1760   13.1410 C.3    73  TYR73       0.0534
     84  CG        -0.0050   25.5890   14.3050 C.ar   73  TYR73      -0.0201
     85  CD1       -0.4200   24.2610   14.2620 C.ar   73  TYR73      -0.0009
     86  CD2       -0.3020   26.3470   15.4490 C.ar   73  TYR73      -0.0009
     87  CE1       -1.1090   23.6800   15.2960 C.ar   73  TYR73       0.0417
     88  CE2       -1.0140   25.7790   16.5110 C.ar   73  TYR73       0.0417
     89  CZ        -1.4180   24.4200   16.4220 C.ar   73  TYR73       0.1957
     90  OH        -2.1260   23.7590   17.4350 O.3    73  TYR73      -0.2866
     91  N         -4.3980   27.8860   18.2870 N.3    78  TRP78      -0.1241
     92  CA        -4.4600   28.0970   19.7560 C.3    78  TRP78       0.1605
     93  C         -4.6820   29.5700   19.9840 C.2    78  TRP78       0.2264
     94  O         -4.0230   30.4180   19.3510 O.2    78  TRP78      -0.2867
     95  CB        -3.2350   27.5450   20.5280 C.3    78  TRP78       0.0550
     96  CG        -1.8360   28.3630   20.5600 C.ar   78  TRP78       0.0003
     97  CD1       -0.6750   27.9180   20.0600 C.ar   78  TRP78       0.0946
     98  CD2       -1.5180   29.6600   21.1760 C.ar   78  TRP78       0.0152
     99  NE1        0.3290   28.8060   20.2720 N.ar   78  TRP78      -0.2442
    100  CE2       -0.1450   29.8940   20.9520 C.ar   78  TRP78       0.0810
    101  CE3       -2.2620   30.6480   21.8300 C.ar   78  TRP78       0.0012
    102  CZ2        0.5350   31.1130   21.3690 C.ar   78  TRP78       0.0191
    103  CZ3       -1.5890   31.8660   22.2580 C.ar   78  TRP78       0.0001
    104  CH2       -0.2070   32.0680   22.0280 C.ar   78  TRP78       0.0015
    105  N         -6.4210   21.0820   17.5710 N.3   109  ASN109     -0.1225
    106  CA        -5.2370   20.2540   17.2930 C.3   109  ASN109      0.1785
    107  C         -3.9560   20.7270   17.9780 C.2   109  ASN109      0.2597
    108  O         -2.8540   20.6800   17.3880 O.2   109  ASN109     -0.2718
    109  CB        -5.0140   20.1450   15.7860 C.3   109  ASN109      0.1169
    110  CG        -6.1570   19.4280   15.0970 C.2   109  ASN109      0.2627
    111  OD1       -6.7590   18.5220   15.6710 O.2   109  ASN109     -0.2716
    112  ND2       -6.4590   19.8180   13.8720 N.am  109  ASN109     -0.0877
    113  N         -4.1040   21.1840   19.2220 N.am  110  PHE110     -0.1976
    114  CA        -2.9400   21.6250   19.9680 C.3   110  PHE110      0.1639
    115  C         -2.5240   20.6010   20.9880 C.2   110  PHE110      0.2290
    116  O         -1.3690   20.1850   21.0370 O.2   110  PHE110     -0.2864
    117  CB        -3.1670   22.9920   20.6410 C.3   110  PHE110      0.0560
    118  CG        -1.8850   23.6600   21.1100 C.ar  110  PHE110     -0.0200
    119  CD1       -1.0130   24.2680   20.2000 C.ar  110  PHE110     -0.0042
    120  CD2       -1.5540   23.6870   22.4600 C.ar  110  PHE110     -0.0042
    121  CE1        0.1550   24.8840   20.6330 C.ar  110  PHE110     -0.0003
    122  CE2       -0.3670   24.2920   22.8900 C.ar  110  PHE110     -0.0003
    123  CZ         0.4790   24.9010   21.9730 C.ar  110  PHE110     -0.0000
    124  N         -2.8080   17.0100   21.9230 N.3   112  LEU112     -0.1245
    125  CA        -3.0840   15.7240   21.2850 C.3   112  LEU112      0.1561
    126  C         -2.9810   14.5700   22.3030 C.2   112  LEU112      0.2260
    127  O         -2.3680   14.7310   23.3860 O.2   112  LEU112     -0.2867
    128  CB        -2.1410   15.5540   20.0650 C.3   112  LEU112      0.0270
    129  CG        -2.0500   16.7960   19.1770 C.3   112  LEU112      0.0019
    130  CD1       -1.0230   16.6630   18.0690 C.3   112  LEU112      0.0001
    131  CD2       -3.4200   17.1260   18.6090 C.3   112  LEU112      0.0001
    132  N          0.0760   13.0120   25.2990 N.3   115  ILE115     -0.1245
    133  CA         1.0870   14.0750   25.3450 C.3   115  ILE115      0.1561
    134  C          1.2640   14.5720   26.7940 C.2   115  ILE115      0.2260
    135  O          0.2870   14.9080   27.4530 O.2   115  ILE115     -0.2867
    136  CB         0.7070   15.2850   24.4530 C.3   115  ILE115      0.0252
    137  CG1        0.7380   14.9280   22.9510 C.3   115  ILE115      0.0019
    138  CG2        1.6580   16.4400   24.7270 C.3   115  ILE115      0.0019
    139  CD1        1.8530   13.9750   22.5700 C.3   115  ILE115      0.0001
    140  N          2.9840   17.1630   28.0600 N.3   117  TRP117     -0.1241
    141  CA         3.1160   18.5970   28.2720 C.3   117  TRP117      0.1605
    142  C          1.7810   19.3310   28.1280 C.2   117  TRP117      0.2264
    143  O          0.9500   18.9610   27.3140 O.2   117  TRP117     -0.2867
    144  CB         4.2370   19.2110   27.4050 C.3   117  TRP117      0.0550
    145  CG         4.1700   18.9530   25.9320 C.ar  117  TRP117      0.0003
    146  CD1        4.9390   18.0690   25.2280 C.ar  117  TRP117      0.0946
    147  CD2        3.3170   19.6120   24.9620 C.ar  117  TRP117      0.0152
    148  NE1        4.6300   18.1460   23.8780 N.ar  117  TRP117     -0.2442
    149  CE2        3.6410   19.0780   23.6890 C.ar  117  TRP117      0.0810
    150  CE3        2.3120   20.5820   25.0500 C.ar  117  TRP117      0.0012
    151  CZ2        2.9720   19.4610   22.5160 C.ar  117  TRP117      0.0191
    152  CZ3        1.6540   20.9730   23.8800 C.ar  117  TRP117      0.0001
    153  CH2        1.9810   20.4020   22.6300 C.ar  117  TRP117      0.0015
    154  N          3.9640   25.4390   26.1680 N.3   120  ILE120     -0.1245
    155  CA         5.0840   25.5480   25.2220 C.3   120  ILE120      0.1561
    156  C          5.9390   26.7680   25.5090 C.2   120  ILE120      0.2260
    157  O          5.4040   27.8540   25.7290 O.2   120  ILE120     -0.2867
    158  CB         4.5430   25.7090   23.7710 C.3   120  ILE120      0.0252
    159  CG1        5.6890   25.6370   22.7470 C.3   120  ILE120      0.0019
    160  CG2        3.7710   27.0250   23.6730 C.3   120  ILE120      0.0019
    161  CD1        5.2590   25.1600   21.3600 C.3   120  ILE120      0.0001
    162  N         19.4760   16.3470   24.1650 N.3   156  MET156     -0.1245
    163  CA        18.3780   15.4700   23.9850 C.3   156  MET156      0.1570
    164  C         18.9640   14.0820   24.1020 C.2   156  MET156      0.2261
    165  O         19.9510   13.7510   23.4070 O.2   156  MET156     -0.2867
    166  CB        17.8370   15.6560   22.5660 C.3   156  MET156      0.0387
    167  CG        17.3670   17.0830   22.2380 C.3   156  MET156      0.0595
    168  SD        16.3210   17.1470   20.7660 S.3   156  MET156     -0.1393
    169  CE        15.6920   18.8200   20.9530 C.3   156  MET156      0.0692
    170  N         15.2440   23.4480   15.0960 N.3   218  ASP218     -0.1225
    171  CA        13.9490   23.5740   15.8000 C.3   218  ASP218      0.1805
    172  C         13.6850   22.4570   16.7270 C.2   218  ASP218      0.2598
    173  O         13.5260   21.3220   16.2790 O.2   218  ASP218     -0.2718
    174  CB        12.7510   23.7170   14.8460 C.3   218  ASP218      0.1424
    175  CG        11.4070   23.8190   15.6100 C.2   218  ASP218      0.3668
    176  OD1       11.4250   24.0700   16.8150 O.co2 218  ASP218     -0.2456
    177  OD2       10.3280   23.6640   15.0080 O.co2 218  ASP218     -0.2456
    178  N         13.6190   22.7330   18.0140 N.am  219  SER219     -0.1938
    179  CA        13.4400   21.6150   18.9610 C.3   219  SER219      0.2055
    180  C         11.9640   21.1470   18.9760 C.2   219  SER219      0.2644
    181  O         11.6260   20.0490   19.4700 O.2   219  SER219     -0.2714
    182  CB        13.9100   22.0220   20.3610 C.3   219  SER219      0.2130
    183  OG        13.0300   23.0010   20.8780 O.3   219  SER219     -0.2179
    184  N         11.0840   21.9910   18.4480 N.am  220  GLY220     -0.1939
    185  CA         9.6520   21.7650   18.4620 C.3   220  GLY220      0.2014
    186  C          9.1250   21.0860   17.1970 C.2   220  GLY220      0.2640
    187  O          7.9010   21.0880   16.9910 O.2   220  GLY220     -0.2714
    188  N         10.0570   20.4950   16.4120 N.am  221  THR221     -0.1936
    189  CA         9.8450   19.6660   15.1900 C.3   221  THR221      0.2028
    190  C         10.5520   18.2840   15.3540 C.2   221  THR221      0.2642
    191  O         11.7850   18.2310   15.5290 O.2   221  THR221     -0.2714
    192  CB        10.3520   20.3800   13.8960 C.3   221  THR221      0.1808
    193  OG1        9.5810   21.5570   13.6320 O.3   221  THR221     -0.2208
    194  CG2       10.2760   19.4810   12.6360 C.3   221  THR221      0.0379
    195  N          9.7670   17.1850   15.3440 N.am  222  THR222     -0.1950
    196  CA        10.2600   15.8080   15.4400 C.3   222  THR222      0.1897
    197  C         11.3730   15.4410   14.4250 C.2   222  THR222      0.2313
    198  O         12.4140   14.9560   14.8110 O.2   222  THR222     -0.2863
    199  CB         9.1000   14.7770   15.2620 C.3   222  THR222      0.1794
    200  OG1        8.0640   14.9960   16.2390 O.3   222  THR222     -0.2208
    201  CG2        9.6280   13.3660   15.4610 C.3   222  THR222      0.0378
    202  N         14.4310   17.0510   15.6800 N.3   320  ALA320     -0.1245
    203  CA        14.9470   16.1260   16.6570 C.3   320  ALA320      0.1562
    204  C         15.6890   14.9780   16.0120 C.2   320  ALA320      0.2260
    205  O         16.5840   14.4580   16.5980 O.2   320  ALA320     -0.2867
    206  CB        13.8430   15.6260   17.5980 C.3   320  ALA320      0.0290
@<TRIPOS>BOND
     1    81    82    2
     2    81    80    1
     3    80    79    1
     4    80    83    1
     5   194   192    1
     6    83    84    1
     7   193   192    1
     8   112   110   am
     9   192   189    1
    10    85    84   ar
    11    85    87   ar
    12    84    86   ar
    13   197   198    2
    14   197   196    1
    15   174   175    1
    16   174   171    1
    17   177   175   ar
    18   170   171    1
    19   110   111    2
    20   110   109    1
    21   189   190    1
    22   189   188    1
    23   199   196    1
    24   199   201    1
    25   199   200    1
    26    87    89   ar
    27   195   190   am
    28   195   196    1
    29   190   191    2
    30    86    88   ar
    31   175   176   ar
    32   202   203    1
    33    74    75    2
    34    74    73    1
    35   109   106    1
    36   171   172    1
    37    65    64    2
    38   204   205    2
    39   204   203    1
    40   173   172    2
    41   188   186   am
    42    89    88   ar
    43    89    90    1
    44    73    72    1
    45    73    76    1
    46    63    64    1
    47    63    62    1
    48   203   206    1
    49    77    76    1
    50   172   178   am
    51    64    66   am
    52   187   186    2
    53   186   185    1
    54   106   105    1
    55   106   107    1
    56   108   107    2
    57    76    78    1
    58    66    67    1
    59   107   113   am
    60   178   179    1
    61    67    70    1
    62    67    68    1
    63   130   129    1
    64    91    92    1
    65    70    71    1
    66   184   185    1
    67   184   180   am
    68   131   129    1
    69    12    11    2
    70    60    59   ar
    71   179   180    1
    72   179   182    1
    73   180   181    2
    74   129   128    1
    75   113   114    1
    76    68    69    2
    77    18    17    2
    78    94    93    2
    79    14    13    1
    80    61    59   ar
    81    16    17    1
    82    16    15    1
    83    11    15   am
    84    11    10    1
    85    13    10    1
    86    59    58    1
    87    92    93    1
    88    92    95    1
    89   114   117    1
    90   114   115    1
    91    17    19   am
    92    97    99   ar
    93    97    96   ar
    94   128   125    1
    95   119   121   ar
    96   119   118   ar
    97    99   100   ar
    98   182   183    1
    99    10     9    1
   100    95    96    1
   101    96    98   ar
   102   121   123   ar
   103   117   118    1
   104   168   169    1
   105   168   167    1
   106    56    57    2
   107    56    55    1
   108   100    98   ar
   109   100   102   ar
   110   115   116    2
   111   118   120   ar
   112    58    55    1
   113    98   101   ar
   114   125   124    1
   115   125   126    1
   116   161   159    1
   117   102   104   ar
   118    19    20    1
   119    55    54    1
   120     9     3   am
   121   101   103   ar
   122   123   122   ar
   123    20    21    1
   124    20    23    1
   125   104   103   ar
   126   167   166    1
   127    53    51    1
   128   126   127    2
   129    30    21   am
   130    30    31    1
   131   120   122   ar
   132    21    22    2
   133   151   153   ar
   134   151   149   ar
   135   166   163    1
   136   139   137    1
   137     7     6   ar
   138    24    23    1
   139    24    25    1
   140   153   152   ar
   141    31    32    1
   142     4     3    2
   143   159   158    1
   144     3     2    1
   145   137   136    1
   146    43    41   ar
   147    43    44   ar
   148    52    51    1
   149    45    44    1
   150    51    50    1
   151   165   164    2
   152    41    39   ar
   153   160   158    1
   154   149   148   ar
   155   149   147   ar
   156     6     5    1
   157     6     8   ar
   158    25    26    1
   159   158   155    1
   160    26    27    2
   161    44    42   ar
   162   148   146   ar
   163   152   150   ar
   164     5     2    1
   165   163   164    1
   166   163   162    1
   167    32    34   am
   168    32    33    2
   169     2     1    1
   170    34    35    1
   171    29    27    1
   172    27    28    1
   173   136   138    1
   174   136   133    1
   175    50    47    1
   176    39    38    1
   177    39    40   ar
   178   147   150   ar
   179   147   145   ar
   180   155   156    1
   181   155   154    1
   182   146   145   ar
   183    42    40   ar
   184   132   133    1
   185   133   134    1
   186    49    48    2
   187   156   157    2
   188    38    35    1
   189    48    47    1
   190    35    36    1
   191    37    36    2
   192    47    46    1
   193   145   144    1
   194   134   135    2
   195   143   142    2
   196   144   141    1
   197   140   141    1
   198   142   141    1
