@<TRIPOS>MOLECULE
tmp/3zlrA00.pdb
 193 186 0 0 0
SMALL
GASTEIGER

@<TRIPOS>ATOM
      1  N         -8.0210   -4.6570  -47.0380 N.3    42  ALA42      -0.1245
      2  CA        -8.7410   -5.9100  -47.2460 C.3    42  ALA42       0.1562
      3  C        -10.2580   -5.6850  -47.2190 C.2    42  ALA42       0.2260
      4  O        -10.9970   -6.2350  -48.0520 O.2    42  ALA42      -0.2867
      5  CB        -8.3420   -6.9250  -46.1950 C.3    42  ALA42       0.0290
      6  N        -11.4640   -4.0930  -50.3970 N.3    45  GLU45      -0.1231
      7  CA       -11.4850   -5.0510  -51.4960 C.3    45  GLU45       0.1699
      8  C        -12.6380   -6.0440  -51.3450 C.2    45  GLU45       0.2592
      9  O        -13.3040   -6.3900  -52.3310 O.2    45  GLU45      -0.2718
     10  CB       -10.1370   -5.7760  -51.6160 C.3    45  GLU45       0.0402
     11  CG       -10.1190   -6.9370  -52.6160 C.3    45  GLU45       0.1161
     12  CD       -10.0860   -6.4960  -54.0800 C.2    45  GLU45       0.3649
     13  OE1      -10.2470   -5.2790  -54.3700 O.co2  45  GLU45      -0.2457
     14  OE2       -9.8950   -7.3840  -54.9530 O.co2  45  GLU45      -0.2457
     15  N        -12.8870   -6.4970  -50.1200 N.am   46  PHE46      -0.1976
     16  CA       -14.0620   -7.3250  -49.8830 C.3    46  PHE46       0.1639
     17  C        -15.3100   -6.6160  -50.3990 C.2    46  PHE46       0.2290
     18  O        -16.1290   -7.2080  -51.1070 O.2    46  PHE46      -0.2864
     19  CB       -14.2500   -7.6430  -48.3990 C.3    46  PHE46       0.0560
     20  CG       -15.4520   -8.5020  -48.1300 C.ar   46  PHE46      -0.0200
     21  CD1      -15.4290   -9.8560  -48.4430 C.ar   46  PHE46      -0.0042
     22  CD2      -16.6180   -7.9500  -47.6200 C.ar   46  PHE46      -0.0042
     23  CE1      -16.5380  -10.6640  -48.2110 C.ar   46  PHE46      -0.0003
     24  CE2      -17.7300   -8.7460  -47.3870 C.ar   46  PHE46      -0.0003
     25  CZ       -17.6920  -10.1090  -47.6910 C.ar   46  PHE46      -0.0000
     26  N        -16.2000   -8.8770  -53.5510 N.3    50  TYR50      -0.1227
     27  CA       -16.7260  -10.1680  -53.0930 C.3    50  TYR50       0.1736
     28  C        -18.0800  -10.1080  -52.4010 C.2    50  TYR50       0.2595
     29  O        -18.8100  -11.1010  -52.3750 O.2    50  TYR50      -0.2718
     30  CB       -15.7170  -10.8830  -52.1750 C.3    50  TYR50       0.0548
     31  CG       -14.3560  -11.1270  -52.8030 C.ar   50  TYR50      -0.0200
     32  CD1      -14.1200  -12.2500  -53.5860 C.ar   50  TYR50      -0.0009
     33  CD2      -13.3050  -10.2430  -52.5950 C.ar   50  TYR50      -0.0009
     34  CE1      -12.8650  -12.4800  -54.1650 C.ar   50  TYR50       0.0417
     35  CE2      -12.0550  -10.4600  -53.1680 C.ar   50  TYR50       0.0417
     36  CZ       -11.8410  -11.5840  -53.9460 C.ar   50  TYR50       0.1957
     37  OH       -10.5980  -11.8050  -54.5140 O.3    50  TYR50      -0.2866
     38  N        -18.4140   -8.9570  -51.8320 N.am   51  ARG51      -0.1980
     39  CA       -19.5600   -8.8770  -50.9300 C.3    51  ARG51       0.1597
     40  C        -20.8990   -9.1940  -51.5870 C.2    51  ARG51       0.2287
     41  O        -21.7140   -9.9260  -51.0080 O.2    51  ARG51      -0.2864
     42  CB       -19.6210   -7.5090  -50.2500 C.3    51  ARG51       0.0334
     43  CG       -20.7820   -7.3710  -49.2710 C.3    51  ARG51       0.0492
     44  CD       -20.5580   -6.2000  -48.3270 C.3    51  ARG51       0.2205
     45  NE       -20.7120   -4.8970  -48.9680 N.pl3  51  ARG51      -0.0865
     46  CZ       -20.6260   -3.7330  -48.3180 C.cat  51  ARG51       0.5346
     47  NH1      -20.3890   -3.7140  -47.0120 N.pl3  51  ARG51       0.1354
     48  NH2      -20.7800   -2.5840  -48.9680 N.pl3  51  ARG51       0.1354
     49  N        -22.5350  -12.7720  -51.8170 N.3    54  PHE54      -0.1227
     50  CA       -23.1100  -13.4000  -50.6290 C.3    54  PHE54       0.1736
     51  C        -24.4710  -12.8010  -50.2850 C.2    54  PHE54       0.2596
     52  O        -24.7630  -11.6640  -50.6540 O.2    54  PHE54      -0.2718
     53  CB       -22.1890  -13.1860  -49.4280 C.3    54  PHE54       0.0547
     54  CG       -20.8320  -13.7920  -49.5940 C.ar   54  PHE54      -0.0202
     55  CD1      -20.6190  -15.1270  -49.2900 C.ar   54  PHE54      -0.0042
     56  CD2      -19.7650  -13.0310  -50.0580 C.ar   54  PHE54      -0.0042
     57  CE1      -19.3620  -15.6930  -49.4420 C.ar   54  PHE54      -0.0003
     58  CE2      -18.5100  -13.5960  -50.2190 C.ar   54  PHE54      -0.0003
     59  CZ       -18.3070  -14.9220  -49.9180 C.ar   54  PHE54      -0.0000
     60  N        -25.2970  -13.5560  -49.5630 N.am   55  SER55      -0.1938
     61  CA       -26.5360  -12.9940  -49.0220 C.3    55  SER55       0.2055
     62  C        -26.1770  -11.8510  -48.0700 C.2    55  SER55       0.2643
     63  O        -25.1230  -11.8760  -47.4360 O.2    55  SER55      -0.2714
     64  CB       -27.3660  -14.0610  -48.3000 C.3    55  SER55       0.2130
     65  OG       -26.7310  -14.4830  -47.1070 O.3    55  SER55      -0.2179
     66  N        -27.0470  -10.8470  -47.9900 N.am   56  ASP56      -0.1957
     67  CA       -26.8020   -9.6480  -47.1860 C.3    56  ASP56       0.1840
     68  C        -27.0980   -9.8770  -45.6860 C.2    56  ASP56       0.2622
     69  O        -28.2500   -9.8390  -45.2620 O.2    56  ASP56      -0.2715
     70  CB       -27.6680   -8.4970  -47.7270 C.3    56  ASP56       0.1450
     71  CG       -27.3190   -7.1480  -47.1080 C.2    56  ASP56       0.3671
     72  OD1      -26.5630   -7.1050  -46.1120 O.co2  56  ASP56      -0.2456
     73  OD2      -27.8160   -6.1140  -47.6080 O.co2  56  ASP56      -0.2456
     74  N        -26.0580  -10.0830  -44.8800 N.am   57  LEU57      -0.1963
     75  CA       -26.2540  -10.3060  -43.4460 C.3    57  LEU57       0.1728
     76  C        -26.9220   -9.1460  -42.6920 C.2    57  LEU57       0.2616
     77  O        -27.5050   -9.3670  -41.6270 O.2    57  LEU57      -0.2715
     78  CB       -24.9260  -10.6360  -42.7620 C.3    57  LEU57       0.0311
     79  CG       -24.3770  -12.0500  -42.8620 C.3    57  LEU57       0.0022
     80  CD1      -23.0740  -12.1080  -42.0970 C.3    57  LEU57       0.0001
     81  CD2      -25.3770  -13.0700  -42.3100 C.3    57  LEU57       0.0001
     82  N        -26.8270   -7.9180  -43.2100 N.am   58  THR58      -0.1951
     83  CA       -27.4850   -6.7890  -42.5380 C.3    58  THR58       0.1897
     84  C        -29.0030   -6.9620  -42.5710 C.2    58  THR58       0.2313
     85  O        -29.7120   -6.4870  -41.6800 O.2    58  THR58      -0.2863
     86  CB       -27.0840   -5.4080  -43.1190 C.3    58  THR58       0.1794
     87  OG1      -27.6490   -5.2380  -44.4270 O.3    58  THR58      -0.2208
     88  CG2      -25.5930   -5.2820  -43.1940 C.3    58  THR58       0.0378
     89  N        -22.9920  -16.9510  -38.5740 N.3    78  GLU78      -0.1231
     90  CA       -23.2760  -17.4710  -39.9120 C.3    78  GLU78       0.1699
     91  C        -22.0460  -17.3160  -40.8070 C.2    78  GLU78       0.2592
     92  O        -21.7760  -18.1620  -41.6510 O.2    78  GLU78      -0.2718
     93  CB       -24.4920  -16.7760  -40.5440 C.3    78  GLU78       0.0402
     94  CG       -25.7950  -16.9400  -39.7570 C.3    78  GLU78       0.1161
     95  CD       -26.9610  -16.1730  -40.3730 C.2    78  GLU78       0.3649
     96  OE1      -26.8910  -15.8380  -41.5780 O.co2  78  GLU78      -0.2457
     97  OE2      -27.9510  -15.9100  -39.6520 O.co2  78  GLU78      -0.2457
     98  N        -21.2940  -16.2380  -40.6070 N.am   79  LEU79      -0.1980
     99  CA       -20.0240  -16.0570  -41.3200 C.3    79  LEU79       0.1596
    100  C        -19.0710  -17.2330  -41.1270 C.2    79  LEU79       0.2287
    101  O        -18.3690  -17.6380  -42.0550 O.2    79  LEU79      -0.2864
    102  CB       -19.3220  -14.7910  -40.8460 C.3    79  LEU79       0.0297
    103  CG       -19.8850  -13.4430  -41.2930 C.3    79  LEU79       0.0022
    104  CD1      -19.0360  -12.3410  -40.6990 C.3    79  LEU79       0.0001
    105  CD2      -19.8950  -13.3530  -42.8270 C.3    79  LEU79       0.0001
    106  N        -19.8100  -20.4240  -40.0180 N.3    81  ARG81      -0.1231
    107  CA       -20.4410  -21.7460  -39.9630 C.3    81  ARG81       0.1694
    108  C        -19.5700  -22.8520  -40.5650 C.2    81  ARG81       0.2592
    109  O        -19.6580  -24.0020  -40.1470 O.2    81  ARG81      -0.2718
    110  CB       -21.8120  -21.7210  -40.6430 C.3    81  ARG81       0.0321
    111  CG       -21.7740  -21.3440  -42.1090 C.3    81  ARG81       0.0489
    112  CD       -23.1410  -20.8420  -42.5560 C.3    81  ARG81       0.2205
    113  NE       -23.1540  -20.4150  -43.9500 N.pl3  81  ARG81      -0.0865
    114  CZ       -24.1820  -19.8000  -44.5280 C.cat  81  ARG81       0.5346
    115  NH1      -25.2780  -19.5310  -43.8280 N.pl3  81  ARG81       0.1354
    116  NH2      -24.1160  -19.4470  -45.8040 N.pl3  81  ARG81       0.1354
    117  N        -18.7300  -22.5080  -41.5410 N.am   82  ASP82      -0.1974
    118  CA       -17.8000  -23.4840  -42.1220 C.3    82  ASP82       0.1709
    119  C        -16.3760  -23.2920  -41.5970 C.2    82  ASP82       0.2293
    120  O        -15.4100  -23.7720  -42.2030 O.2    82  ASP82      -0.2864
    121  CB       -17.8020  -23.3990  -43.6560 C.3    82  ASP82       0.1436
    122  CG       -19.1460  -23.7580  -44.2610 C.2    82  ASP82       0.3671
    123  OD1      -19.8510  -24.6150  -43.6820 O.co2  82  ASP82      -0.2456
    124  OD2      -19.4990  -23.1830  -45.3180 O.co2  82  ASP82      -0.2456
    125  N        -11.5050  -18.3600  -41.2960 N.3    85  ASN85      -0.1240
    126  CA       -10.3380  -18.0660  -42.1180 C.3    85  ASN85       0.1653
    127  C        -10.2060  -16.5550  -42.1890 C.2    85  ASN85       0.2266
    128  O        -11.0880  -15.8390  -41.7030 O.2    85  ASN85      -0.2867
    129  CB       -10.3990  -18.7360  -43.4960 C.3    85  ASN85       0.1155
    130  CG       -11.5610  -18.2560  -44.3510 C.2    85  ASN85       0.2627
    131  OD1      -11.9620  -17.0830  -44.3000 O.2    85  ASN85      -0.2716
    132  ND2      -12.1020  -19.1690  -45.1670 N.am   85  ASN85      -0.0877
    133  N        -10.3300  -14.3900  -44.6330 N.3    87  GLY87      -0.1210
    134  CA       -11.3310  -13.7080  -45.4500 C.3    87  GLY87       0.1956
    135  C        -12.6280  -13.4860  -44.6880 C.2    87  GLY87       0.2611
    136  O        -13.2770  -12.4250  -44.8200 O.2    87  GLY87      -0.2717
    137  N        -13.0020  -14.4740  -43.8740 N.am   88  ARG88      -0.1979
    138  CA       -14.2390  -14.3960  -43.0980 C.3    88  ARG88       0.1597
    139  C        -14.1270  -13.4050  -41.9540 C.2    88  ARG88       0.2287
    140  O        -15.1020  -12.7300  -41.6050 O.2    88  ARG88      -0.2864
    141  CB       -14.6670  -15.7850  -42.6080 C.3    88  ARG88       0.0334
    142  CG       -15.2060  -16.6670  -43.7480 C.3    88  ARG88       0.0492
    143  CD       -15.2760  -18.1410  -43.3840 C.3    88  ARG88       0.2205
    144  NE       -15.4010  -18.9580  -44.5890 N.pl3  88  ARG88      -0.0865
    145  CZ       -15.3580  -20.2890  -44.6120 C.cat  88  ARG88       0.5346
    146  NH1      -15.2020  -20.9850  -43.4890 N.pl3  88  ARG88       0.1354
    147  NH2      -15.4760  -20.9210  -45.7670 N.pl3  88  ARG88       0.1354
    148  N        -12.2410  -10.7490  -42.2760 N.3    90  VAL90      -0.1231
    149  CA       -12.3720   -9.5030  -43.0400 C.3    90  VAL90       0.1692
    150  C        -13.8450   -9.1490  -43.2620 C.2    90  VAL90       0.2591
    151  O        -14.2500   -8.0020  -43.0620 O.2    90  VAL90      -0.2718
    152  CB       -11.6310   -9.5780  -44.4000 C.3    90  VAL90       0.0266
    153  CG1      -11.9220   -8.3220  -45.2540 C.3    90  VAL90       0.0020
    154  CG2      -10.1270   -9.7200  -44.1670 C.3    90  VAL90       0.0020
    155  N        -14.6500  -10.1330  -43.6640 N.am   91  ALA91      -0.1980
    156  CA       -16.0830   -9.9030  -43.8700 C.3    91  ALA91       0.1597
    157  C        -16.7630   -9.4640  -42.5670 C.2    91  ALA91       0.2287
    158  O        -17.6980   -8.6550  -42.5720 O.2    91  ALA91      -0.2864
    159  CB       -16.7560  -11.1620  -44.4380 C.3    91  ALA91       0.0319
    160  N        -16.0110   -5.8290  -42.0810 N.3    94  SER94      -0.1202
    161  CA       -16.8220   -5.1060  -43.0640 C.3    94  SER94       0.2020
    162  C        -18.2940   -5.0370  -42.6630 C.2    94  SER94       0.2618
    163  O        -18.9670   -4.0140  -42.8600 O.2    94  SER94      -0.2717
    164  CB       -16.6890   -5.7670  -44.4340 C.3    94  SER94       0.2103
    165  OG       -17.5810   -5.1750  -45.3590 O.3    94  SER94      -0.2182
    166  N        -18.7900   -6.1400  -42.1090 N.am   95  PHE95      -0.1975
    167  CA       -20.1550   -6.2210  -41.6150 C.3    95  PHE95       0.1639
    168  C        -20.3980   -5.2040  -40.5080 C.2    95  PHE95       0.2290
    169  O        -21.4110   -4.4840  -40.5160 O.2    95  PHE95      -0.2864
    170  CB       -20.4140   -7.6290  -41.0880 C.3    95  PHE95       0.0560
    171  CG       -21.7970   -7.8340  -40.5490 C.ar   95  PHE95      -0.0200
    172  CD1      -22.9130   -7.5810  -41.3380 C.ar   95  PHE95      -0.0042
    173  CD2      -21.9840   -8.3200  -39.2580 C.ar   95  PHE95      -0.0042
    174  CE1      -24.1980   -7.7910  -40.8400 C.ar   95  PHE95      -0.0003
    175  CE2      -23.2670   -8.5410  -38.7520 C.ar   95  PHE95      -0.0003
    176  CZ       -24.3760   -8.2720  -39.5430 C.ar   95  PHE95      -0.0000
    177  N        -20.5990   -1.8240  -41.9820 N.3    98  ALA98      -0.1245
    178  CA       -21.8410   -1.5900  -42.7020 C.3    98  ALA98       0.1562
    179  C        -22.9940   -1.3280  -41.7300 C.2    98  ALA98       0.2260
    180  O        -23.8630   -0.4930  -42.0030 O.2    98  ALA98      -0.2867
    181  CB       -22.1660   -2.7630  -43.6290 C.3    98  ALA98       0.0290
    182  N         -2.3380  -10.4110  -46.5420 N.3   144  TYR144     -0.1241
    183  CA        -3.3240   -9.4490  -47.0390 C.3   144  TYR144      0.1605
    184  C         -2.7890   -8.0350  -47.2520 C.2   144  TYR144      0.2264
    185  O         -3.4640   -7.2020  -47.8550 O.2   144  TYR144     -0.2867
    186  CB        -4.5500   -9.4190  -46.1100 C.3   144  TYR144      0.0534
    187  CG        -5.4660  -10.6030  -46.3250 C.ar  144  TYR144     -0.0201
    188  CD1       -5.1370  -11.8530  -45.8170 C.ar  144  TYR144     -0.0009
    189  CD2       -6.6420  -10.4810  -47.0670 C.ar  144  TYR144     -0.0009
    190  CE1       -5.9550  -12.9480  -46.0230 C.ar  144  TYR144      0.0417
    191  CE2       -7.4720  -11.5810  -47.2810 C.ar  144  TYR144      0.0417
    192  CZ        -7.1180  -12.8060  -46.7500 C.ar  144  TYR144      0.1957
    193  OH        -7.9130  -13.9070  -46.9510 O.3   144  TYR144     -0.2866
@<TRIPOS>BOND
     1    14    12   ar
     2    37    36    1
     3    13    12   ar
     4    34    36   ar
     5    34    32   ar
     6    12    11    1
     7    36    35   ar
     8    32    31   ar
     9    26    27    1
    10    35    33   ar
    11    27    28    1
    12    27    30    1
    13    31    33   ar
    14    31    30    1
    15    11    10    1
    16    28    29    2
    17    28    38   am
    18     9     8    2
    19    38    39    1
    20    49    50    1
    21    10     7    1
    22    40    41    2
    23    40    39    1
    24     7     8    1
    25     7     6    1
    26     8    15   am
    27    18    17    2
    28    39    42    1
    29    52    51    2
    30    50    51    1
    31    50    53    1
    32    17    16    1
    33    51    60   am
    34    42    43    1
    35    58    56   ar
    36    58    59   ar
    37    15    16    1
    38    56    54   ar
    39    59    57   ar
    40    16    19    1
    41    54    53    1
    42    54    55   ar
    43    60    61    1
    44    57    55   ar
    45    43    44    1
    46    61    64    1
    47    61    62    1
    48    45    44    1
    49    45    46    2
    50    48    46    1
    51    21    23   ar
    52    21    20   ar
    53    19    20    1
    54    46    47    1
    55    64    65    1
    56    23    25   ar
    57    20    22   ar
    58    62    66   am
    59    62    63    2
    60     4     3    2
    61    66    67    1
    62   185   184    2
    63    70    67    1
    64    70    71    1
    65    25    24   ar
    66    22    24   ar
    67    73    71   ar
    68   191   189   ar
    69   191   192   ar
    70   184   183    1
    71     2     3    1
    72     2     1    1
    73     2     5    1
    74    67    68    1
    75    71    72   ar
    76   189   187   ar
    77   183   182    1
    78   183   186    1
    79   193   192    1
    80   192   190   ar
    81   187   186    1
    82   187   188   ar
    83   190   188   ar
    84   116   114    1
    85   147   145    1
    86    68    69    2
    87    68    74   am
    88   134   135    1
    89   134   133    1
    90   165   164    1
    91   124   122   ar
    92   153   152    1
    93   132   130   am
    94    74    75    1
    95   136   135    2
    96   135   137   am
    97   145   144    2
    98   145   146    1
    99   144   143    1
   100   114   113    2
   101   114   115    1
   102   159   156    1
   103   164   161    1
   104    87    86    1
   105   152   154    1
   106   152   149    1
   107   130   131    2
   108   130   129    1
   109   122   123   ar
   110   122   121    1
   111   113   112    1
   112   137   138    1
   113   156   155    1
   114   156   157    1
   115   142   143    1
   116   142   141    1
   117   155   150   am
   118   121   118    1
   119   181   178    1
   120   129   126    1
   121    75    78    1
   122    75    76    1
   123   150   151    2
   124   150   149    1
   125    82    76   am
   126    82    83    1
   127    88    86    1
   128    86    83    1
   129   138   141    1
   130   138   139    1
   131   161   162    1
   132   161   160    1
   133   149   148    1
   134    79    78    1
   135    79    81    1
   136    79    80    1
   137   163   162    2
   138   105   103    1
   139   178   177    1
   140   178   179    1
   141    76    77    2
   142   162   166   am
   143   158   157    2
   144    84    83    1
   145    84    85    2
   146   112   111    1
   147   120   119    2
   148   127   126    1
   149   127   128    2
   150   118   119    1
   151   118   117    1
   152   126   125    1
   153   166   167    1
   154   111   110    1
   155   101   100    2
   156   180   179    2
   157   139   140    2
   158    92    91    2
   159   167   170    1
   160   167   168    1
   161    96    95   ar
   162   117   108   am
   163   172   174   ar
   164   172   171   ar
   165    99   100    1
   166    99   102    1
   167    99    98    1
   168   103   102    1
   169   103   104    1
   170   170   171    1
   171   174   176   ar
   172    91    98   am
   173    91    90    1
   174   110   107    1
   175   108   109    2
   176   108   107    1
   177   171   173   ar
   178    93    90    1
   179    93    94    1
   180   169   168    2
   181    95    94    1
   182    95    97   ar
   183   106   107    1
   184    90    89    1
   185   176   175   ar
   186   173   175   ar
