@<TRIPOS>MOLECULE
tmp/3zlsA00.pdb
 118 108 0 0 0
SMALL
GASTEIGER

@<TRIPOS>ATOM
      1  N        -18.7480   23.0340    2.1950 N.3    36  LEU36      -0.1245
      2  CA       -18.8830   23.1470    0.7330 C.3    36  LEU36       0.1561
      3  C        -17.6140   22.9620   -0.1160 C.2    36  LEU36       0.2260
      4  O        -17.7390   22.5560   -1.2680 O.2    36  LEU36      -0.2867
      5  CB       -19.5920   24.4590    0.3250 C.3    36  LEU36       0.0270
      6  CG       -20.9530   24.7860    0.9470 C.3    36  LEU36       0.0019
      7  CD1      -21.3940   26.1950    0.5900 C.3    36  LEU36       0.0001
      8  CD2      -22.0140   23.7840    0.5540 C.3    36  LEU36       0.0001
      9  N        -15.1480   26.6980    2.9190 N.3    44  VAL44      -0.1245
     10  CA       -16.4710   27.2590    2.6720 C.3    44  VAL44       0.1561
     11  C        -17.5230   26.4130    3.3720 C.2    44  VAL44       0.2260
     12  O        -17.5180   25.1890    3.2380 O.2    44  VAL44      -0.2867
     13  CB       -16.7810   27.5040    1.1600 C.3    44  VAL44       0.0252
     14  CG1      -18.0710   28.3000    0.9800 C.3    44  VAL44       0.0019
     15  CG2      -15.6200   28.2120    0.4600 C.3    44  VAL44       0.0019
     16  N        -23.2610   31.2200    2.1380 N.3    57  ALA57      -0.1245
     17  CA       -22.0180   30.4770    2.0100 C.3    57  ALA57       0.1562
     18  C        -21.0270   31.3790    2.7220 C.2    57  ALA57       0.2260
     19  O        -21.0170   32.5910    2.4980 O.2    57  ALA57      -0.2867
     20  CB       -21.6310   30.3250    0.5580 C.3    57  ALA57       0.0290
     21  N        -16.9940   31.8000    3.6020 N.3    59  LYS59      -0.1245
     22  CA       -15.5890   31.4350    3.3720 C.3    59  LYS59       0.1561
     23  C        -14.7760   31.9120    4.5710 C.2    59  LYS59       0.2260
     24  O        -14.7760   33.1030    4.8940 O.2    59  LYS59      -0.2867
     25  CB       -15.0280   32.0540    2.0680 C.3    59  LYS59       0.0271
     26  CG       -13.7140   31.4060    1.5930 C.3    59  LYS59       0.0035
     27  CD       -13.0520   32.1680    0.4340 C.3    59  LYS59       0.0206
     28  CE       -12.0620   31.3240   -0.3290 C.3    59  LYS59       0.1093
     29  NZ       -10.8390   32.0830   -0.7050 N.3    59  LYS59      -0.1314
     30  N        -21.3530   36.1940   -8.0950 N.3    89  VAL89      -0.1245
     31  CA       -21.9860   35.7150   -6.8650 C.3    89  VAL89       0.1561
     32  C        -22.2270   36.9090   -5.9500 C.2    89  VAL89       0.2260
     33  O        -21.3170   37.7340   -5.7530 O.2    89  VAL89      -0.2867
     34  CB       -21.1480   34.6130   -6.1540 C.3    89  VAL89       0.0252
     35  CG1      -21.9540   33.9000   -5.0770 C.3    89  VAL89       0.0019
     36  CG2      -20.6760   33.5950   -7.1660 C.3    89  VAL89       0.0019
     37  N        -21.3630   35.1370    1.3120 N.3   105  MET105     -0.1230
     38  CA       -21.9300   35.2650   -0.0060 C.3   105  MET105      0.1702
     39  C        -23.2350   34.5550   -0.2040 C.2   105  MET105      0.2592
     40  O        -23.7420   33.8840    0.6960 O.2   105  MET105     -0.2718
     41  CB       -20.9130   34.8250   -1.0710 C.3   105  MET105      0.0401
     42  CG       -19.8870   33.8570   -0.5710 C.3   105  MET105      0.0596
     43  SD       -18.3220   33.9860   -1.4520 S.3   105  MET105     -0.1393
     44  CE       -18.3270   35.6590   -1.8500 C.3   105  MET105      0.0692
     45  N        -23.7870   34.7290   -1.3970 N.am  106  GLU106     -0.1966
     46  CA       -24.9550   34.0270   -1.8790 C.3   106  GLU106      0.1733
     47  C        -24.5870   32.5210   -1.9920 C.2   106  GLU106      0.2616
     48  O        -23.4610   32.1670   -2.3930 O.2   106  GLU106     -0.2715
     49  CB       -25.3180   34.5900   -3.2500 C.3   106  GLU106      0.0429
     50  CG       -26.4660   33.9030   -3.9630 C.3   106  GLU106      0.1163
     51  CD       -26.4840   34.2900   -5.4270 C.2   106  GLU106      0.3649
     52  OE1      -25.5930   35.0650   -5.8480 O.co2 106  GLU106     -0.2457
     53  OE2      -27.3790   33.8100   -6.1570 O.co2 106  GLU106     -0.2457
     54  N        -25.5290   31.6520   -1.6020 N.am  107  HIS107     -0.1959
     55  CA       -25.3370   30.2070   -1.6490 C.3   107  HIS107      0.1787
     56  C        -25.8650   29.6860   -2.9710 C.2   107  HIS107      0.2620
     57  O        -26.9940   29.9900   -3.3550 O.2   107  HIS107     -0.2715
     58  CB       -25.9940   29.5200   -0.4400 C.3   107  HIS107      0.0785
     59  CG       -26.1020   28.0450   -0.5880 C.ar  107  HIS107      0.0821
     60  ND1      -27.2750   27.4520   -1.0150 N.ar  107  HIS107     -0.2267
     61  CD2      -25.1520   27.0950   -0.4540 C.ar  107  HIS107      0.1154
     62  CE1      -27.0160   26.1580   -1.0940 C.ar  107  HIS107      0.1986
     63  NE2      -25.7590   25.8910   -0.7370 N.ar  107  HIS107     -0.2212
     64  N        -25.0230   28.9410   -3.6900 N.am  108  MET108     -0.1977
     65  CA       -25.3500   28.3790   -5.0000 C.3   108  MET108      0.1605
     66  C        -25.5390   26.8720   -4.7990 C.2   108  MET108      0.2287
     67  O        -24.5950   26.1480   -4.5000 O.2   108  MET108     -0.2864
     68  CB       -24.2400   28.7280   -6.0070 C.3   108  MET108      0.0413
     69  CG       -24.0030   30.2310   -6.2000 C.3   108  MET108      0.0598
     70  SD       -25.3180   31.0710   -7.1410 S.3   108  MET108     -0.1393
     71  CE       -25.0680   30.3880   -8.8220 C.3   108  MET108      0.0692
     72  N        -23.5510   24.0730   -6.4790 N.3   111  GLY111     -0.1210
     73  CA       -22.1360   24.0270   -6.1090 C.3   111  GLY111      0.1956
     74  C        -21.2260   24.5860   -7.1990 C.2   111  GLY111      0.2612
     75  O        -21.6270   25.4650   -7.9690 O.2   111  GLY111     -0.2717
     76  N        -19.9930   24.0700   -7.2910 N.am  112  SER112     -0.1952
     77  CA       -19.0210   24.5220   -8.3010 C.3   112  SER112      0.1924
     78  C        -18.8280   23.5430   -9.4410 C.2   112  SER112      0.2314
     79  O        -19.0770   22.3600   -9.2650 O.2   112  SER112     -0.2863
     80  CB       -17.6890   24.8760   -7.6590 C.3   112  SER112      0.2116
     81  OG       -17.2620   23.8100   -6.8320 O.3   112  SER112     -0.2180
     82  N        -17.1380   20.1630   -8.9680 N.3   115  GLN115     -0.1245
     83  CA       -18.0390   19.2020   -8.3260 C.3   115  GLN115      0.1566
     84  C        -19.0570   18.6550   -9.2800 C.2   115  GLN115      0.2260
     85  O        -19.4040   17.4750   -9.1930 O.2   115  GLN115     -0.2867
     86  CB       -18.7510   19.8190   -7.1120 C.3   115  GLN115      0.0367
     87  CG       -17.7880   20.2690   -6.0250 C.3   115  GLN115      0.0905
     88  CD       -18.3800   21.3070   -5.0970 C.2   115  GLN115      0.2608
     89  OE1      -19.3350   22.0430   -5.4210 O.2   115  GLN115     -0.2717
     90  NE2      -17.7610   21.4280   -3.9350 N.am  115  GLN115     -0.0878
     91  N        -13.6390   25.2530  -10.2180 N.3   156  SER156     -0.1217
     92  CA       -14.0920   25.4910   -8.8340 C.3   156  SER156      0.1889
     93  C        -14.5010   26.9390   -8.5400 C.2   156  SER156      0.2288
     94  O        -15.1090   27.1880   -7.5000 O.2   156  SER156     -0.2866
     95  CB       -13.0480   25.0090   -7.8310 C.3   156  SER156      0.2089
     96  OG       -11.9350   25.8840   -7.7860 O.3   156  SER156     -0.2183
     97  N        -19.7410   28.9290  -10.1310 N.3   159  LEU159     -0.1245
     98  CA       -20.7970   28.3540   -9.3250 C.3   159  LEU159      0.1561
     99  C        -22.0620   28.3270  -10.0860 C.2   159  LEU159      0.2260
    100  O        -22.3130   29.2190  -10.9000 O.2   159  LEU159     -0.2867
    101  CB       -20.9520   29.1160   -8.0150 C.3   159  LEU159      0.0270
    102  CG       -19.6570   29.3640   -7.2600 C.3   159  LEU159      0.0019
    103  CD1      -19.8730   30.3240   -6.1750 C.3   159  LEU159      0.0001
    104  CD2      -19.0770   28.0930   -6.7160 C.3   159  LEU159      0.0001
    105  N        -16.8800   33.6020   -8.7810 N.3   169  CYS169     -0.1221
    106  CA       -16.4960   33.9220   -7.4030 C.3   169  CYS169      0.1808
    107  C        -14.9770   33.8800   -7.2980 C.2   169  CYS169      0.2601
    108  O        -14.3360   33.3860   -8.2290 O.2   169  CYS169     -0.2717
    109  CB       -17.1500   32.9590   -6.4150 C.3   169  CYS169      0.0970
    110  SG       -16.5050   31.2750   -6.5020 S.3   169  CYS169     -0.0800
    111  N        -14.4090   34.3700   -6.1710 N.am  170  ASP170     -0.1973
    112  CA       -12.9690   34.3290   -5.8700 C.3   170  ASP170      0.1709
    113  C        -12.0210   35.0690   -6.8190 C.2   170  ASP170      0.2293
    114  O        -10.9910   34.5290   -7.2290 O.2   170  ASP170     -0.2864
    115  CB       -12.4720   32.9020   -5.5270 C.3   170  ASP170      0.1436
    116  CG       -12.7740   32.4320   -4.1140 C.2   170  ASP170      0.3671
    117  OD1      -13.1490   33.2860   -3.2600 O.co2 170  ASP170     -0.2456
    118  OD2      -12.6390   31.2150   -3.8530 O.co2 170  ASP170     -0.2456
@<TRIPOS>BOND
     1   100    99    2
     2    91    92    1
     3    97    98    1
     4    99    98    1
     5    78    79    2
     6    78    77    1
     7    98   101    1
     8    84    85    2
     9    84    83    1
    10    82    83    1
    11    92    93    1
    12    92    95    1
    13    71    70    1
    14   105   106    1
    15    93    94    2
    16    83    86    1
    17    77    80    1
    18    77    76    1
    19   108   107    2
    20    30    31    1
    21   101   102    1
    22    75    74    2
    23    95    96    1
    24    80    81    1
    25   106   107    1
    26   106   109    1
    27   107   111   am
    28    76    74   am
    29   102   104    1
    30   102   103    1
    31   114   113    2
    32    74    73    1
    33    36    34    1
    34    70    69    1
    35    86    87    1
    36    31    34    1
    37    31    32    1
    38   113   112    1
    39   110   109    1
    40    72    73    1
    41    69    68    1
    42   111   112    1
    43    53    51   ar
    44    34    35    1
    45    87    88    1
    46    68    65    1
    47    32    33    2
    48   112   115    1
    49    52    51   ar
    50   115   116    1
    51    51    50    1
    52    89    88    2
    53    88    90   am
    54    65    66    1
    55    65    64    1
    56    66    67    2
    57   116   118   ar
    58   116   117   ar
    59    50    49    1
    60    64    56   am
    61    57    56    2
    62    49    46    1
    63    56    55    1
    64    48    47    2
    65    47    46    1
    66    47    54   am
    67    46    45    1
    68    44    43    1
    69    55    54    1
    70    55    58    1
    71    43    42    1
    72    45    39   am
    73     4     3    2
    74    62    60   ar
    75    62    63   ar
    76    41    42    1
    77    41    38    1
    78    60    59   ar
    79    63    61   ar
    80    29    28    1
    81    59    61   ar
    82    59    58    1
    83    28    27    1
    84    39    38    1
    85    39    40    2
    86     3     2    1
    87    38    37    1
    88     5     2    1
    89     5     6    1
    90    27    26    1
    91    15    13    1
    92     8     6    1
    93    20    17    1
    94     7     6    1
    95     2     1    1
    96    14    13    1
    97    13    10    1
    98    26    25    1
    99    17    16    1
   100    17    18    1
   101    25    22    1
   102    19    18    2
   103    10     9    1
   104    10    11    1
   105    12    11    2
   106    22    21    1
   107    22    23    1
   108    23    24    2
