@<TRIPOS>MOLECULE
tmp/3zlvA00.pdb
 129 131 0 0 0
SMALL
GASTEIGER

@<TRIPOS>ATOM
      1  N         38.9990   23.3960   17.7640 N.3    72  TYR72      -0.1241
      2  CA        38.6870   24.5330   16.9240 C.3    72  TYR72       0.1605
      3  C         37.3330   25.1180   17.3250 C.2    72  TYR72       0.2264
      4  O         36.3700   24.3910   17.5680 O.2    72  TYR72      -0.2867
      5  CB        38.6480   24.0480   15.4790 C.3    72  TYR72       0.0534
      6  CG        38.3540   25.0930   14.4340 C.ar   72  TYR72      -0.0201
      7  CD1       37.0450   25.4130   14.0910 C.ar   72  TYR72      -0.0009
      8  CD2       39.3850   25.7270   13.7560 C.ar   72  TYR72      -0.0009
      9  CE1       36.7730   26.3570   13.1200 C.ar   72  TYR72       0.0417
     10  CE2       39.1250   26.6700   12.7810 C.ar   72  TYR72       0.0417
     11  CZ        37.8180   26.9830   12.4660 C.ar   72  TYR72       0.1957
     12  OH        37.5620   27.9270   11.4940 O.3    72  TYR72      -0.2866
     13  N         34.3180   27.4780   15.9790 N.3    74  ASP74      -0.1239
     14  CA        33.7200   28.1390   14.8300 C.3    74  ASP74       0.1674
     15  C         33.4350   29.5890   15.1680 C.2    74  ASP74       0.2266
     16  O         32.9980   29.9030   16.2750 O.2    74  ASP74      -0.2867
     17  CB        32.4190   27.4460   14.4270 C.3    74  ASP74       0.1410
     18  CG        31.4720   28.3710   13.6870 C.2    74  ASP74       0.3668
     19  OD1       31.9090   29.0320   12.7210 O.co2  74  ASP74      -0.2456
     20  OD2       30.2860   28.4350   14.0710 O.co2  74  ASP74      -0.2456
     21  N         35.9180   16.8720   15.4620 N.3   124  TYR124     -0.1241
     22  CA        36.8800   17.9450   15.7300 C.3   124  TYR124      0.1605
     23  C         36.3470   18.9260   16.7710 C.2   124  TYR124      0.2264
     24  O         37.0310   19.8690   17.1540 O.2   124  TYR124     -0.2867
     25  CB        37.2590   18.6950   14.4460 C.3   124  TYR124      0.0534
     26  CG        36.1320   19.5370   13.9080 C.ar  124  TYR124     -0.0201
     27  CD1       35.8900   20.8070   14.4170 C.ar  124  TYR124     -0.0009
     28  CD2       35.2930   19.0560   12.9140 C.ar  124  TYR124     -0.0009
     29  CE1       34.8540   21.5770   13.9450 C.ar  124  TYR124      0.0417
     30  CE2       34.2490   19.8240   12.4380 C.ar  124  TYR124      0.0417
     31  CZ        34.0390   21.0840   12.9610 C.ar  124  TYR124      0.1957
     32  OH        33.0100   21.8570   12.5000 O.3   124  TYR124     -0.2866
     33  N         44.9560   22.0110   11.6730 N.3   277  GLU277     -0.1231
     34  CA        44.3680   20.6980   11.4320 C.3   277  GLU277      0.1699
     35  C         43.4980   20.6820   10.1830 C.2   277  GLU277      0.2592
     36  O         43.4300   19.6770    9.4880 O.2   277  GLU277     -0.2718
     37  CB        43.5820   20.2160   12.6460 C.3   277  GLU277      0.0402
     38  CG        42.3840   21.0680   12.9500 C.3   277  GLU277      0.1161
     39  CD        41.4850   20.4560   13.9960 C.2   277  GLU277      0.3649
     40  OE1       41.6660   19.2660   14.3370 O.co2 277  GLU277     -0.2457
     41  OE2       40.5850   21.1740   14.4740 O.co2 277  GLU277     -0.2457
     42  N         42.8670   21.8090    9.8830 N.am  278  TRP278     -0.1976
     43  CA        41.9430   21.8970    8.7580 C.3   278  TRP278      0.1640
     44  C         42.6480   22.0110    7.3990 C.2   278  TRP278      0.2290
     45  O         42.0180   21.8860    6.3530 O.2   278  TRP278     -0.2864
     46  CB        41.0120   23.0880    8.9600 C.3   278  TRP278      0.0576
     47  CG        39.7020   22.9690    8.2600 C.ar  278  TRP278      0.0006
     48  CD1       39.2960   21.9560    7.4360 C.ar  278  TRP278      0.0946
     49  CD2       38.6280   23.9160    8.2910 C.ar  278  TRP278      0.0152
     50  NE1       38.0320   22.2080    6.9650 N.ar  278  TRP278     -0.2442
     51  CE2       37.5980   23.4060    7.4730 C.ar  278  TRP278      0.0810
     52  CE3       38.4330   25.1420    8.9370 C.ar  278  TRP278      0.0012
     53  CZ2       36.3900   24.0820    7.2860 C.ar  278  TRP278      0.0191
     54  CZ3       37.2340   25.8090    8.7500 C.ar  278  TRP278      0.0001
     55  CH2       36.2290   25.2790    7.9330 C.ar  278  TRP278      0.0015
     56  N         31.5220   18.7370    4.7070 N.3   287  PHE287     -0.1227
     57  CA        31.2250   17.4110    5.2470 C.3   287  PHE287      0.1736
     58  C         32.4110   16.4380    5.1280 C.2   287  PHE287      0.2595
     59  O         32.2360   15.2430    4.9060 O.2   287  PHE287     -0.2718
     60  CB        29.9720   16.8280    4.5820 C.3   287  PHE287      0.0547
     61  CG        28.9640   16.2910    5.5590 C.ar  287  PHE287     -0.0202
     62  CD1       29.2850   15.2280    6.4010 C.ar  287  PHE287     -0.0042
     63  CD2       27.6880   16.8480    5.6360 C.ar  287  PHE287     -0.0042
     64  CE1       28.3480   14.7350    7.3090 C.ar  287  PHE287     -0.0003
     65  CE2       26.7470   16.3620    6.5310 C.ar  287  PHE287     -0.0003
     66  CZ        27.0730   15.3090    7.3720 C.ar  287  PHE287     -0.0000
     67  N         33.6190   16.9710    5.2620 N.am  288  ARG288     -0.1966
     68  CA        34.8260   16.1630    5.3780 C.3   288  ARG288      0.1729
     69  C         35.6550   16.7360    6.5120 C.2   288  ARG288      0.2616
     70  O         35.6710   17.9440    6.7340 O.2   288  ARG288     -0.2715
     71  CB        35.6360   16.1700    4.0820 C.3   288  ARG288      0.0348
     72  CG        34.8930   15.6210    2.8890 C.3   288  ARG288      0.0492
     73  CD        34.5900   14.1330    3.0350 C.3   288  ARG288      0.2205
     74  NE        34.0730   13.5740    1.7880 N.pl3 288  ARG288     -0.0865
     75  CZ        32.7830   13.3890    1.5190 C.cat 288  ARG288      0.5346
     76  NH1       31.8550   13.7050    2.4160 N.pl3 288  ARG288      0.1354
     77  NH2       32.4220   12.8830    0.3470 N.pl3 288  ARG288      0.1354
     78  N         36.3380   15.8720    7.2440 N.am  289  PHE289     -0.1960
     79  CA        37.0650   16.3340    8.4140 C.3   289  PHE289      0.1771
     80  C         38.4430   15.6990    8.4480 C.2   289  PHE289      0.2620
     81  O         38.6260   14.5660    8.0150 O.2   289  PHE289     -0.2715
     82  CB        36.2360   16.0590    9.6620 C.3   289  PHE289      0.0574
     83  CG        34.7620   16.2310    9.4270 C.ar  289  PHE289     -0.0200
     84  CD1       34.1740   17.4910    9.4990 C.ar  289  PHE289     -0.0042
     85  CD2       33.9710   15.1480    9.0710 C.ar  289  PHE289     -0.0042
     86  CE1       32.8170   17.6640    9.2510 C.ar  289  PHE289     -0.0003
     87  CE2       32.6090   15.3210    8.8200 C.ar  289  PHE289     -0.0003
     88  CZ        32.0360   16.5770    8.9140 C.ar  289  PHE289     -0.0000
     89  N         39.4200   16.4580    8.9150 N.am  290  SER290     -0.1950
     90  CA        40.8120   16.0580    8.7690 C.3   290  SER290      0.1924
     91  C         41.1360   14.7960    9.5440 C.2   290  SER290      0.2314
     92  O         41.7610   13.8750    9.0170 O.2   290  SER290     -0.2863
     93  CB        41.7280   17.1890    9.2190 C.3   290  SER290      0.2116
     94  OG        41.5550   18.3070    8.3780 O.3   290  SER290     -0.2180
     95  N         22.4570   22.8520    6.4900 N.3   329  TYR329     -0.1227
     96  CA        23.3510   23.4660    7.4710 C.3   329  TYR329      0.1736
     97  C         24.7730   23.7070    6.9590 C.2   329  TYR329      0.2595
     98  O         25.3880   24.7200    7.2690 O.2   329  TYR329     -0.2718
     99  CB        23.3890   22.6000    8.7300 C.3   329  TYR329      0.0548
    100  CG        24.1430   23.1830    9.8980 C.ar  329  TYR329     -0.0200
    101  CD1       25.5050   22.9630   10.0510 C.ar  329  TYR329     -0.0009
    102  CD2       23.4890   23.9210   10.8700 C.ar  329  TYR329     -0.0009
    103  CE1       26.2010   23.4860   11.1320 C.ar  329  TYR329      0.0417
    104  CE2       24.1720   24.4440   11.9560 C.ar  329  TYR329      0.0417
    105  CZ        25.5270   24.2260   12.0820 C.ar  329  TYR329      0.1957
    106  OH        26.2060   24.7510   13.1610 O.3   329  TYR329     -0.2866
    107  N         25.2610   22.7830    6.1450 N.am  330  PHE330     -0.1976
    108  CA        26.6440   22.8000    5.6900 C.3   330  PHE330      0.1639
    109  C         26.8510   23.6980    4.4770 C.2   330  PHE330      0.2290
    110  O         27.9560   24.1840    4.2320 O.2   330  PHE330     -0.2864
    111  CB        27.0820   21.3650    5.4040 C.3   330  PHE330      0.0560
    112  CG        26.7260   20.4170    6.5080 C.ar  330  PHE330     -0.0200
    113  CD1       27.5820   20.2410    7.5890 C.ar  330  PHE330     -0.0042
    114  CD2       25.5120   19.7470    6.5000 C.ar  330  PHE330     -0.0042
    115  CE1       27.2490   19.3910    8.6230 C.ar  330  PHE330     -0.0003
    116  CE2       25.1740   18.8950    7.5290 C.ar  330  PHE330     -0.0003
    117  CZ        26.0430   18.7150    8.5960 C.ar  330  PHE330     -0.0000
    118  N         28.1790   27.2560    5.1000 N.3   333  TYR333     -0.1241
    119  CA        29.5420   27.3230    5.6000 C.3   333  TYR333      0.1605
    120  C         30.5530   27.3070    4.4820 C.2   333  TYR333      0.2264
    121  O         31.5300   28.0550    4.5140 O.2   333  TYR333     -0.2867
    122  CB        29.8280   26.1610    6.5520 C.3   333  TYR333      0.0534
    123  CG        29.5840   26.4990    8.0010 C.ar  333  TYR333     -0.0201
    124  CD1       28.2930   26.5590    8.5140 C.ar  333  TYR333     -0.0009
    125  CD2       30.6480   26.7730    8.8560 C.ar  333  TYR333     -0.0009
    126  CE1       28.0690   26.8760    9.8410 C.ar  333  TYR333      0.0417
    127  CE2       30.4350   27.0890   10.1840 C.ar  333  TYR333      0.0417
    128  CZ        29.1450   27.1400   10.6710 C.ar  333  TYR333      0.1957
    129  OH        28.9360   27.4540   11.9940 O.3   333  TYR333     -0.2866
@<TRIPOS>BOND
     1    77    75    1
     2    75    74    2
     3    75    76    1
     4    74    73    1
     5    72    73    1
     6    72    71    1
     7    71    68    1
     8   110   109    2
     9   109   108    1
    10   120   121    2
    11   120   119    1
    12    60    57    1
    13    60    61    1
    14    56    57    1
    15    59    58    2
    16   118   119    1
    17    58    57    1
    18    58    67   am
    19    67    68    1
    20    68    69    1
    21   111   108    1
    22   111   112    1
    23    61    63   ar
    24    61    62   ar
    25   119   122    1
    26    63    65   ar
    27   108   107    1
    28   107    97   am
    29    45    44    2
    30    62    64   ar
    31    95    96    1
    32   114   112   ar
    33   114   116   ar
    34   112   113   ar
    35    69    70    2
    36    69    78   am
    37    65    66   ar
    38   122   123    1
    39    97    98    2
    40    97    96    1
    41    50    48   ar
    42    50    51   ar
    43    78    79    1
    44    53    51   ar
    45    53    55   ar
    46    64    66   ar
    47    44    43    1
    48    48    47   ar
    49    96    99    1
    50    51    49   ar
    51   116   117   ar
    52   113   115   ar
    53    55    54   ar
    54   123   124   ar
    55   123   125   ar
    56    81    80    2
    57    47    49   ar
    58    47    46    1
    59    49    52   ar
    60    94    93    1
    61    79    80    1
    62    79    82    1
    63    80    89   am
    64   124   126   ar
    65   117   115   ar
    66    99   100    1
    67    54    52   ar
    68    43    46    1
    69    43    42    1
    70    90    89    1
    71    90    93    1
    72    90    91    1
    73    87    88   ar
    74    87    85   ar
    75   125   127   ar
    76    88    86   ar
    77    92    91    2
    78    85    83   ar
    79    86    84   ar
    80    83    84   ar
    81    83    82    1
    82    36    35    2
    83   126   128   ar
    84    42    35   am
    85   100   101   ar
    86   100   102   ar
    87   101   103   ar
    88    35    34    1
    89   127   128   ar
    90   128   129    1
    91   102   104   ar
    92   103   105   ar
    93    34    33    1
    94    34    37    1
    95    12    11    1
    96   104   105   ar
    97   105   106    1
    98    30    28   ar
    99    30    31   ar
   100    11    10   ar
   101    11     9   ar
   102    32    31    1
   103    37    38    1
   104    19    18   ar
   105    10     8   ar
   106    28    26   ar
   107    38    39    1
   108    31    29   ar
   109     9     7   ar
   110    18    20   ar
   111    18    17    1
   112     8     6   ar
   113    26    27   ar
   114    26    25    1
   115    29    27   ar
   116    39    40   ar
   117    39    41   ar
   118     7     6   ar
   119    17    14    1
   120     6     5    1
   121    25    22    1
   122    14    15    1
   123    14    13    1
   124    15    16    2
   125    21    22    1
   126     5     2    1
   127    22    23    1
   128    23    24    2
   129     2     3    1
   130     2     1    1
   131     3     4    2
