@<TRIPOS>MOLECULE
tmp/3zlwA00.pdb
 123 112 0 0 0
SMALL
GASTEIGER

@<TRIPOS>ATOM
      1  N        -20.0640   23.0610    2.2960 N.3    36  LEU36      -0.1231
      2  CA       -20.3380   23.1500    0.8550 C.3    36  LEU36       0.1693
      3  C        -19.1680   22.6620    0.0290 C.2    36  LEU36       0.2593
      4  O        -19.3500   22.1450   -1.0670 O.2    36  LEU36      -0.2718
      5  CB       -20.7120   24.5790    0.4500 C.3    36  LEU36       0.0284
      6  CG       -22.0950   25.0610    0.8740 C.3    36  LEU36       0.0019
      7  CD1      -22.2810   26.5080    0.5420 C.3    36  LEU36       0.0001
      8  CD2      -23.2010   24.2460    0.2290 C.3    36  LEU36       0.0001
      9  N        -17.9840   22.8050    0.5770 N.am   37  GLY37      -0.1942
     10  CA       -16.7490   22.4050   -0.0650 C.3    37  GLY37       0.2014
     11  C        -15.6400   23.2780    0.4470 C.2    37  GLY37       0.2639
     12  O        -15.8260   24.0030    1.4260 O.2    37  GLY37      -0.2714
     13  N        -14.4900   23.2230   -0.2070 N.am   38  ALA38      -0.1963
     14  CA       -13.3520   24.0350    0.1770 C.3    38  ALA38       0.1728
     15  C        -12.8760   24.8640   -0.9960 C.2    38  ALA38       0.2616
     16  O        -12.8540   24.3890   -2.1380 O.2    38  ALA38      -0.2715
     17  CB       -12.2330   23.1570    0.7050 C.3    38  ALA38       0.0334
     18  N        -12.5490   26.1230   -0.7130 N.am   39  ALA39      -0.1977
     19  CA       -12.0190   27.0860   -1.6750 C.3    39  ALA39       0.1597
     20  C        -10.5740   27.3670   -1.2630 C.2    39  ALA39       0.2287
     21  O        -10.1640   26.9300   -0.1830 O.2    39  ALA39      -0.2864
     22  CB       -12.8400   28.3650   -1.6350 C.3    39  ALA39       0.0319
     23  N        -15.8790   26.4500    2.9170 N.3    44  VAL44      -0.1245
     24  CA       -17.1540   27.1070    2.6490 C.3    44  VAL44       0.1561
     25  C        -18.2690   26.2900    3.2600 C.2    44  VAL44       0.2260
     26  O        -18.4250   25.1160    2.9360 O.2    44  VAL44      -0.2867
     27  CB       -17.3950   27.3910    1.1350 C.3    44  VAL44       0.0252
     28  CG1      -18.6110   28.2950    0.9350 C.3    44  VAL44       0.0019
     29  CG2      -16.1590   28.0070    0.4920 C.3    44  VAL44       0.0019
     30  N        -23.8910   31.2310    2.0230 N.3    57  ALA57      -0.1245
     31  CA       -22.6680   30.4530    1.8820 C.3    57  ALA57       0.1562
     32  C        -21.6470   31.2890    2.6160 C.2    57  ALA57       0.2260
     33  O        -21.5170   32.4770    2.3240 O.2    57  ALA57      -0.2867
     34  CB       -22.2840   30.3200    0.3940 C.3    57  ALA57       0.0290
     35  N        -17.6630   31.5680    3.6990 N.3    59  LYS59      -0.1245
     36  CA       -16.2840   31.1220    3.5280 C.3    59  LYS59       0.1561
     37  C        -15.4780   31.6560    4.6910 C.2    59  LYS59       0.2260
     38  O        -15.4530   32.8670    4.9200 O.2    59  LYS59      -0.2867
     39  CB       -15.6810   31.6040    2.1930 C.3    59  LYS59       0.0271
     40  CG       -14.2500   31.1090    1.9850 C.3    59  LYS59       0.0035
     41  CD       -13.6310   31.6310    0.6990 C.3    59  LYS59       0.0206
     42  CE       -12.1760   31.2430    0.6110 C.3    59  LYS59       0.1093
     43  NZ       -11.6150   31.5150   -0.7370 N.3    59  LYS59      -0.1314
     44  N        -21.8020   35.1020    1.3040 N.3   105  MET105     -0.1230
     45  CA       -22.3030   35.2960   -0.0300 C.3   105  MET105      0.1702
     46  C        -23.5680   34.5390   -0.2900 C.2   105  MET105      0.2592
     47  O        -24.0080   33.7550    0.5510 O.2   105  MET105     -0.2718
     48  CB       -21.1810   35.0030   -1.0610 C.3   105  MET105      0.0401
     49  CG       -20.7480   33.5600   -1.1510 C.3   105  MET105      0.0596
     50  SD       -19.1070   33.4070   -1.9440 S.3   105  MET105     -0.1393
     51  CE       -18.0780   33.5370   -0.5350 C.3   105  MET105      0.0692
     52  N        -24.1590   34.7900   -1.4520 N.am  106  GLU106     -0.1979
     53  CA       -25.3450   34.1180   -1.9560 C.3   106  GLU106      0.1602
     54  C        -25.0760   32.6080   -2.0100 C.2   106  GLU106      0.2287
     55  O        -24.0080   32.1770   -2.4750 O.2   106  GLU106     -0.2864
     56  CB       -25.5960   34.6210   -3.3700 C.3   106  GLU106      0.0415
     57  CG       -26.8460   34.1010   -4.0270 C.3   106  GLU106      0.1163
     58  CD       -26.9290   34.4340   -5.5020 C.2   106  GLU106      0.3649
     59  OE1      -26.0990   35.2280   -5.9960 O.co2 106  GLU106     -0.2457
     60  OE2      -27.8490   33.9150   -6.1640 O.co2 106  GLU106     -0.2457
     61  N        -25.4920   29.1060   -3.6300 N.3   108  MET108     -0.1245
     62  CA       -25.7360   28.5230   -4.9600 C.3   108  MET108      0.1570
     63  C        -25.9140   27.0190   -4.7680 C.2   108  MET108      0.2261
     64  O        -24.9590   26.2900   -4.4910 O.2   108  MET108     -0.2867
     65  CB       -24.5560   28.8500   -5.9040 C.3   108  MET108      0.0387
     66  CG       -24.3100   30.3820   -6.1070 C.3   108  MET108      0.0595
     67  SD       -25.6280   31.2120   -7.0420 S.3   108  MET108     -0.1393
     68  CE       -25.3300   30.5600   -8.7530 C.3   108  MET108      0.0692
     69  N        -23.7360   24.2600   -6.3910 N.3   111  GLY111     -0.1210
     70  CA       -22.3250   24.2610   -6.0180 C.3   111  GLY111      0.1956
     71  C        -21.4270   24.7850   -7.1320 C.2   111  GLY111      0.2612
     72  O        -21.8590   25.5930   -7.9390 O.2   111  GLY111     -0.2717
     73  N        -20.1790   24.3410   -7.1770 N.am  112  SER112     -0.1952
     74  CA       -19.2390   24.7700   -8.2210 C.3   112  SER112      0.1924
     75  C        -19.1960   23.7800   -9.4130 C.2   112  SER112      0.2314
     76  O        -19.5870   22.6180   -9.2710 O.2   112  SER112     -0.2863
     77  CB       -17.8510   24.9880   -7.6390 C.3   112  SER112      0.2116
     78  OG       -17.1940   23.7400   -7.4850 O.3   112  SER112     -0.2180
     79  N        -17.4280   20.5700   -8.9630 N.3   115  GLN115     -0.1245
     80  CA       -18.2230   19.5420   -8.2800 C.3   115  GLN115      0.1566
     81  C        -19.2220   18.9300   -9.2390 C.2   115  GLN115      0.2260
     82  O        -19.4380   17.7240   -9.2230 O.2   115  GLN115     -0.2867
     83  CB       -18.9370   20.1070   -7.0360 C.3   115  GLN115      0.0367
     84  CG       -18.0020   20.7140   -5.9760 C.3   115  GLN115      0.0905
     85  CD       -18.7930   21.4500   -4.9020 C.2   115  GLN115      0.2608
     86  OE1      -19.6650   22.2900   -5.1710 O.2   115  GLN115     -0.2717
     87  NE2      -18.4750   21.1770   -3.6540 N.am  115  GLN115     -0.0878
     88  N        -13.9070   25.5910  -10.2220 N.3   156  SER156     -0.1202
     89  CA       -14.2950   25.7530   -8.8190 C.3   156  SER156      0.2020
     90  C        -14.7510   27.1800   -8.4760 C.2   156  SER156      0.2618
     91  O        -15.3510   27.3720   -7.4260 O.2   156  SER156     -0.2717
     92  CB       -13.2000   25.2450   -7.8850 C.3   156  SER156      0.2103
     93  OG       -12.0720   26.0950   -7.9150 O.3   156  SER156     -0.2182
     94  N        -14.5030   28.1630   -9.3720 N.am  157  ASN157     -0.1974
     95  CA       -14.9220   29.5620   -9.1910 C.3   157  ASN157      0.1688
     96  C        -16.1330   29.9270  -10.0120 C.2   157  ASN157      0.2292
     97  O        -16.4540   31.0970  -10.1150 O.2   157  ASN157     -0.2864
     98  CB       -13.7680   30.5330   -9.4630 C.3   157  ASN157      0.1181
     99  CG       -12.8290   30.6110   -8.2860 C.2   157  ASN157      0.2629
    100  OD1      -13.1510   30.1800   -7.1760 O.2   157  ASN157     -0.2716
    101  ND2      -11.6570   31.1560   -8.4950 N.am  157  ASN157     -0.0877
    102  N        -20.0540   29.0840  -10.1490 N.3   159  LEU159     -0.1245
    103  CA       -21.1320   28.5500   -9.3370 C.3   159  LEU159      0.1561
    104  C        -22.4140   28.5000  -10.0930 C.2   159  LEU159      0.2260
    105  O        -22.6830   29.3680  -10.9350 O.2   159  LEU159     -0.2867
    106  CB       -21.3020   29.3590   -8.0310 C.3   159  LEU159      0.0270
    107  CG       -20.0690   29.6250   -7.1790 C.3   159  LEU159      0.0019
    108  CD1      -20.4760   30.4290   -5.9250 C.3   159  LEU159      0.0001
    109  CD2      -19.3920   28.3350   -6.7330 C.3   159  LEU159      0.0001
    110  N        -17.3240   33.7980   -8.8230 N.3   169  CYS169     -0.1221
    111  CA       -16.9780   34.1400   -7.4460 C.3   169  CYS169      0.1808
    112  C        -15.4560   34.1480   -7.3040 C.2   169  CYS169      0.2601
    113  O        -14.7470   33.7130   -8.2200 O.2   169  CYS169     -0.2717
    114  CB       -17.6120   33.1490   -6.4700 C.3   169  CYS169      0.0970
    115  SG       -16.9130   31.4830   -6.5760 S.3   169  CYS169     -0.0800
    116  N        -14.9710   34.5390   -6.1120 N.am  170  ASP170     -0.1973
    117  CA       -13.5560   34.5510   -5.7300 C.3   170  ASP170      0.1709
    118  C        -12.6050   35.2800   -6.6810 C.2   170  ASP170      0.2293
    119  O        -11.5030   34.8180   -6.9590 O.2   170  ASP170     -0.2864
    120  CB       -13.0410   33.1490   -5.3190 C.3   170  ASP170      0.1436
    121  CG       -13.3430   32.7160   -3.8860 C.2   170  ASP170      0.3671
    122  OD1      -13.6180   33.6000   -3.0350 O.co2 170  ASP170     -0.2456
    123  OD2      -13.2530   31.5000   -3.6000 O.co2 170  ASP170     -0.2456
@<TRIPOS>BOND
     1   105   104    2
     2    88    89    1
     3   102   103    1
     4    97    96    2
     5   104   103    1
     6    96    95    1
     7    98    95    1
     8    98    99    1
     9    75    76    2
    10    75    74    1
    11    94    95    1
    12    94    90   am
    13   103   106    1
    14    81    82    2
    15    81    80    1
    16    79    80    1
    17   110   111    1
    18    89    90    1
    19    89    92    1
    20    68    67    1
    21   101    99   am
    22    90    91    2
    23    99   100    2
    24    80    83    1
    25    74    77    1
    26    74    73    1
    27   113   112    2
    28   106   107    1
    29    72    71    2
    30    93    92    1
    31    77    78    1
    32   111   112    1
    33   111   114    1
    34   112   116   am
    35   107   109    1
    36   107   108    1
    37    73    71   am
    38    71    70    1
    39    67    66    1
    40    83    84    1
    41   119   118    2
    42   118   117    1
    43   115   114    1
    44    69    70    1
    45    60    58   ar
    46   116   117    1
    47    66    65    1
    48    59    58   ar
    49    84    85    1
    50    65    62    1
    51   117   120    1
    52    58    57    1
    53   120   121    1
    54    86    85    2
    55    62    63    1
    56    62    61    1
    57    85    87   am
    58    63    64    2
    59    57    56    1
    60   121   123   ar
    61   121   122   ar
    62    56    53    1
    63    55    54    2
    64    16    15    2
    65    54    53    1
    66    53    52    1
    67    50    49    1
    68    50    51    1
    69    19    22    1
    70    19    20    1
    71    19    18    1
    72    52    46   am
    73    20    21    2
    74    49    48    1
    75     4     3    2
    76    48    45    1
    77    15    18   am
    78    15    14    1
    79    43    42    1
    80    46    45    1
    81    46    47    2
    82    13    14    1
    83    13    11   am
    84    10    11    1
    85    10     9    1
    86    45    44    1
    87     3     9   am
    88     3     2    1
    89    14    17    1
    90     8     6    1
    91    34    31    1
    92    11    12    2
    93     5     2    1
    94     5     6    1
    95    29    27    1
    96     7     6    1
    97    42    41    1
    98    41    40    1
    99     2     1    1
   100    28    27    1
   101    27    24    1
   102    31    30    1
   103    31    32    1
   104    40    39    1
   105    39    36    1
   106    33    32    2
   107    24    23    1
   108    24    25    1
   109    26    25    2
   110    36    35    1
   111    36    37    1
   112    37    38    2
