@<TRIPOS>MOLECULE
tmp/3zlxA00.pdb
 138 129 0 0 0
SMALL
GASTEIGER

@<TRIPOS>ATOM
      1  N        -20.0450   22.9980    2.2210 N.3    36  LEU36      -0.1231
      2  CA       -20.3540   23.0290    0.7830 C.3    36  LEU36       0.1693
      3  C        -19.1760   22.6210   -0.0640 C.2    36  LEU36       0.2593
      4  O        -19.3500   21.9380   -1.0710 O.2    36  LEU36      -0.2718
      5  CB       -20.8580   24.4000    0.3300 C.3    36  LEU36       0.0284
      6  CG       -22.1940   24.8370    0.8890 C.3    36  LEU36       0.0019
      7  CD1      -22.3960   26.3240    0.6900 C.3    36  LEU36       0.0001
      8  CD2      -23.3410   24.0240    0.2980 C.3    36  LEU36       0.0001
      9  N        -17.9960   23.0420    0.3540 N.am   37  GLY37      -0.1942
     10  CA       -16.7610   22.7670   -0.3450 C.3    37  GLY37       0.2014
     11  C        -15.6130   23.3640    0.4170 C.2    37  GLY37       0.2639
     12  O        -15.8220   24.1590    1.3340 O.2    37  GLY37      -0.2714
     13  N        -14.4060   22.9450    0.0700 N.am   38  ALA38      -0.1963
     14  CA       -13.1680   23.4220    0.6700 C.3    38  ALA38       0.1732
     15  C        -12.2150   23.6590   -0.5000 C.2    38  ALA38       0.2656
     16  O        -12.2600   22.9060   -1.4750 O.2    38  ALA38      -0.2711
     17  CB       -12.6170   22.3740    1.6220 C.3    38  ALA38       0.0334
     18  N        -11.4420   24.7390   -0.4510 N.am   39  GLY39      -0.1716
     19  CA       -10.5670   25.0720   -1.5650 C.2    39  GLY39       0.1480
     20  C         -9.4320   26.0090   -1.2500 C.2    39  GLY39       0.2820
     21  O         -8.6130   25.7230   -0.3610 O.2    39  GLY39      -0.2669
     22  N         -9.3460   27.1240   -2.0050 N.am   40  ASN40      -0.1937
     23  CA        -8.2390   28.0290   -1.7570 C.3    40  ASN40       0.1691
     24  C         -8.4420   29.1010   -0.7280 C.2    40  ASN40       0.2292
     25  O         -9.1540   30.0820   -0.9510 O.2    40  ASN40      -0.2864
     26  CB        -7.4970   28.5110   -3.0000 C.3    40  ASN40       0.1181
     27  CG        -6.0500   28.8240   -2.6660 C.2    40  ASN40       0.2629
     28  OD1       -5.2760   27.9420   -2.2470 O.2    40  ASN40      -0.2716
     29  ND2       -5.6720   30.0970   -2.7720 N.am   40  ASN40      -0.0877
     30  N        -15.9490   26.5530    2.8730 N.3    44  VAL44      -0.1245
     31  CA       -17.2080   27.2190    2.6240 C.3    44  VAL44       0.1561
     32  C        -18.2890   26.3700    3.2820 C.2    44  VAL44       0.2260
     33  O        -18.4000   25.1720    2.9990 O.2    44  VAL44      -0.2867
     34  CB       -17.4800   27.4380    1.1020 C.3    44  VAL44       0.0252
     35  CG1      -18.8220   28.1180    0.8750 C.3    44  VAL44       0.0019
     36  CG2      -16.3640   28.2390    0.4490 C.3    44  VAL44       0.0019
     37  N        -23.8270   31.2490    2.0980 N.3    57  ALA57      -0.1245
     38  CA       -22.5950   30.4870    1.9800 C.3    57  ALA57       0.1562
     39  C        -21.5810   31.3330    2.7100 C.2    57  ALA57       0.2260
     40  O        -21.4220   32.5230    2.4130 O.2    57  ALA57      -0.2867
     41  CB       -22.1900   30.3330    0.5110 C.3    57  ALA57       0.0290
     42  N        -21.6830   36.0970   -8.1680 N.3    89  VAL89      -0.1245
     43  CA       -22.2760   35.6590   -6.8990 C.3    89  VAL89       0.1561
     44  C        -22.5290   36.8770   -5.9860 C.2    89  VAL89       0.2260
     45  O        -21.6280   37.6720   -5.7670 O.2    89  VAL89      -0.2867
     46  CB       -21.3980   34.5990   -6.1660 C.3    89  VAL89       0.0252
     47  CG1      -22.1710   33.9620   -5.0240 C.3    89  VAL89       0.0019
     48  CG2      -20.9840   33.5180   -7.1300 C.3    89  VAL89       0.0019
     49  N        -21.8190   35.0690    1.3180 N.3   105  MET105     -0.1230
     50  CA       -22.2570   35.1570   -0.0580 C.3   105  MET105      0.1702
     51  C        -23.5740   34.5090   -0.2920 C.2   105  MET105      0.2592
     52  O        -24.0500   33.7330    0.5360 O.2   105  MET105     -0.2718
     53  CB       -21.2160   34.4360   -0.9280 C.3   105  MET105      0.0401
     54  CG       -19.8700   35.1250   -0.9840 C.3   105  MET105      0.0596
     55  SD       -18.5830   34.0380   -1.6840 S.3   105  MET105     -0.1393
     56  CE       -18.2880   32.9540   -0.2940 C.3   105  MET105      0.0692
     57  N        -24.1140   34.7380   -1.4810 N.am  106  GLU106     -0.1966
     58  CA       -25.3030   34.0780   -1.9780 C.3   106  GLU106      0.1733
     59  C        -25.0260   32.5560   -2.0270 C.2   106  GLU106      0.2616
     60  O        -23.9210   32.1340   -2.3860 O.2   106  GLU106     -0.2715
     61  CB       -25.5740   34.5840   -3.3910 C.3   106  GLU106      0.0429
     62  CG       -26.8490   34.0750   -4.0380 C.3   106  GLU106      0.1163
     63  CD       -26.8900   34.3190   -5.5350 C.2   106  GLU106      0.3649
     64  OE1      -26.0140   35.0510   -6.0490 O.co2 106  GLU106     -0.2457
     65  OE2      -27.7890   33.7610   -6.2020 O.co2 106  GLU106     -0.2457
     66  N        -26.0160   31.7430   -1.6360 N.am  107  HIS107     -0.1959
     67  CA       -25.8590   30.2980   -1.6610 C.3   107  HIS107      0.1787
     68  C        -26.2870   29.7980   -3.0430 C.2   107  HIS107      0.2620
     69  O        -27.3770   30.1390   -3.5170 O.2   107  HIS107     -0.2715
     70  CB       -26.6510   29.6310   -0.5310 C.3   107  HIS107      0.0785
     71  CG       -26.7420   28.1390   -0.6620 C.ar  107  HIS107      0.0821
     72  ND1      -27.9670   27.4970   -0.7680 N.ar  107  HIS107     -0.2267
     73  CD2      -25.7580   27.2120   -0.6980 C.ar  107  HIS107      0.1154
     74  CE1      -27.6860   26.2070   -0.8730 C.ar  107  HIS107      0.1986
     75  NE2      -26.3730   25.9870   -0.8420 N.ar  107  HIS107     -0.2212
     76  N        -25.3970   29.0450   -3.7150 N.am  108  MET108     -0.1977
     77  CA       -25.6830   28.5260   -5.0730 C.3   108  MET108      0.1605
     78  C        -25.8710   27.0230   -4.8880 C.2   108  MET108      0.2287
     79  O        -24.9280   26.2930   -4.6090 O.2   108  MET108     -0.2864
     80  CB       -24.5150   28.8630   -6.0180 C.3   108  MET108      0.0413
     81  CG       -24.2660   30.3790   -6.1930 C.3   108  MET108      0.0598
     82  SD       -25.5840   31.1620   -7.1800 S.3   108  MET108     -0.1393
     83  CE       -25.2230   30.4610   -8.8820 C.3   108  MET108      0.0692
     84  N        -23.8130   24.1540   -6.3750 N.3   111  GLY111     -0.1210
     85  CA       -22.3980   24.1640   -6.0150 C.3   111  GLY111      0.1956
     86  C        -21.5220   24.6950   -7.1370 C.2   111  GLY111      0.2612
     87  O        -21.9930   25.4300   -7.9930 O.2   111  GLY111     -0.2717
     88  N        -20.2540   24.2820   -7.1750 N.am  112  SER112     -0.1952
     89  CA       -19.3150   24.7330   -8.2030 C.3   112  SER112      0.1924
     90  C        -19.1480   23.7360   -9.3670 C.2   112  SER112      0.2314
     91  O        -19.4940   22.5710   -9.2280 O.2   112  SER112     -0.2863
     92  CB       -17.9710   25.0270   -7.5670 C.3   112  SER112      0.2116
     93  OG       -17.5850   23.8570   -6.8700 O.3   112  SER112     -0.2180
     94  N        -16.3910   22.4040  -10.6040 N.3   114  ASP114     -0.1225
     95  CA       -15.4520   21.2960  -10.4000 C.3   114  ASP114      0.1805
     96  C        -16.2710   20.1280   -9.8010 C.2   114  ASP114      0.2597
     97  O        -16.0620   18.9930  -10.1820 O.2   114  ASP114     -0.2718
     98  CB       -14.2880   21.6620   -9.4430 C.3   114  ASP114      0.1424
     99  CG       -14.7090   22.1340   -8.0490 C.2   114  ASP114      0.3668
    100  OD1      -15.6140   22.9850   -7.9610 O.co2 114  ASP114     -0.2456
    101  OD2      -14.1020   21.6720   -7.0440 O.co2 114  ASP114     -0.2456
    102  N        -17.2590   20.4240   -8.9310 N.am  115  GLN115     -0.1979
    103  CA       -18.0970   19.3870   -8.3020 C.3   115  GLN115      0.1601
    104  C        -19.0930   18.8270   -9.2850 C.2   115  GLN115      0.2287
    105  O        -19.3460   17.6120   -9.3030 O.2   115  GLN115     -0.2864
    106  CB       -18.8300   19.9090   -7.0610 C.3   115  GLN115      0.0394
    107  CG       -17.9290   20.5480   -5.9930 C.3   115  GLN115      0.0908
    108  CD       -18.7530   21.2950   -4.9390 C.2   115  GLN115      0.2608
    109  OE1      -19.7320   21.9930   -5.2270 O.2   115  GLN115     -0.2717
    110  NE2      -18.3440   21.2010   -3.6950 N.am  115  GLN115     -0.0878
    111  N        -13.8430   25.5200  -10.2960 N.3   156  SER156     -0.1202
    112  CA       -14.2400   25.6950   -8.8980 C.3   156  SER156      0.2020
    113  C        -14.6990   27.1160   -8.5820 C.2   156  SER156      0.2618
    114  O        -15.3190   27.3080   -7.5510 O.2   156  SER156     -0.2717
    115  CB       -13.1150   25.2700   -7.9630 C.3   156  SER156      0.2103
    116  OG       -12.0550   26.2080   -8.0300 O.3   156  SER156     -0.2182
    117  N        -14.4280   28.0950   -9.4690 N.am  157  ASN157     -0.1974
    118  CA       -14.8260   29.4900   -9.2670 C.3   157  ASN157      0.1688
    119  C        -16.0410   29.8590  -10.0870 C.2   157  ASN157      0.2292
    120  O        -16.3440   31.0460  -10.2280 O.2   157  ASN157     -0.2864
    121  CB       -13.6400   30.4500   -9.5350 C.3   157  ASN157      0.1181
    122  CG       -12.6680   30.4550   -8.3750 C.2   157  ASN157      0.2629
    123  OD1      -12.9150   29.8790   -7.3200 O.2   157  ASN157     -0.2716
    124  ND2      -11.5120   31.0350   -8.5470 N.am  157  ASN157     -0.0877
    125  N        -20.0150   28.9590  -10.2470 N.3   159  LEU159     -0.1245
    126  CA       -21.0890   28.4400   -9.4280 C.3   159  LEU159      0.1561
    127  C        -22.3670   28.3890  -10.1900 C.2   159  LEU159      0.2260
    128  O        -22.6080   29.2290  -11.0570 O.2   159  LEU159     -0.2867
    129  CB       -21.2290   29.2890   -8.1490 C.3   159  LEU159      0.0270
    130  CG       -19.9490   29.4690   -7.3510 C.3   159  LEU159      0.0019
    131  CD1      -20.1710   30.4380   -6.2170 C.3   159  LEU159      0.0001
    132  CD2      -19.4870   28.1830   -6.7360 C.3   159  LEU159      0.0001
    133  N        -17.2260   33.6140   -8.8620 N.3   169  CYS169     -0.1235
    134  CA       -16.8850   34.0000   -7.4980 C.3   169  CYS169      0.1677
    135  C        -15.3790   34.0360   -7.3730 C.2   169  CYS169      0.2270
    136  O        -14.6770   33.5880   -8.2790 O.2   169  CYS169     -0.2867
    137  CB       -17.5010   33.0530   -6.4690 C.3   169  CYS169      0.0956
    138  SG       -16.6940   31.4370   -6.3880 S.3   169  CYS169     -0.0801
@<TRIPOS>BOND
     1   128   127    2
     2    94    95    1
     3    95    96    1
     4    95    98    1
     5   111   112    1
     6   125   126    1
     7   120   119    2
     8   127   126    1
     9    97    96    2
    10   119   118    1
    11    96   102   am
    12   121   118    1
    13   121   122    1
    14   117   118    1
    15   117   113   am
    16    98    99    1
    17   126   129    1
    18    90    91    2
    19    90    89    1
    20   105   104    2
    21   104   103    1
    22   102   103    1
    23   112   113    1
    24   112   115    1
    25    83    82    1
    26   133   134    1
    27   113   114    2
    28   124   122   am
    29   122   123    2
    30   103   106    1
    31   136   135    2
    32    89    92    1
    33    89    88    1
    34    42    43    1
    35   129   130    1
    36    99   100   ar
    37    99   101   ar
    38   116   115    1
    39    87    86    2
    40    92    93    1
    41   134   135    1
    42   134   137    1
    43   130   132    1
    44   130   131    1
    45    82    81    1
    46    88    86   am
    47    86    85    1
    48    48    46    1
    49   106   107    1
    50    43    46    1
    51    43    44    1
    52   137   138    1
    53    84    85    1
    54    65    63   ar
    55    81    80    1
    56    46    47    1
    57    64    63   ar
    58    80    77    1
    59   107   108    1
    60    44    45    2
    61    63    62    1
    62   109   108    2
    63    77    78    1
    64    77    76    1
    65   108   110   am
    66    78    79    2
    67    62    61    1
    68    76    68   am
    69    69    68    2
    70    61    58    1
    71    68    67    1
    72    26    27    1
    73    26    23    1
    74    29    27   am
    75    27    28    2
    76    60    59    2
    77    59    58    1
    78    59    66   am
    79    22    23    1
    80    22    20   am
    81    58    57    1
    82    23    24    1
    83    55    54    1
    84    55    56    1
    85    67    66    1
    86    67    70    1
    87    19    20    1
    88    19    18    2
    89    57    51   am
    90    16    15    2
    91    20    21    2
    92     4     3    2
    93    54    53    1
    94    25    24    2
    95    53    50    1
    96    74    75   ar
    97    74    72   ar
    98    75    73   ar
    99    72    71   ar
   100    73    71   ar
   101    71    70    1
   102    15    18    1
   103    15    14    1
   104    10     9    1
   105    10    11    1
   106    51    50    1
   107    51    52    2
   108     3     9   am
   109     3     2    1
   110    50    49    1
   111    13    11   am
   112    13    14    1
   113     8     6    1
   114     5     2    1
   115     5     6    1
   116    11    12    2
   117    36    34    1
   118    41    38    1
   119    14    17    1
   120     7     6    1
   121     2     1    1
   122    35    34    1
   123    34    31    1
   124    38    37    1
   125    38    39    1
   126    40    39    2
   127    31    30    1
   128    31    32    1
   129    33    32    2
