@<TRIPOS>MOLECULE
tmp/3zlyA00.pdb
 107 98 0 0 0
SMALL
GASTEIGER

@<TRIPOS>ATOM
      1  N        -19.4120   23.0650    2.1430 N.3    35  LEU35      -0.1231
      2  CA       -19.6490   23.1860    0.6980 C.3    35  LEU35       0.1693
      3  C        -18.3920   22.9210   -0.1380 C.2    35  LEU35       0.2592
      4  O        -18.5050   22.6980   -1.3410 O.2    35  LEU35      -0.2718
      5  CB       -20.2030   24.5770    0.3440 C.3    35  LEU35       0.0284
      6  CG       -21.5490   24.9680    0.9400 C.3    35  LEU35       0.0019
      7  CD1      -21.8190   26.4400    0.7480 C.3    35  LEU35       0.0001
      8  CD2      -22.6800   24.1350    0.3620 C.3    35  LEU35       0.0001
      9  N        -17.2220   22.9880    0.4910 N.am   36  GLY36      -0.1957
     10  CA       -15.9360   22.7740   -0.1650 C.3    36  GLY36       0.1869
     11  C        -14.7690   23.3790    0.5900 C.2    36  GLY36       0.2309
     12  O        -14.9740   24.1570    1.5290 O.2    36  GLY36      -0.2863
     13  N        -15.3790   26.5860    2.9290 N.3    42  VAL42      -0.1245
     14  CA       -16.6680   27.2150    2.6600 C.3    42  VAL42       0.1561
     15  C        -17.7530   26.3920    3.3310 C.2    42  VAL42       0.2260
     16  O        -17.8980   25.2040    3.0410 O.2    42  VAL42      -0.2867
     17  CB       -16.9870   27.5100    1.1510 C.3    42  VAL42       0.0252
     18  CG1      -18.2840   28.3080    1.0150 C.3    42  VAL42       0.0019
     19  CG2      -15.8430   28.2540    0.4620 C.3    42  VAL42       0.0019
     20  N        -23.3960   31.1950    2.0810 N.3    55  ALA55      -0.1245
     21  CA       -22.1550   30.4600    1.9400 C.3    55  ALA55       0.1562
     22  C        -21.1200   31.3110    2.6950 C.2    55  ALA55       0.2260
     23  O        -20.9800   32.4950    2.4330 O.2    55  ALA55      -0.2867
     24  CB       -21.7810   30.3310    0.4700 C.3    55  ALA55       0.0290
     25  N        -17.2480   31.6780    3.6690 N.3    57  LYS57      -0.1245
     26  CA       -15.8690   31.3040    3.4240 C.3    57  LYS57       0.1561
     27  C        -15.0310   31.8390    4.5870 C.2    57  LYS57       0.2260
     28  O        -15.0440   33.0370    4.8560 O.2    57  LYS57      -0.2867
     29  CB       -15.3900   31.8600    2.0720 C.3    57  LYS57       0.0271
     30  CG       -13.8960   31.6070    1.8030 C.3    57  LYS57       0.0035
     31  CD       -13.5140   31.9930    0.3850 C.3    57  LYS57       0.0206
     32  CE       -12.1610   31.4400    0.0410 C.3    57  LYS57       0.1093
     33  NZ       -11.6510   32.0030   -1.2320 N.3    57  LYS57      -0.1314
     34  N        -21.4400   35.0500    1.2760 N.3   103  MET103     -0.1230
     35  CA       -21.9480   35.1380   -0.0870 C.3   103  MET103      0.1702
     36  C        -23.2650   34.4580   -0.2610 C.2   103  MET103      0.2592
     37  O        -23.6730   33.6580    0.5760 O.2   103  MET103     -0.2718
     38  CB       -20.9570   34.4300   -1.0300 C.3   103  MET103      0.0401
     39  CG       -19.6220   35.1110   -1.1470 C.3   103  MET103      0.0596
     40  SD       -18.4520   33.9450   -1.8800 S.3   103  MET103     -0.1393
     41  CE       -17.9290   33.0330   -0.4040 C.3   103  MET103      0.0692
     42  N        -23.8760   34.6920   -1.4160 N.am  104  GLU104     -0.1966
     43  CA       -25.0670   34.0000   -1.8630 C.3   104  GLU104      0.1733
     44  C        -24.7150   32.4900   -1.9490 C.2   104  GLU104      0.2616
     45  O        -23.6250   32.1240   -2.4330 O.2   104  GLU104     -0.2715
     46  CB       -25.4310   34.5240   -3.2510 C.3   104  GLU104      0.0429
     47  CG       -26.6480   33.8910   -3.8880 C.3   104  GLU104      0.1163
     48  CD       -26.8590   34.2610   -5.3450 C.2   104  GLU104      0.3649
     49  OE1      -26.0090   34.9820   -5.9180 O.co2 104  GLU104     -0.2457
     50  OE2      -27.8850   33.8270   -5.9170 O.co2 104  GLU104     -0.2457
     51  N        -25.6170   31.6290   -1.4280 N.am  105  HIS105     -0.1959
     52  CA       -25.4560   30.1690   -1.4810 C.3   105  HIS105      0.1787
     53  C        -25.9760   29.7340   -2.8480 C.2   105  HIS105      0.2620
     54  O        -27.0800   30.1150   -3.2270 O.2   105  HIS105     -0.2715
     55  CB       -26.2500   29.4800   -0.3480 C.3   105  HIS105      0.0785
     56  CG       -26.3690   27.9950   -0.5120 C.ar  105  HIS105      0.0821
     57  ND1      -27.5910   27.3920   -0.7570 N.ar  105  HIS105     -0.2267
     58  CD2      -25.4050   27.0410   -0.5010 C.ar  105  HIS105      0.1154
     59  CE1      -27.3340   26.0970   -0.8770 C.ar  105  HIS105      0.1986
     60  NE2      -26.0320   25.8420   -0.7460 N.ar  105  HIS105     -0.2212
     61  N        -25.1580   28.9940   -3.6100 N.am  106  MET106     -0.1977
     62  CA       -25.4840   28.4720   -4.9550 C.3   106  MET106      0.1605
     63  C        -25.6700   26.9650   -4.7760 C.2   106  MET106      0.2287
     64  O        -24.7120   26.2490   -4.5040 O.2   106  MET106     -0.2864
     65  CB       -24.3230   28.7920   -5.9140 C.3   106  MET106      0.0413
     66  CG       -24.0920   30.3000   -6.1110 C.3   106  MET106      0.0598
     67  SD       -25.3860   31.0920   -7.0920 S.3   106  MET106     -0.1393
     68  CE       -25.0640   30.4050   -8.7710 C.3   106  MET106      0.0692
     69  N        -23.5060   24.0980   -6.4090 N.3   109  GLY109     -0.1210
     70  CA       -22.0820   24.1190   -6.0470 C.3   109  GLY109      0.1956
     71  C        -21.2070   24.6590   -7.1740 C.2   109  GLY109      0.2612
     72  O        -21.6760   25.4060   -8.0150 O.2   109  GLY109     -0.2717
     73  N        -19.9500   24.2610   -7.2320 N.am  110  SER110     -0.1952
     74  CA       -19.0470   24.7120   -8.2990 C.3   110  SER110      0.1924
     75  C        -18.9490   23.7180   -9.4750 C.2   110  SER110      0.2314
     76  O        -19.3330   22.5700   -9.3420 O.2   110  SER110     -0.2863
     77  CB       -17.6580   24.9810   -7.7460 C.3   110  SER110      0.2116
     78  OG       -17.2440   23.8210   -7.0530 O.3   110  SER110     -0.2180
     79  N        -17.1110   20.3760   -8.9400 N.3   113  GLN113     -0.1245
     80  CA       -17.9680   19.3840   -8.2590 C.3   113  GLN113      0.1566
     81  C        -18.9790   18.8200   -9.2190 C.2   113  GLN113      0.2260
     82  O        -19.2450   17.6170   -9.2150 O.2   113  GLN113     -0.2867
     83  CB       -18.6930   20.0150   -7.0450 C.3   113  GLN113      0.0367
     84  CG       -17.7580   20.6590   -6.0060 C.3   113  GLN113      0.0905
     85  CD       -18.4990   21.4560   -4.9320 C.2   113  GLN113      0.2608
     86  OE1      -19.4390   22.2430   -5.1770 O.2   113  GLN113     -0.2717
     87  NE2      -18.0150   21.3400   -3.7160 N.am  113  GLN113     -0.0878
     88  N        -13.6280   25.4900  -10.2550 N.3   154  SER154     -0.1217
     89  CA       -14.0460   25.6710   -8.8680 C.3   154  SER154      0.1889
     90  C        -14.4810   27.1170   -8.5450 C.2   154  SER154      0.2288
     91  O        -15.0690   27.3280   -7.4990 O.2   154  SER154     -0.2866
     92  CB       -12.9690   25.1660   -7.9070 C.3   154  SER154      0.2089
     93  OG       -11.8700   26.0580   -7.8290 O.3   154  SER154     -0.2183
     94  N        -19.8180   28.9760  -10.1970 N.3   157  LEU157     -0.1245
     95  CA       -20.8840   28.4000   -9.3660 C.3   157  LEU157      0.1561
     96  C        -22.1470   28.3410  -10.1120 C.2   157  LEU157      0.2260
     97  O        -22.3870   29.2010  -10.9410 O.2   157  LEU157     -0.2867
     98  CB       -21.0850   29.2040   -8.0610 C.3   157  LEU157      0.0270
     99  CG       -19.8290   29.4760   -7.2310 C.3   157  LEU157      0.0019
    100  CD1      -20.1760   30.3410   -6.0160 C.3   157  LEU157      0.0001
    101  CD2      -19.1720   28.1800   -6.7680 C.3   157  LEU157      0.0001
    102  N        -17.0540   33.6280   -8.8610 N.3   167  CYS167     -0.1235
    103  CA       -16.7320   34.0140   -7.4800 C.3   167  CYS167      0.1677
    104  C        -15.2070   34.0920   -7.3590 C.2   167  CYS167      0.2270
    105  O        -14.5120   33.7360   -8.3100 O.2   167  CYS167     -0.2867
    106  CB       -17.3350   33.0340   -6.4650 C.3   167  CYS167      0.0956
    107  SG       -16.5600   31.3900   -6.4540 S.3   167  CYS167     -0.0801
@<TRIPOS>BOND
     1    97    96    2
     2    88    89    1
     3    94    95    1
     4    96    95    1
     5    75    76    2
     6    75    74    1
     7    95    98    1
     8    81    82    2
     9    81    80    1
    10    79    80    1
    11    89    90    1
    12    89    92    1
    13   102   103    1
    14    68    67    1
    15    90    91    2
    16   105   104    2
    17    74    77    1
    18    74    73    1
    19    80    83    1
    20    98    99    1
    21    72    71    2
    22    92    93    1
    23    77    78    1
    24   103   104    1
    25   103   106    1
    26    73    71   am
    27    99   101    1
    28    99   100    1
    29    71    70    1
    30    67    66    1
    31    83    84    1
    32   106   107    1
    33    69    70    1
    34    66    65    1
    35    84    85    1
    36    49    48   ar
    37    50    48   ar
    38    65    62    1
    39    48    47    1
    40    86    85    2
    41    62    63    1
    42    62    61    1
    43    85    87   am
    44    63    64    2
    45    47    46    1
    46    61    53   am
    47    46    43    1
    48    54    53    2
    49    53    52    1
    50    45    44    2
    51    44    43    1
    52    44    51   am
    53    40    39    1
    54    40    41    1
    55    43    42    1
    56    52    51    1
    57    52    55    1
    58    42    36   am
    59     4     3    2
    60    33    32    1
    61    39    38    1
    62    38    35    1
    63    59    57   ar
    64    59    60   ar
    65    57    56   ar
    66    60    58   ar
    67    56    58   ar
    68    56    55    1
    69    36    35    1
    70    36    37    2
    71    10     9    1
    72    10    11    1
    73     3     9   am
    74     3     2    1
    75    35    34    1
    76    32    31    1
    77     5     2    1
    78     5     6    1
    79     8     6    1
    80    31    30    1
    81    19    17    1
    82    24    21    1
    83    11    12    2
    84     2     1    1
    85     7     6    1
    86    18    17    1
    87    17    14    1
    88    30    29    1
    89    21    20    1
    90    21    22    1
    91    29    26    1
    92    23    22    2
    93    14    13    1
    94    14    15    1
    95    16    15    2
    96    26    25    1
    97    26    27    1
    98    27    28    2
