@<TRIPOS>MOLECULE
tmp/3zm4A00.pdb
 164 153 0 0 0
SMALL
GASTEIGER

@<TRIPOS>ATOM
      1  N        -19.8290   23.4950    2.1830 N.3    35  LEU35      -0.1231
      2  CA       -20.0380   23.5790    0.7290 C.3    35  LEU35       0.1693
      3  C        -18.7840   23.2510   -0.0950 C.2    35  LEU35       0.2593
      4  O        -18.8900   22.5930   -1.1280 O.2    35  LEU35      -0.2718
      5  CB       -20.5650   24.9640    0.3210 C.3    35  LEU35       0.0284
      6  CG       -21.9320   25.3810    0.8570 C.3    35  LEU35       0.0019
      7  CD1      -22.2290   26.8260    0.5010 C.3    35  LEU35       0.0001
      8  CD2      -23.0290   24.4430    0.3780 C.3    35  LEU35       0.0001
      9  N        -17.6250   23.7210    0.3540 N.am   36  GLY36      -0.1942
     10  CA       -16.3660   23.4880   -0.3360 C.3    36  GLY36       0.2014
     11  C        -15.2100   24.2760    0.2260 C.2    36  GLY36       0.2639
     12  O        -15.3680   25.0250    1.1900 O.2    36  GLY36      -0.2714
     13  N        -14.0350   24.0780   -0.3730 N.am   37  ALA37      -0.1963
     14  CA       -12.7500   24.7130   -0.0620 C.3    37  ALA37       0.1728
     15  C        -11.8910   24.6000   -1.3430 C.2    37  ALA37       0.2617
     16  O        -11.9090   23.5470   -1.9850 O.2    37  ALA37      -0.2715
     17  CB       -12.0750   23.9710    1.0870 C.3    37  ALA37       0.0334
     18  N        -11.1770   25.6500   -1.7480 N.am   38  GLY38      -0.1940
     19  CA       -11.0960   26.9560   -1.1140 C.3    38  GLY38       0.2014
     20  C         -9.7670   27.6270   -1.3680 C.2    38  GLY38       0.2638
     21  O         -8.7220   26.9730   -1.3060 O.2    38  GLY38      -0.2714
     22  N         -9.7960   28.9310   -1.6780 N.am   39  ASN39      -0.1972
     23  CA        -8.5790   29.7150   -1.8810 C.3    39  ASN39       0.1688
     24  C         -8.2170   30.2560   -0.4910 C.2    39  ASN39       0.2292
     25  O         -8.6830   31.3320   -0.0760 O.2    39  ASN39      -0.2864
     26  CB        -8.7960   30.8360   -2.9110 C.3    39  ASN39       0.1181
     27  CG        -7.9830   30.6760   -4.1820 C.2    39  ASN39       0.2629
     28  OD1       -6.7420   30.7220   -4.1780 O.2    39  ASN39      -0.2716
     29  ND2       -8.6680   30.5250   -5.3070 N.am   39  ASN39      -0.0877
     30  N        -15.8510   27.1400    2.8880 N.3    43  VAL43      -0.1245
     31  CA       -17.1440   27.7730    2.6520 C.3    43  VAL43       0.1561
     32  C        -18.2110   26.9180    3.2930 C.2    43  VAL43       0.2260
     33  O        -18.3430   25.7310    2.9830 O.2    43  VAL43      -0.2867
     34  CB       -17.4380   28.0640    1.1390 C.3    43  VAL43       0.0252
     35  CG1      -18.7390   28.8570    0.9800 C.3    43  VAL43       0.0019
     36  CG2      -16.2730   28.8110    0.4840 C.3    43  VAL43       0.0019
     37  N        -23.9570   31.6730    2.1080 N.3    56  ALA56      -0.1245
     38  CA       -22.6970   30.9300    2.0120 C.3    56  ALA56       0.1562
     39  C        -21.6800   31.8010    2.7660 C.2    56  ALA56       0.2260
     40  O        -21.5900   33.0080    2.5240 O.2    56  ALA56      -0.2867
     41  CB       -22.2760   30.7630    0.5710 C.3    56  ALA56       0.0290
     42  N        -17.7500   32.2460    3.7190 N.3    58  LYS58      -0.1245
     43  CA       -16.3630   31.8760    3.4680 C.3    58  LYS58       0.1561
     44  C        -15.5200   32.3420    4.6660 C.2    58  LYS58       0.2260
     45  O        -15.5410   33.5250    5.0130 O.2    58  LYS58      -0.2867
     46  CB       -15.8650   32.5100    2.1530 C.3    58  LYS58       0.0271
     47  CG       -14.4400   32.1030    1.7390 C.3    58  LYS58       0.0035
     48  CD       -13.9800   32.8860    0.5090 C.3    58  LYS58       0.0206
     49  CE       -12.5140   32.6800    0.2020 C.3    58  LYS58       0.1093
     50  NZ       -12.2640   31.4370   -0.5760 N.3    58  LYS58      -0.1314
     51  N        -21.8610   36.5480   -8.1390 N.3    88  VAL88      -0.1245
     52  CA       -22.5350   36.0620   -6.9420 C.3    88  VAL88       0.1561
     53  C        -22.7920   37.2270   -5.9490 C.2    88  VAL88       0.2260
     54  O        -21.9530   38.1100   -5.7860 O.2    88  VAL88      -0.2867
     55  CB       -21.8040   34.8370   -6.3190 C.3    88  VAL88       0.0252
     56  CG1      -20.5260   35.2550   -5.6120 C.3    88  VAL88       0.0019
     57  CG2      -22.7130   34.0550   -5.3770 C.3    88  VAL88       0.0019
     58  N        -22.0300   35.6220    1.3840 N.3   104  MET104     -0.1230
     59  CA       -22.5550   35.7790    0.0590 C.3   104  MET104      0.1702
     60  C        -23.7790   34.9290   -0.1830 C.2   104  MET104      0.2592
     61  O        -24.1920   34.1540    0.6830 O.2   104  MET104     -0.2718
     62  CB       -21.4410   35.5560   -1.0050 C.3   104  MET104      0.0401
     63  CG       -20.3720   34.5700   -0.6310 C.3   104  MET104      0.0596
     64  SD       -18.7420   34.8220   -1.4240 S.3   104  MET104     -0.1393
     65  CE       -19.1290   34.7370   -2.9550 C.3   104  MET104      0.0692
     66  N        -24.3980   35.1370   -1.3400 N.am  105  GLU105     -0.1966
     67  CA       -25.5550   34.3940   -1.8410 C.3   105  GLU105      0.1733
     68  C        -25.1860   32.8960   -1.9270 C.2   105  GLU105      0.2616
     69  O        -24.0500   32.5600   -2.3000 O.2   105  GLU105     -0.2715
     70  CB       -25.8750   34.9390   -3.2340 C.3   105  GLU105      0.0429
     71  CG       -27.0780   34.3440   -3.9450 C.3   105  GLU105      0.1163
     72  CD       -27.1540   34.7260   -5.4140 C.2   105  GLU105      0.3649
     73  OE1      -26.2990   35.5150   -5.8810 O.co2 105  GLU105     -0.2457
     74  OE2      -28.0610   34.2140   -6.1080 O.co2 105  GLU105     -0.2457
     75  N        -26.1240   32.0060   -1.5330 N.am  106  HIS106     -0.1959
     76  CA       -25.9030   30.5700   -1.5980 C.3   106  HIS106      0.1787
     77  C        -26.3740   30.0540   -2.9620 C.2   106  HIS106      0.2620
     78  O        -27.5050   30.3290   -3.3650 O.2   106  HIS106     -0.2715
     79  CB       -26.5780   29.8390   -0.4270 C.3   106  HIS106      0.0785
     80  CG       -26.6530   28.3490   -0.6020 C.ar  106  HIS106      0.0821
     81  ND1      -25.6610   27.4340   -0.7050 N.ar  106  HIS106     -0.2267
     82  CD2      -27.8680   27.6980   -0.7010 C.ar  106  HIS106      0.1154
     83  CE1      -26.2680   26.2050   -0.8510 C.ar  106  HIS106      0.1986
     84  NE2      -27.5810   26.4180   -0.8660 N.ar  106  HIS106     -0.2212
     85  N        -25.4830   29.3320   -3.6830 N.am  107  MET107     -0.1977
     86  CA       -25.7650   28.7530   -5.0040 C.3   107  MET107      0.1605
     87  C        -25.9210   27.2460   -4.7930 C.2   107  MET107      0.2287
     88  O        -24.9330   26.5550   -4.5380 O.2   107  MET107     -0.2864
     89  CB       -24.6120   29.0970   -5.9780 C.3   107  MET107      0.0413
     90  CG       -24.4290   30.5950   -6.2120 C.3   107  MET107      0.0598
     91  SD       -25.7580   31.3230   -7.2070 S.3   107  MET107     -0.1393
     92  CE       -25.3100   30.7220   -8.9230 C.3   107  MET107      0.0692
     93  N        -23.7780   24.3690   -6.4290 N.3   110  GLY110     -0.1210
     94  CA       -22.3480   24.4010   -6.1160 C.3   110  GLY110      0.1956
     95  C        -21.4970   24.9520   -7.2570 C.2   110  GLY110      0.2612
     96  O        -21.9790   25.7380   -8.0760 O.2   110  GLY110     -0.2717
     97  N        -20.2270   24.5450   -7.3170 N.am  111  SER111     -0.1952
     98  CA       -19.3170   24.9740   -8.3720 C.3   111  SER111      0.1924
     99  C        -19.2470   23.9620   -9.5300 C.2   111  SER111      0.2314
    100  O        -19.6330   22.8010   -9.3610 O.2   111  SER111     -0.2863
    101  CB       -17.9340   25.2580   -7.8050 C.3   111  SER111      0.2116
    102  OG       -17.4510   24.0910   -7.1750 O.3   111  SER111     -0.2180
    103  N        -16.6090   22.5660  -10.8030 N.3   113  ASP113     -0.1225
    104  CA       -15.6760   21.4480  -10.5950 C.3   113  ASP113      0.1805
    105  C        -16.4350   20.2590   -9.9360 C.2   113  ASP113      0.2597
    106  O        -16.2370   19.1160  -10.3380 O.2   113  ASP113     -0.2718
    107  CB       -14.4170   21.8450   -9.7930 C.3   113  ASP113      0.1424
    108  CG       -14.6020   21.9520   -8.2940 C.2   113  ASP113      0.3668
    109  OD1      -15.4170   22.7750   -7.8650 O.co2 113  ASP113     -0.2456
    110  OD2      -13.9180   21.2020   -7.5470 O.co2 113  ASP113     -0.2456
    111  N        -17.3870   20.5560   -9.0190 N.am  114  GLN114     -0.1979
    112  CA       -18.2170   19.5530   -8.3430 C.3   114  GLN114      0.1601
    113  C        -19.2590   18.9850   -9.2810 C.2   114  GLN114      0.2287
    114  O        -19.5490   17.7830   -9.2290 O.2   114  GLN114     -0.2864
    115  CB       -18.8930   20.1220   -7.0820 C.3   114  GLN114      0.0394
    116  CG       -17.9320   20.7660   -6.0790 C.3   114  GLN114      0.0908
    117  CD       -18.6710   21.6120   -5.0350 C.2   114  GLN114      0.2608
    118  OE1      -19.6380   22.3500   -5.3140 O.2   114  GLN114     -0.2717
    119  NE2      -18.1920   21.5620   -3.8100 N.am  114  GLN114     -0.0878
    120  N        -11.5710   29.5900  -13.2380 N.3   153  LYS153     -0.1245
    121  CA       -11.3590   28.1370  -13.1790 C.3   153  LYS153      0.1561
    122  C        -12.7060   27.4670  -12.8940 C.2   153  LYS153      0.2260
    123  O        -13.5930   28.1730  -12.4640 O.2   153  LYS153     -0.2867
    124  CB       -10.2870   27.7540  -12.1380 C.3   153  LYS153      0.0271
    125  CG       -10.5340   28.2650  -10.7220 C.3   153  LYS153      0.0035
    126  CD        -9.4750   27.7000   -9.8100 C.3   153  LYS153      0.0206
    127  CE        -9.5550   28.2920   -8.4220 C.3   153  LYS153      0.1093
    128  NZ        -8.5540   27.6850   -7.5150 N.3   153  LYS153     -0.1314
    129  N        -13.8850   25.6460  -10.4420 N.3   155  SER155     -0.1202
    130  CA       -14.2930   25.7880   -9.0400 C.3   155  SER155      0.2020
    131  C        -14.7590   27.1970   -8.6790 C.2   155  SER155      0.2618
    132  O        -15.4210   27.3420   -7.6630 O.2   155  SER155     -0.2717
    133  CB       -13.2030   25.3060   -8.0890 C.3   155  SER155      0.2103
    134  OG       -12.0520   26.1240   -8.1720 O.3   155  SER155     -0.2182
    135  N        -14.4480   28.2280   -9.5190 N.am  156  ASN156     -0.1974
    136  CA       -14.8870   29.6080   -9.2870 C.3   156  ASN156      0.1688
    137  C        -16.0990   30.0040  -10.1470 C.2   156  ASN156      0.2292
    138  O        -16.3950   31.1950  -10.2820 O.2   156  ASN156     -0.2864
    139  CB       -13.7240   30.6210   -9.4290 C.3   156  ASN156      0.1181
    140  CG       -12.7770   30.6030   -8.2620 C.2   156  ASN156      0.2629
    141  OD1      -13.0950   30.1190   -7.1600 O.2   156  ASN156     -0.2716
    142  ND2      -11.5720   31.1020   -8.4860 N.am  156  ASN156     -0.0877
    143  N        -20.1160   29.2130  -10.2220 N.3   158  LEU158     -0.1245
    144  CA       -21.2280   28.6900   -9.4340 C.3   158  LEU158      0.1561
    145  C        -22.4920   28.6280  -10.2260 C.2   158  LEU158      0.2260
    146  O        -22.7120   29.4660  -11.0880 O.2   158  LEU158     -0.2867
    147  CB       -21.4200   29.4970   -8.1410 C.3   158  LEU158      0.0270
    148  CG       -20.1510   29.7700   -7.3120 C.3   158  LEU158      0.0019
    149  CD1      -20.4400   30.8010   -6.2010 C.3   158  LEU158      0.0001
    150  CD2      -19.5350   28.4770   -6.7550 C.3   158  LEU158      0.0001
    151  N        -17.3670   33.8070   -8.8620 N.3   168  CYS168     -0.1221
    152  CA       -17.0290   34.1340   -7.4800 C.3   168  CYS168      0.1808
    153  C        -15.5010   34.2280   -7.3320 C.2   168  CYS168      0.2601
    154  O        -14.7750   33.8860   -8.2730 O.2   168  CYS168     -0.2717
    155  CB       -17.6390   33.1220   -6.5040 C.3   168  CYS168      0.0970
    156  SG       -16.7880   31.5170   -6.4380 S.3   168  CYS168     -0.0800
    157  N        -15.0270   34.6850   -6.1650 N.am  169  ASP169     -0.1973
    158  CA       -13.6170   34.7430   -5.7440 C.3   169  ASP169      0.1709
    159  C        -12.6630   35.5110   -6.7170 C.2   169  ASP169      0.2293
    160  O        -11.6500   34.9850   -7.1860 O.2   169  ASP169     -0.2864
    161  CB       -13.1040   33.3110   -5.4260 C.3   169  ASP169      0.1436
    162  CG       -11.6430   33.1780   -5.0380 C.2   169  ASP169      0.3671
    163  OD1      -11.1950   33.9240   -4.1350 O.co2 169  ASP169     -0.2456
    164  OD2      -10.9390   32.3470   -5.6600 O.co2 169  ASP169     -0.2456
@<TRIPOS>BOND
     1   120   121    1
     2   121   122    1
     3   121   124    1
     4   122   123    2
     5   124   125    1
     6   146   145    2
     7   103   104    1
     8   125   126    1
     9   104   105    1
    10   104   107    1
    11   129   130    1
    12   106   105    2
    13   138   137    2
    14   145   144    1
    15   143   144    1
    16   137   136    1
    17   105   111   am
    18   126   127    1
    19   107   108    1
    20    99   100    2
    21    99    98    1
    22   135   136    1
    23   135   131   am
    24   144   147    1
    25   139   136    1
    26   139   140    1
    27   113   114    2
    28   113   112    1
    29   130   131    1
    30   130   133    1
    31   111   112    1
    32    92    91    1
    33   151   152    1
    34   131   132    2
    35   142   140   am
    36   127   128    1
    37    98   101    1
    38    98    97    1
    39   112   115    1
    40   108   109   ar
    41   108   110   ar
    42   154   153    2
    43   140   141    2
    44   134   133    1
    45   147   148    1
    46    51    52    1
    47    96    95    2
    48   101   102    1
    49   152   153    1
    50   152   155    1
    51   153   157   am
    52    97    95   am
    53   148   150    1
    54   148   149    1
    55    95    94    1
    56    91    90    1
    57   160   159    2
    58   115   116    1
    59    52    55    1
    60    52    53    1
    61   159   158    1
    62   155   156    1
    63    93    94    1
    64    55    56    1
    65    55    57    1
    66    90    89    1
    67   157   158    1
    68    74    72   ar
    69   116   117    1
    70    89    86    1
    71    53    54    2
    72    73    72   ar
    73   158   161    1
    74   164   162   ar
    75   161   162    1
    76    72    71    1
    77   118   117    2
    78    29    27   am
    79   162   163   ar
    80   117   119   am
    81    86    87    1
    82    86    85    1
    83    87    88    2
    84    27    28    2
    85    27    26    1
    86    71    70    1
    87    85    77   am
    88    78    77    2
    89    70    67    1
    90    77    76    1
    91    65    64    1
    92    26    23    1
    93    69    68    2
    94    16    15    2
    95    68    67    1
    96    68    75   am
    97    23    22    1
    98    23    24    1
    99    67    66    1
   100    18    15   am
   101    18    19    1
   102    22    20   am
   103    76    75    1
   104    76    79    1
   105    64    63    1
   106    20    21    2
   107    20    19    1
   108    15    14    1
   109    66    60   am
   110     4     3    2
   111    62    63    1
   112    62    59    1
   113    84    83   ar
   114    84    82   ar
   115    83    81   ar
   116    81    80   ar
   117    82    80   ar
   118    80    79    1
   119    50    49    1
   120    24    25    2
   121    13    14    1
   122    13    11   am
   123    10    11    1
   124    10     9    1
   125    60    59    1
   126    60    61    2
   127     3     9   am
   128     3     2    1
   129    14    17    1
   130    59    58    1
   131    49    48    1
   132    11    12    2
   133     5     2    1
   134     5     6    1
   135     8     6    1
   136    36    34    1
   137     7     6    1
   138    48    47    1
   139    41    38    1
   140     2     1    1
   141    35    34    1
   142    34    31    1
   143    47    46    1
   144    38    37    1
   145    38    39    1
   146    46    43    1
   147    40    39    2
   148    31    30    1
   149    31    32    1
   150    33    32    2
   151    43    42    1
   152    43    44    1
   153    44    45    2
