@<TRIPOS>MOLECULE
tmp/3zm7A00.pdb
 156 147 0 0 0
SMALL
GASTEIGER

@<TRIPOS>ATOM
      1  N         -0.7280  -10.2030   40.6750 N.3    33  GLU33      -0.1245
      2  CA         0.2460  -10.7260   39.7380 C.3    33  GLU33       0.1567
      3  C          0.4110   -9.7680   38.5930 C.2    33  GLU33       0.2260
      4  O          1.5390   -9.4830   38.2220 O.2    33  GLU33      -0.2867
      5  CB        -0.1320  -12.1030   39.1960 C.3    33  GLU33       0.0388
      6  CG         0.1800  -13.2640   40.1180 C.3    33  GLU33       0.1160
      7  CD         1.6540  -13.4300   40.3870 C.2    33  GLU33       0.3649
      8  OE1        2.4720  -12.9390   39.5980 O.co2  33  GLU33      -0.2457
      9  OE2        1.9990  -14.0460   41.4030 O.co2  33  GLU33      -0.2457
     10  N          1.5880   -5.9590   39.6180 N.3    36  ASP36      -0.1225
     11  CA         3.0120   -6.0370   39.9760 C.3    36  ASP36       0.1805
     12  C          3.8580   -5.8990   38.7430 C.2    36  ASP36       0.2598
     13  O          4.8260   -5.1180   38.7310 O.2    36  ASP36      -0.2718
     14  CB         3.3800   -7.3690   40.6480 C.3    36  ASP36       0.1424
     15  CG         2.8660   -7.4910   42.0710 C.2    36  ASP36       0.3668
     16  OD1        2.3680   -6.4870   42.6380 O.co2  36  ASP36      -0.2456
     17  OD2        2.9420   -8.6200   42.6220 O.co2  36  ASP36      -0.2456
     18  N          3.4910   -6.6920   37.7280 N.am   37  ASN37      -0.1960
     19  CA         4.1850   -6.7450   36.4610 C.3    37  ASN37       0.1819
     20  C          4.1960   -5.3790   35.7880 C.2    37  ASN37       0.2621
     21  O          5.1710   -5.0250   35.1130 O.2    37  ASN37      -0.2715
     22  CB         3.5660   -7.8080   35.5460 C.3    37  ASN37       0.1195
     23  CG         4.0640   -9.2220   35.8400 C.2    37  ASN37       0.2630
     24  OD1        4.9290   -9.4540   36.6710 O.2    37  ASN37      -0.2716
     25  ND2        3.5280  -10.1660   35.1200 N.am   37  ASN37      -0.0877
     26  N          3.1310   -4.6120   35.9970 N.am   38  ALA38      -0.1977
     27  CA         3.0610   -3.2670   35.4530 C.3    38  ALA38       0.1597
     28  C          3.9620   -2.3060   36.2280 C.2    38  ALA38       0.2287
     29  O          4.7680   -1.5700   35.6560 O.2    38  ALA38      -0.2864
     30  CB         1.6350   -2.7820   35.4540 C.3    38  ALA38       0.0319
     31  N          6.5060   -2.9930   37.9030 N.3    40  ASP40      -0.1225
     32  CA         7.9210   -3.2920   37.6640 C.3    40  ASP40       0.1805
     33  C          8.4640   -2.4350   36.5580 C.2    40  ASP40       0.2597
     34  O          9.6480   -2.1380   36.5480 O.2    40  ASP40      -0.2718
     35  CB         8.1560   -4.7670   37.3360 C.3    40  ASP40       0.1424
     36  CG         8.0430   -5.6700   38.5540 C.2    40  ASP40       0.3668
     37  OD1        7.6060   -5.1860   39.6220 O.co2  40  ASP40      -0.2456
     38  OD2        8.3720   -6.8730   38.4370 O.co2  40  ASP40      -0.2456
     39  N          7.5990   -2.0490   35.6230 N.am   41  GLU41      -0.1979
     40  CA         7.9750   -1.0790   34.5980 C.3    41  GLU41       0.1602
     41  C          8.2080    0.2850   35.2460 C.2    41  GLU41       0.2287
     42  O          9.2950    0.8330   35.1580 O.2    41  GLU41      -0.2864
     43  CB         6.9030   -0.9960   33.5040 C.3    41  GLU41       0.0415
     44  CG         7.4360   -1.1810   32.0930 C.3    41  GLU41       0.1163
     45  CD         8.4860   -2.2680   31.9800 C.2    41  GLU41       0.3649
     46  OE1        8.2060   -3.4210   32.2790 O.co2  41  GLU41      -0.2457
     47  OE2        9.6160   -1.9800   31.6030 O.co2  41  GLU41      -0.2457
     48  N         -0.7660    0.0140   31.4560 N.3    64  ASP64      -0.1239
     49  CA         0.4060    0.8180   31.7720 C.3    64  ASP64       0.1674
     50  C          0.9580    1.4430   30.5030 C.2    64  ASP64       0.2266
     51  O          0.5340    1.0990   29.3910 O.2    64  ASP64      -0.2867
     52  CB         1.4760   -0.0680   32.3930 C.3    64  ASP64       0.1410
     53  CG         2.0790   -1.0360   31.3910 C.2    64  ASP64       0.3668
     54  OD1        3.0630   -0.6630   30.7040 O.co2  64  ASP64      -0.2456
     55  OD2        1.5450   -2.1700   31.2740 O.co2  64  ASP64      -0.2456
     56  N          7.1940   -0.2070   28.4660 N.3    67  ARG67      -0.1231
     57  CA         7.7870   -0.5690   27.1970 C.3    67  ARG67       0.1694
     58  C          7.0050   -1.6160   26.4800 C.2    67  ARG67       0.2593
     59  O          7.4010   -2.0530   25.4270 O.2    67  ARG67      -0.2718
     60  CB         9.1860   -1.1300   27.4020 C.3    67  ARG67       0.0321
     61  CG         9.9290   -0.5900   28.5990 C.3    67  ARG67       0.0489
     62  CD        11.2290   -1.3330   28.7430 C.3    67  ARG67       0.2205
     63  NE        11.7240   -1.2950   30.1070 N.pl3  67  ARG67      -0.0865
     64  CZ        12.3530   -2.3050   30.6930 C.cat  67  ARG67       0.5346
     65  NH1       12.5560   -3.4310   30.0280 N.pl3  67  ARG67       0.1354
     66  NH2       12.7800   -2.1870   31.9410 N.pl3  67  ARG67       0.1354
     67  N          5.9060   -2.0510   27.0620 N.am   68  GLY68      -0.1942
     68  CA         5.1080   -3.1100   26.4790 C.3    68  GLY68       0.2014
     69  C          5.6630   -4.4420   26.8730 C.2    68  GLY68       0.2639
     70  O          6.6000   -4.5100   27.6260 O.2    68  GLY68      -0.2714
     71  N          5.0700   -5.5030   26.3760 N.am   69  ILE69      -0.1963
     72  CA         5.5170   -6.8250   26.7060 C.3    69  ILE69       0.1712
     73  C          6.1530   -7.2590   25.4190 C.2    69  ILE69       0.2458
     74  O          5.5820   -7.0230   24.3540 O.2    69  ILE69      -0.2730
     75  CB         4.3490   -7.7750   27.0410 C.3    69  ILE69       0.0289
     76  CG1        3.5080   -7.2670   28.2080 C.3    69  ILE69       0.0022
     77  CG2        4.8700   -9.1460   27.3940 C.3    69  ILE69       0.0023
     78  CD1        2.0740   -6.9200   27.8890 C.3    69  ILE69       0.0001
     79  N          7.4040   -7.8880   25.5310 N.am   70  PRO70      -0.2727
     80  CA         7.9840   -8.2340   24.2240 C.3    70  PRO70       0.1402
     81  C          7.0510   -9.0700   23.3730 C.2    70  PRO70       0.2269
     82  O          6.5300  -10.0480   23.8450 O.2    70  PRO70      -0.2865
     83  CB         9.1640   -9.1090   24.6020 C.3    70  PRO70       0.0296
     84  CG         9.6900   -8.4850   25.8250 C.3    70  PRO70       0.0237
     85  CD         8.4690   -8.2250   26.6090 C.3    70  PRO70       0.0939
     86  N          5.6630  -15.8950   28.2660 N.3    84  VAL84      -0.1231
     87  CA         5.2970  -15.2700   29.5240 C.3    84  VAL84       0.1692
     88  C          3.9350  -15.7740   29.9760 C.2    84  VAL84       0.2591
     89  O          3.7650  -16.2180   31.1040 O.2    84  VAL84      -0.2718
     90  CB         5.2500  -13.7430   29.3580 C.3    84  VAL84       0.0266
     91  CG1        4.3980  -13.1050   30.4200 C.3    84  VAL84       0.0020
     92  CG2        6.6400  -13.1680   29.4120 C.3    84  VAL84       0.0020
     93  N          2.9780  -15.7380   29.0670 N.am   85  MET85      -0.1979
     94  CA         1.6040  -16.0330   29.3880 C.3    85  MET85       0.1605
     95  C          1.2110  -17.5210   29.4590 C.2    85  MET85       0.2287
     96  O          0.1660  -17.8270   30.0140 O.2    85  MET85      -0.2864
     97  CB         0.6970  -15.2840   28.4190 C.3    85  MET85       0.0413
     98  CG        -0.4060  -14.4950   29.1000 C.3    85  MET85       0.0598
     99  SD         0.2130  -13.1130   30.1050 S.3    85  MET85      -0.1393
    100  CE         0.7080  -11.9150   28.8970 C.3    85  MET85       0.0692
    101  N          3.7740  -20.3170   30.1420 N.3    87  GLN87      -0.1245
    102  CA         4.8120  -21.1400   30.7940 C.3    87  GLN87       0.1566
    103  C          5.1860  -20.6420   32.2040 C.2    87  GLN87       0.2260
    104  O          5.3420  -19.4460   32.4080 O.2    87  GLN87      -0.2867
    105  CB         6.0680  -21.1770   29.9210 C.3    87  GLN87       0.0367
    106  CG         5.9930  -22.0800   28.7100 C.3    87  GLN87       0.0905
    107  CD         7.0590  -21.7290   27.7030 C.2    87  GLN87       0.2608
    108  OE1        8.1990  -21.4240   28.0620 O.2    87  GLN87      -0.2717
    109  NE2        6.6960  -21.7590   26.4290 N.am   87  GLN87      -0.0878
    110  N          7.5960  -19.8960   35.5230 N.3    89  HIS89      -0.1241
    111  CA         8.9940  -19.5280   35.8500 C.3    89  HIS89       0.1621
    112  C          9.9620  -19.5100   34.6560 C.2    89  HIS89       0.2264
    113  O          9.6190  -19.0820   33.5470 O.2    89  HIS89      -0.2867
    114  CB         9.5580  -20.4430   36.9510 C.3    89  HIS89       0.0745
    115  CG        10.9170  -20.0230   37.4800 C.ar   89  HIS89       0.0817
    116  ND1       11.1610  -19.3680   38.6080 N.ar   89  HIS89      -0.2268
    117  CD2       12.1260  -20.3640   36.9360 C.ar   89  HIS89       0.1154
    118  CE1       12.4570  -19.3110   38.7900 C.ar   89  HIS89       0.1986
    119  NE2       13.0180  -19.9130   37.7820 N.ar   89  HIS89      -0.2212
    120  N          6.0340  -18.3820   39.9710 N.3    90  VAL90      -0.1231
    121  CA         4.6520  -17.8760   39.8480 C.3    90  VAL90       0.1692
    122  C          4.4340  -17.1020   38.5490 C.2    90  VAL90       0.2593
    123  O          4.5180  -17.6710   37.4470 O.2    90  VAL90      -0.2718
    124  CB         4.2630  -16.8860   40.9860 C.3    90  VAL90       0.0266
    125  CG1        2.8420  -17.2140   41.4840 C.3    90  VAL90       0.0020
    126  CG2        5.3670  -16.7740   42.0740 C.3    90  VAL90       0.0020
    127  N          4.1560  -15.8050   38.6940 N.am   91  GLY91      -0.1942
    128  CA         4.1160  -14.9270   37.5620 C.3    91  GLY91       0.2014
    129  C          2.8740  -15.1230   36.7270 C.2    91  GLY91       0.2639
    130  O          2.1670  -16.1240   36.8420 O.2    91  GLY91      -0.2714
    131  N          2.6520  -14.1530   35.8600 N.am   92  VAL92      -0.1963
    132  CA         1.3350  -13.7900   35.4180 C.3    92  VAL92       0.1727
    133  C          0.6710  -14.9650   34.7330 C.2    92  VAL92       0.2616
    134  O         -0.5410  -15.1350   34.8070 O.2    92  VAL92      -0.2715
    135  CB         1.4390  -12.5870   34.4820 C.3    92  VAL92       0.0290
    136  CG1        2.7560  -12.6350   33.7240 C.3    92  VAL92       0.0023
    137  CG2        0.2780  -12.5490   33.5300 C.3    92  VAL92       0.0023
    138  N          1.4850  -15.7790   34.0720 N.am   93  SER93      -0.1950
    139  CA         1.0250  -17.0250   33.4670 C.3    93  SER93       0.1924
    140  C         -0.0150  -17.7250   34.3090 C.2    93  SER93       0.2314
    141  O         -0.9110  -18.3500   33.7670 O.2    93  SER93      -0.2863
    142  CB         2.1840  -17.9780   33.2560 C.3    93  SER93       0.2116
    143  OG         2.9140  -18.1160   34.4510 O.3    93  SER93      -0.2180
    144  N          1.4080   -1.6720   27.7330 N.3   136  SER136     -0.1217
    145  CA         0.6050   -2.8860   27.6120 C.3   136  SER136      0.1889
    146  C         -0.7150   -2.7520   28.3550 C.2   136  SER136      0.2288
    147  O         -0.7930   -2.0350   29.3390 O.2   136  SER136     -0.2866
    148  CB         1.3750   -4.1010   28.1330 C.3   136  SER136      0.2089
    149  OG         2.6940   -3.7410   28.4950 O.3   136  SER136     -0.2183
    150  N         -3.6060   -5.4790   29.9430 N.3   138  VAL138     -0.1245
    151  CA        -3.9870   -6.8680   30.1960 C.3   138  VAL138      0.1561
    152  C         -5.4140   -6.9880   30.7270 C.2   138  VAL138      0.2260
    153  O         -5.8030   -6.2820   31.6600 O.2   138  VAL138     -0.2867
    154  CB        -3.0000   -7.5550   31.1410 C.3   138  VAL138      0.0252
    155  CG1       -3.3710   -8.9980   31.3410 C.3   138  VAL138      0.0019
    156  CG2       -1.6120   -7.5200   30.5460 C.3   138  VAL138      0.0019
@<TRIPOS>BOND
     1    81    82    2
     2    81    80    1
     3    80    83    1
     4    80    79    1
     5    74    73    2
     6    83    84    1
     7    73    79   am
     8    73    72    1
     9    59    58    2
    10    79    85    1
    11    84    85    1
    12    71    72    1
    13    71    69   am
    14   109   107   am
    15    68    69    1
    16    68    67    1
    17    58    67   am
    18    58    57    1
    19    72    75    1
    20    69    70    2
    21    75    77    1
    22    75    76    1
    23    57    60    1
    24    57    56    1
    25    60    61    1
    26   145   144    1
    27   145   148    1
    28   145   146    1
    29   107   108    2
    30   107   106    1
    31    78    76    1
    32   148   149    1
    33    86    87    1
    34   146   147    2
    35    97    98    1
    36    97    94    1
    37    61    62    1
    38   106   105    1
    39    62    63    1
    40   100    99    1
    41    93    94    1
    42    93    88   am
    43    98    99    1
    44    90    92    1
    45    90    87    1
    46    90    91    1
    47    94    95    1
    48    51    50    2
    49    95    96    2
    50    87    88    1
    51   105   102    1
    52   150   151    1
    53    88    89    2
    54    65    64    1
    55    63    64    2
    56   101   102    1
    57   151   152    1
    58   151   154    1
    59    50    49    1
    60   156   154    1
    61    64    66    1
    62    54    53   ar
    63   152   153    2
    64   102   103    1
    65   154   155    1
    66    55    53   ar
    67    53    52    1
    68    48    49    1
    69    47    45   ar
    70    49    52    1
    71    45    44    1
    72    45    46   ar
    73    44    43    1
    74   103   104    2
    75   142   139    1
    76   142   143    1
    77   139   138    1
    78   139   140    1
    79    43    40    1
    80   137   135    1
    81   113   112    2
    82   136   135    1
    83   141   140    2
    84   138   133   am
    85   135   132    1
    86    40    41    1
    87    40    39    1
    88   112   111    1
    89   133   134    2
    90   133   132    1
    91    21    20    2
    92    25    23   am
    93    42    41    2
    94   132   131    1
    95    27    30    1
    96    27    26    1
    97    27    28    1
    98   110   111    1
    99    22    23    1
   100    22    19    1
   101    39    33   am
   102    29    28    2
   103    20    26   am
   104    20    19    1
   105    23    24    2
   106   111   114    1
   107   131   129   am
   108    19    18    1
   109    34    33    2
   110    33    32    1
   111   129   130    2
   112   129   128    1
   113   117   115   ar
   114   117   119   ar
   115   114   115    1
   116    35    32    1
   117    35    36    1
   118   123   122    2
   119   115   116   ar
   120   128   127    1
   121    32    31    1
   122    18    12   am
   123   119   118   ar
   124     4     3    2
   125    38    36   ar
   126   122   127   am
   127   122   121    1
   128    36    37   ar
   129     3     2    1
   130   116   118   ar
   131    13    12    2
   132    12    11    1
   133     5     2    1
   134     5     6    1
   135     8     7   ar
   136    10    11    1
   137     2     1    1
   138   121   120    1
   139   121   124    1
   140    11    14    1
   141     6     7    1
   142     7     9   ar
   143    14    15    1
   144   124   125    1
   145   124   126    1
   146    15    17   ar
   147    15    16   ar
