@<TRIPOS>MOLECULE
tmp/3zm7B00.pdb
 146 138 0 0 0
SMALL
GASTEIGER

@<TRIPOS>ATOM
      1  N        -30.7440  -22.8490   43.6220 N.3    34  GLU34      -0.1231
      2  CA       -31.7210  -23.9310   43.6070 C.3    34  GLU34       0.1699
      3  C        -33.1710  -23.4080   43.6950 C.2    34  GLU34       0.2592
      4  O        -34.0520  -23.8540   42.9280 O.2    34  GLU34      -0.2718
      5  CB       -31.4520  -24.9060   44.7500 C.3    34  GLU34       0.0402
      6  CG       -30.4250  -25.9850   44.4430 C.3    34  GLU34       0.1161
      7  CD       -30.9230  -27.0060   43.4400 C.2    34  GLU34       0.3649
      8  OE1      -31.7970  -27.8390   43.7790 O.co2  34  GLU34      -0.2457
      9  OE2      -30.4320  -26.9740   42.2980 O.co2  34  GLU34      -0.2457
     10  N        -33.4080  -22.4740   44.6230 N.am   35  VAL35      -0.1980
     11  CA       -34.7290  -21.9670   44.9180 C.3    35  VAL35       0.1595
     12  C        -35.1840  -21.0460   43.8070 C.2    35  VAL35       0.2287
     13  O        -36.3380  -21.1500   43.3600 O.2    35  VAL35      -0.2864
     14  CB       -34.7710  -21.2440   46.2820 C.3    35  VAL35       0.0276
     15  CG1      -36.1500  -20.6570   46.5540 C.3    35  VAL35       0.0022
     16  CG2      -34.3560  -22.1930   47.4060 C.3    35  VAL35       0.0022
     17  N        -34.0370  -20.9300   40.6670 N.3    37  ASP37      -0.1225
     18  CA       -34.1930  -21.7220   39.4520 C.3    37  ASP37       0.1805
     19  C        -35.5720  -22.3480   39.4140 C.2    37  ASP37       0.2598
     20  O        -36.2100  -22.3720   38.3640 O.2    37  ASP37      -0.2718
     21  CB       -33.1190  -22.8070   39.3600 C.3    37  ASP37       0.1424
     22  CG       -31.7260  -22.2390   39.1680 C.2    37  ASP37       0.3668
     23  OD1      -31.5730  -20.9900   39.1200 O.co2  37  ASP37      -0.2456
     24  OD2      -30.7770  -23.0460   39.0710 O.co2  37  ASP37      -0.2456
     25  N        -36.0340  -22.8340   40.5620 N.am   38  ASN38      -0.1960
     26  CA       -37.3780  -23.3890   40.6820 C.3    38  ASN38       0.1819
     27  C        -38.4760  -22.3660   40.3470 C.2    38  ASN38       0.2621
     28  O        -39.4700  -22.6710   39.6690 O.2    38  ASN38      -0.2715
     29  CB       -37.5880  -23.9590   42.0860 C.3    38  ASN38       0.1195
     30  CG       -37.1060  -25.3930   42.2090 C.2    38  ASN38       0.2630
     31  OD1      -36.8790  -26.0880   41.2080 O.2    38  ASN38      -0.2716
     32  ND2      -36.9710  -25.8550   43.4390 N.am   38  ASN38      -0.0877
     33  N        -38.2740  -21.1350   40.8130 N.am   39  ALA39      -0.1977
     34  CA       -39.2090  -20.0320   40.5650 C.3    39  ALA39       0.1597
     35  C        -39.2080  -19.5490   39.1090 C.2    39  ALA39       0.2287
     36  O        -40.2570  -19.3800   38.5120 O.2    39  ALA39      -0.2864
     37  CB       -38.9090  -18.8730   41.5090 C.3    39  ALA39       0.0319
     38  N        -38.2900  -21.2350   36.5350 N.3    41  ASP41      -0.1225
     39  CA       -38.7870  -22.2810   35.6440 C.3    41  ASP41       0.1805
     40  C        -40.2600  -22.1200   35.3100 C.2    41  ASP41       0.2597
     41  O        -40.6890  -22.4890   34.2310 O.2    41  ASP41      -0.2718
     42  CB       -38.4980  -23.6730   36.2050 C.3    41  ASP41       0.1424
     43  CG       -37.1360  -24.2080   35.7630 C.2    41  ASP41       0.3668
     44  OD1      -36.6660  -23.8300   34.6630 O.co2  41  ASP41      -0.2456
     45  OD2      -36.5320  -25.0130   36.5040 O.co2  41  ASP41      -0.2456
     46  N        -41.0220  -21.5470   36.2410 N.am   42  GLU42      -0.1979
     47  CA       -42.4410  -21.2230   36.0120 C.3    42  GLU42       0.1602
     48  C        -42.5750  -20.1540   34.9510 C.2    42  GLU42       0.2287
     49  O        -43.2910  -20.3370   33.9820 O.2    42  GLU42      -0.2864
     50  CB       -43.1320  -20.7320   37.2930 C.3    42  GLU42       0.0415
     51  CG       -43.2910  -21.7700   38.3830 C.3    42  GLU42       0.1163
     52  CD       -43.9030  -23.0360   37.8750 C.2    42  GLU42       0.3649
     53  OE1      -45.1070  -23.0370   37.6340 O.co2  42  GLU42      -0.2457
     54  OE2      -43.1770  -24.0300   37.6920 O.co2  42  GLU42      -0.2457
     55  N        -42.5380  -15.9930   43.9370 N.3    65  ASP65      -0.1239
     56  CA       -43.0280  -15.9780   42.5650 C.3    65  ASP65       0.1674
     57  C        -44.5700  -15.8810   42.5260 C.2    65  ASP65       0.2266
     58  O        -45.2540  -15.9960   43.5510 O.2    65  ASP65      -0.2867
     59  CB       -42.6130  -17.2790   41.9190 C.3    65  ASP65       0.1410
     60  CG       -43.3030  -18.4730   42.5580 C.2    65  ASP65       0.3668
     61  OD1      -44.4250  -18.8310   42.1090 O.co2  65  ASP65      -0.2456
     62  OD2      -42.7270  -19.0250   43.5230 O.co2  65  ASP65      -0.2456
     63  N        -47.6090  -21.1070   39.5930 N.3    68  ARG68      -0.1231
     64  CA       -48.7720  -21.9510   39.7940 C.3    68  ARG68       0.1694
     65  C        -48.7530  -22.4810   41.2020 C.2    68  ARG68       0.2593
     66  O        -49.6220  -23.2620   41.5850 O.2    68  ARG68      -0.2718
     67  CB       -48.7810  -23.1250   38.8210 C.3    68  ARG68       0.0321
     68  CG       -48.4270  -22.7580   37.3980 C.3    68  ARG68       0.0489
     69  CD       -48.9260  -23.8300   36.4580 C.3    68  ARG68       0.2205
     70  NE       -47.8610  -24.3570   35.6180 N.pl3  68  ARG68      -0.0865
     71  CZ       -47.0170  -25.3050   36.0040 C.cat  68  ARG68       0.5346
     72  NH1      -47.1140  -25.8380   37.2190 N.pl3  68  ARG68       0.1354
     73  NH2      -46.0750  -25.7190   35.1740 N.pl3  68  ARG68       0.1354
     74  N        -47.7510  -22.0630   41.9680 N.am   69  GLY69      -0.1942
     75  CA       -47.5250  -22.6070   43.2990 C.3    69  GLY69       0.2014
     76  C        -47.1540  -24.0810   43.2920 C.2    69  GLY69       0.2639
     77  O        -47.5290  -24.8420   42.3910 O.2    69  GLY69      -0.2714
     78  N        -46.3790  -24.4670   44.2960 N.am   70  ILE70      -0.1963
     79  CA       -46.0100  -25.8530   44.5020 C.3    70  ILE70       0.1712
     80  C        -47.2260  -26.7020   44.8190 C.2    70  ILE70       0.2458
     81  O        -48.0290  -26.3440   45.6830 O.2    70  ILE70      -0.2730
     82  CB       -45.0000  -26.0020   45.6450 C.3    70  ILE70       0.0289
     83  CG1      -43.6080  -25.6580   45.1300 C.3    70  ILE70       0.0022
     84  CG2      -45.0670  -27.4110   46.2430 C.3    70  ILE70       0.0023
     85  CD1      -42.8650  -24.7180   46.0240 C.3    70  ILE70       0.0001
     86  N        -47.3650  -27.8270   44.1020 N.am   71  PRO71      -0.2727
     87  CA       -48.3460  -28.8460   44.3930 C.3    71  PRO71       0.1402
     88  C        -48.4650  -29.1690   45.8900 C.2    71  PRO71       0.2269
     89  O        -47.5180  -29.6620   46.5010 O.2    71  PRO71      -0.2865
     90  CB       -47.8170  -30.0460   43.6140 C.3    71  PRO71       0.0296
     91  CG       -47.1220  -29.4600   42.4410 C.3    71  PRO71       0.0237
     92  CD       -46.6000  -28.1320   42.8760 C.3    71  PRO71       0.0939
     93  N        -41.1680  -32.9120   47.4730 N.3    85  VAL85      -0.1245
     94  CA       -40.2190  -31.9460   46.9210 C.3    85  VAL85       0.1561
     95  C        -39.1680  -31.5140   47.9480 C.2    85  VAL85       0.2260
     96  O        -37.9670  -31.5560   47.6950 O.2    85  VAL85      -0.2867
     97  CB       -40.9420  -30.7010   46.3790 C.3    85  VAL85       0.0252
     98  CG1      -39.9430  -29.6210   46.0090 C.3    85  VAL85       0.0019
     99  CG2      -41.7890  -31.0760   45.1810 C.3    85  VAL85       0.0019
    100  N        -34.3810  -36.2300   44.1210 N.3    90  HIS90      -0.1241
    101  CA       -34.7030  -36.6790   42.7520 C.3    90  HIS90       0.1621
    102  C        -33.5750  -37.5680   42.1480 C.2    90  HIS90       0.2264
    103  O        -33.0420  -37.3210   41.0510 O.2    90  HIS90      -0.2867
    104  CB       -35.0600  -35.4770   41.8470 C.3    90  HIS90       0.0745
    105  CG       -36.3720  -34.8210   42.2290 C.ar   90  HIS90       0.0817
    106  ND1      -37.6020  -35.3770   42.1100 N.ar   90  HIS90      -0.2268
    107  CD2      -36.5740  -33.4930   42.4910 C.ar   90  HIS90       0.1154
    108  CE1      -38.5400  -34.5110   42.4240 C.ar   90  HIS90       0.1986
    109  NE2      -37.9240  -33.3700   42.6940 N.ar   90  HIS90      -0.2212
    110  N        -28.4290  -30.5940   43.7210 N.3    91  VAL91      -0.1231
    111  CA       -29.5070  -30.3010   42.7850 C.3    91  VAL91       0.1692
    112  C        -30.7910  -30.9800   43.2530 C.2    91  VAL91       0.2593
    113  O        -30.8250  -32.1910   43.4800 O.2    91  VAL91      -0.2718
    114  CB       -29.1340  -30.6610   41.3170 C.3    91  VAL91       0.0266
    115  CG1      -30.3260  -31.2260   40.5660 C.3    91  VAL91       0.0020
    116  CG2      -28.5660  -29.4480   40.5820 C.3    91  VAL91       0.0020
    117  N        -31.8450  -30.1840   43.3920 N.am   92  GLY92      -0.1942
    118  CA       -33.0870  -30.6580   43.9850 C.3    92  GLY92       0.2014
    119  C        -33.3040  -29.9560   45.2990 C.2    92  GLY92       0.2639
    120  O        -32.5870  -30.2180   46.2700 O.2    92  GLY92      -0.2714
    121  N        -34.3030  -29.0750   45.3360 N.am   93  VAL93      -0.1963
    122  CA       -34.3720  -28.0400   46.3700 C.3    93  VAL93       0.1727
    123  C        -34.4120  -28.6190   47.7860 C.2    93  VAL93       0.2616
    124  O        -34.0930  -27.9500   48.7640 O.2    93  VAL93      -0.2715
    125  CB       -35.5760  -27.1190   46.1530 C.3    93  VAL93       0.0290
    126  CG1      -36.8510  -27.8890   46.3920 C.3    93  VAL93       0.0023
    127  CG2      -35.5010  -25.8990   47.0680 C.3    93  VAL93       0.0023
    128  N        -34.7940  -29.8840   47.8850 N.am   94  SER94      -0.1950
    129  CA       -34.6820  -30.5980   49.1340 C.3    94  SER94       0.1924
    130  C        -33.2990  -30.4070   49.7720 C.2    94  SER94       0.2314
    131  O        -33.1730  -30.3880   51.0040 O.2    94  SER94      -0.2863
    132  CB       -34.9600  -32.0710   48.9080 C.3    94  SER94       0.2116
    133  OG       -34.0390  -32.5950   47.9880 O.3    94  SER94      -0.2180
    134  N        -45.8300  -18.9660   44.8590 N.3   137  SER137     -0.1217
    135  CA       -45.1500  -19.5930   45.9930 C.3   137  SER137      0.1889
    136  C        -44.1170  -18.6770   46.6180 C.2   137  SER137      0.2288
    137  O        -43.6790  -17.7050   45.9940 O.2   137  SER137     -0.2866
    138  CB       -44.5230  -20.9100   45.5620 C.3   137  SER137      0.2089
    139  OG       -44.5600  -21.0120   44.1500 O.3   137  SER137     -0.2183
    140  N        -40.6700  -18.9990   49.3170 N.3   139  VAL139     -0.1245
    141  CA       -39.7570  -19.8540   50.0580 C.3   139  VAL139      0.1561
    142  C        -38.8250  -19.0040   50.8920 C.2   139  VAL139      0.2260
    143  O        -38.1710  -18.0850   50.3830 O.2   139  VAL139     -0.2867
    144  CB       -38.9270  -20.7590   49.1350 C.3   139  VAL139      0.0252
    145  CG1      -37.9770  -21.6140   49.9510 C.3   139  VAL139      0.0019
    146  CG2      -39.8330  -21.6650   48.3190 C.3   139  VAL139      0.0019
@<TRIPOS>BOND
     1    49    48    2
     2    41    40    2
     3    44    43   ar
     4    48    47    1
     5    73    71    1
     6    40    39    1
     7    40    46   am
     8    70    71    2
     9    70    69    1
    10    39    42    1
    11    39    38    1
    12    43    42    1
    13    43    45   ar
    14    71    72    1
    15    47    46    1
    16    47    50    1
    17    69    68    1
    18    50    51    1
    19    68    67    1
    20    53    52   ar
    21    54    52   ar
    22    52    51    1
    23    20    19    2
    24    36    35    2
    25    67    64    1
    26    24    22   ar
    27    35    34    1
    28    23    22   ar
    29    22    21    1
    30    21    18    1
    31    19    18    1
    32    19    25   am
    33    18    17    1
    34    63    64    1
    35    28    27    2
    36    64    65    1
    37    27    26    1
    38    27    33   am
    39    25    26    1
    40    34    33    1
    41    34    37    1
    42   115   114    1
    43   116   114    1
    44    26    29    1
    45   103   102    2
    46    65    66    2
    47    65    74   am
    48    31    30    2
    49   114   111    1
    50   104   105    1
    51   104   101    1
    52    59    60    1
    53    59    56    1
    54    74    75    1
    55    29    30    1
    56    61    60   ar
    57   106   105   ar
    58   106   108   ar
    59   102   101    1
    60    30    32   am
    61   105   107   ar
    62     9     7   ar
    63    77    76    2
    64   108   109   ar
    65    91    92    1
    66    91    90    1
    67   107   109   ar
    68    57    56    1
    69    57    58    2
    70    60    62   ar
    71    56    55    1
    72   101   100    1
    73   111   112    1
    74   111   110    1
    75    92    86    1
    76     4     3    2
    77   112   117   am
    78   112   113    2
    79    76    75    1
    80    76    78   am
    81    13    12    2
    82   117   118    1
    83     7     8   ar
    84     7     6    1
    85     2     1    1
    86     2     3    1
    87     2     5    1
    88    90    87    1
    89     3    10   am
    90    12    11    1
    91   118   119    1
    92    86    87    1
    93    86    80   am
    94   139   138    1
    95    78    79    1
    96    87    88    1
    97     6     5    1
    98    79    80    1
    99    79    82    1
   100    10    11    1
   101    80    81    2
   102   134   135    1
   103    11    14    1
   104    83    82    1
   105    83    85    1
   106    99    97    1
   107   119   121   am
   108   119   120    2
   109   121   122    1
   110   138   135    1
   111    82    84    1
   112    88    89    2
   113   135   136    1
   114   137   136    2
   115    98    97    1
   116   125   122    1
   117   125   126    1
   118   125   127    1
   119    14    15    1
   120    14    16    1
   121   122   123    1
   122    97    94    1
   123    94    93    1
   124    94    95    1
   125    96    95    2
   126   123   128   am
   127   123   124    2
   128   128   129    1
   129   133   132    1
   130   146   144    1
   131   132   129    1
   132   129   130    1
   133   144   145    1
   134   144   141    1
   135   140   141    1
   136   130   131    2
   137   141   142    1
   138   143   142    2
