@<TRIPOS>MOLECULE
tmp/3zm8A00.pdb
 123 126 0 0 0
SMALL
GASTEIGER

@<TRIPOS>ATOM
      1  N          9.6460  -33.3030  -13.4360 N.3   224  HIS224     -0.1241
      2  CA         9.4720  -33.3640  -14.8770 C.3   224  HIS224      0.1621
      3  C          8.0700  -32.7890  -15.1040 C.2   224  HIS224      0.2264
      4  O          7.0840  -33.5300  -15.1920 O.2   224  HIS224     -0.2867
      5  CB         9.5900  -34.7980  -15.4010 C.3   224  HIS224      0.0745
      6  CG        10.9600  -35.1580  -15.8600 C.ar  224  HIS224      0.0817
      7  ND1       11.8050  -35.9090  -15.0740 N.ar  224  HIS224     -0.2268
      8  CD2       11.5780  -34.8790  -17.0260 C.ar  224  HIS224      0.1154
      9  CE1       12.9070  -36.0690  -15.7820 C.ar  224  HIS224      0.1986
     10  NE2       12.8170  -35.4700  -16.9660 N.ar  224  HIS224     -0.2212
     11  N          6.5010  -32.9900  -20.8900 N.3   243  PHE243     -0.1227
     12  CA         7.5720  -32.1650  -20.3060 C.3   243  PHE243      0.1736
     13  C          8.5070  -31.6990  -21.4320 C.2   243  PHE243      0.2595
     14  O          9.2210  -30.7160  -21.2610 O.2   243  PHE243     -0.2718
     15  CB         8.3480  -32.9230  -19.1910 C.3   243  PHE243      0.0547
     16  CG         8.5790  -34.3870  -19.4790 C.ar  243  PHE243     -0.0202
     17  CD1        9.6100  -34.7940  -20.3160 C.ar  243  PHE243     -0.0042
     18  CD2        7.7270  -35.3560  -18.9630 C.ar  243  PHE243     -0.0042
     19  CE1        9.7870  -36.1480  -20.6250 C.ar  243  PHE243     -0.0003
     20  CE2        7.9080  -36.7090  -19.2720 C.ar  243  PHE243     -0.0003
     21  CZ         8.9430  -37.0960  -20.0900 C.ar  243  PHE243     -0.0000
     22  N          8.4730  -32.3960  -22.5830 N.am  244  TYR244     -0.1976
     23  CA         9.2750  -32.1030  -23.7590 C.3   244  TYR244      0.1639
     24  C          8.7050  -30.9930  -24.6420 C.2   244  TYR244      0.2290
     25  O          7.5090  -30.9830  -24.9510 O.2   244  TYR244     -0.2864
     26  CB         9.4460  -33.3630  -24.6220 C.3   244  TYR244      0.0560
     27  CG        10.4120  -34.4190  -24.1120 C.ar  244  TYR244     -0.0198
     28  CD1       11.5730  -34.0610  -23.4240 C.ar  244  TYR244     -0.0009
     29  CD2       10.2360  -35.7620  -24.4300 C.ar  244  TYR244     -0.0009
     30  CE1       12.4800  -35.0250  -22.9840 C.ar  244  TYR244      0.0417
     31  CE2       11.1510  -36.7320  -24.0190 C.ar  244  TYR244      0.0417
     32  CZ        12.2750  -36.3590  -23.3000 C.ar  244  TYR244      0.1957
     33  OH        13.1810  -37.3160  -22.9090 O.3   244  TYR244     -0.2866
     34  N         15.1540  -28.3910  -14.2920 N.3   294  HIS294     -0.1226
     35  CA        16.4160  -29.0460  -14.6090 C.3   294  HIS294      0.1752
     36  C         16.6920  -29.0760  -16.1210 C.2   294  HIS294      0.2595
     37  O         15.7530  -29.0700  -16.9150 O.2   294  HIS294     -0.2718
     38  CB        16.4640  -30.4500  -13.9810 C.3   294  HIS294      0.0759
     39  CG        15.5290  -31.4420  -14.5980 C.ar  294  HIS294      0.0818
     40  ND1       14.1540  -31.2790  -14.5430 N.ar  294  HIS294     -0.2268
     41  CD2       15.8080  -32.6040  -15.2290 C.ar  294  HIS294      0.1154
     42  CE1       13.6470  -32.3330  -15.1580 C.ar  294  HIS294      0.1986
     43  NE2       14.6050  -33.1610  -15.5840 N.ar  294  HIS294     -0.2212
     44  N         17.9890  -29.0580  -16.5040 N.am  295  GLU295     -0.1979
     45  CA        18.4810  -29.0950  -17.8950 C.3   295  GLU295      0.1602
     46  C         17.8110  -28.0310  -18.7810 C.2   295  GLU295      0.2287
     47  O         17.5230  -28.3040  -19.9480 O.2   295  GLU295     -0.2864
     48  CB        18.2990  -30.5120  -18.5120 C.3   295  GLU295      0.0415
     49  CG        18.9480  -31.6290  -17.7220 C.3   295  GLU295      0.1163
     50  CD        18.7030  -33.0330  -18.2280 C.2   295  GLU295      0.3649
     51  OE1       18.1700  -33.1950  -19.3470 O.co2 295  GLU295     -0.2457
     52  OE2       19.0960  -33.9830  -17.5200 O.co2 295  GLU295     -0.2457
     53  N         15.3010  -28.8110  -24.5220 N.3   300  TRP300     -0.1227
     54  CA        14.4670  -29.9760  -24.8430 C.3   300  TRP300      0.1737
     55  C         13.2260  -30.1020  -23.9390 C.2   300  TRP300      0.2595
     56  O         12.3640  -30.9440  -24.2060 O.2   300  TRP300     -0.2718
     57  CB        15.2750  -31.2800  -24.8850 C.3   300  TRP300      0.0564
     58  CG        16.1560  -31.5100  -23.7030 C.ar  300  TRP300      0.0003
     59  CD1       15.7700  -31.8770  -22.4470 C.ar  300  TRP300      0.0946
     60  CD2       17.5860  -31.4270  -23.6790 C.ar  300  TRP300      0.0152
     61  NE1       16.8680  -31.9810  -21.6300 N.ar  300  TRP300     -0.2442
     62  CE2       17.9990  -31.7220  -22.3620 C.ar  300  TRP300      0.0810
     63  CE3       18.5620  -31.1140  -24.6430 C.ar  300  TRP300      0.0012
     64  CZ2       19.3450  -31.7270  -21.9840 C.ar  300  TRP300      0.0191
     65  CZ3       19.8970  -31.0990  -24.2610 C.ar  300  TRP300      0.0001
     66  CH2       20.2750  -31.3940  -22.9450 C.ar  300  TRP300      0.0015
     67  N         13.1300  -29.2550  -22.8950 N.am  301  PHE301     -0.1976
     68  CA        11.9820  -29.1560  -21.9980 C.3   301  PHE301      0.1639
     69  C         11.3280  -27.7850  -22.2150 C.2   301  PHE301      0.2290
     70  O         12.0390  -26.7760  -22.3800 O.2   301  PHE301     -0.2864
     71  CB        12.3900  -29.3010  -20.5310 C.3   301  PHE301      0.0560
     72  CG        13.0240  -30.6100  -20.1270 C.ar  301  PHE301     -0.0200
     73  CD1       12.4110  -31.8240  -20.4290 C.ar  301  PHE301     -0.0042
     74  CD2       14.2110  -30.6290  -19.3950 C.ar  301  PHE301     -0.0042
     75  CE1       13.0010  -33.0270  -20.0600 C.ar  301  PHE301     -0.0003
     76  CE2       14.7890  -31.8370  -19.0070 C.ar  301  PHE301     -0.0003
     77  CZ        14.1890  -33.0260  -19.3540 C.ar  301  PHE301     -0.0000
     78  N         26.1400  -37.2190  -18.7700 N.3   357  TYR357     -0.1241
     79  CA        25.8950  -38.5650  -19.2990 C.3   357  TYR357      0.1605
     80  C         26.9880  -39.0110  -20.2700 C.2   357  TYR357      0.2264
     81  O         26.7990  -38.9520  -21.4890 O.2   357  TYR357     -0.2867
     82  CB        24.4930  -38.6430  -19.9360 C.3   357  TYR357      0.0534
     83  CG        23.3620  -38.7000  -18.9290 C.ar  357  TYR357     -0.0201
     84  CD1       22.8810  -37.5430  -18.3220 C.ar  357  TYR357     -0.0009
     85  CD2       22.7460  -39.9050  -18.6140 C.ar  357  TYR357     -0.0009
     86  CE1       21.8400  -37.5900  -17.3950 C.ar  357  TYR357      0.0417
     87  CE2       21.6940  -39.9640  -17.7010 C.ar  357  TYR357      0.0417
     88  CZ        21.2450  -38.8030  -17.0910 C.ar  357  TYR357      0.1957
     89  OH        20.2160  -38.8650  -16.1820 O.3   357  TYR357     -0.2866
     90  N         22.6530  -35.6460  -11.8580 N.3   385  GLU385     -0.1245
     91  CA        22.3420  -36.8460  -12.6250 C.3   385  GLU385      0.1567
     92  C         23.5940  -37.2720  -13.3630 C.2   385  GLU385      0.2260
     93  O         24.2190  -36.4670  -14.0680 O.2   385  GLU385     -0.2867
     94  CB        21.2370  -36.6150  -13.6610 C.3   385  GLU385      0.0388
     95  CG        19.8270  -36.4290  -13.1450 C.3   385  GLU385      0.1160
     96  CD        18.8060  -36.1670  -14.2360 C.2   385  GLU385      0.3649
     97  OE1       19.0670  -36.5100  -15.4130 O.co2 385  GLU385     -0.2457
     98  OE2       17.7310  -35.6200  -13.9070 O.co2 385  GLU385     -0.2457
     99  N         21.3670  -42.1390  -12.6660 N.3   408  TRP408     -0.1241
    100  CA        19.9970  -42.2480  -13.1420 C.3   408  TRP408      0.1605
    101  C         19.5420  -43.7250  -13.0450 C.2   408  TRP408      0.2264
    102  O         20.3750  -44.6200  -12.8460 O.2   408  TRP408     -0.2867
    103  CB        19.8970  -41.7150  -14.5800 C.3   408  TRP408      0.0550
    104  CG        18.4910  -41.4670  -15.0290 C.ar  408  TRP408      0.0003
    105  CD1       17.7900  -42.1940  -15.9410 C.ar  408  TRP408      0.0946
    106  CD2       17.5940  -40.4580  -14.5390 C.ar  408  TRP408      0.0152
    107  NE1       16.5200  -41.6830  -16.0760 N.ar  408  TRP408     -0.2442
    108  CE2       16.3680  -40.6230  -15.2170 C.ar  408  TRP408      0.0810
    109  CE3       17.7050  -39.4300  -13.5880 C.ar  408  TRP408      0.0012
    110  CZ2       15.2510  -39.8170  -14.9600 C.ar  408  TRP408      0.0191
    111  CZ3       16.5940  -38.6300  -13.3340 C.ar  408  TRP408      0.0001
    112  CH2       15.3820  -38.8380  -14.0040 C.ar  408  TRP408      0.0015
    113  N         20.7790  -47.3270  -17.0700 N.3   412  PHE412     -0.1241
    114  CA        21.9920  -46.6790  -16.5860 C.3   412  PHE412      0.1605
    115  C         22.5960  -47.4610  -15.4160 C.2   412  PHE412      0.2264
    116  O         23.5190  -48.2540  -15.6470 O.2   412  PHE412     -0.2867
    117  CB        21.7660  -45.1870  -16.2770 C.3   412  PHE412      0.0534
    118  CG        21.4590  -44.4180  -17.5350 C.ar  412  PHE412     -0.0203
    119  CD1       22.4800  -44.0230  -18.3920 C.ar  412  PHE412     -0.0042
    120  CD2       20.1470  -44.1830  -17.9230 C.ar  412  PHE412     -0.0042
    121  CE1       22.1950  -43.3660  -19.5920 C.ar  412  PHE412     -0.0003
    122  CE2       19.8640  -43.5360  -19.1230 C.ar  412  PHE412     -0.0003
    123  CZ        20.8940  -43.1230  -19.9450 C.ar  412  PHE412     -0.0000
@<TRIPOS>BOND
     1    25    24    2
     2    57    54    1
     3    57    58    1
     4    54    53    1
     5    54    55    1
     6    63    65   ar
     7    63    60   ar
     8    24    23    1
     9    26    27    1
    10    26    23    1
    11    29    27   ar
    12    29    31   ar
    13    65    66   ar
    14    56    55    2
    15    27    28   ar
    16    31    32   ar
    17    55    67   am
    18    23    22    1
    19    58    60   ar
    20    58    59   ar
    21    60    62   ar
    22    28    30   ar
    23    32    30   ar
    24    32    33    1
    25    66    64   ar
    26    67    68    1
    27    22    13   am
    28    59    61   ar
    29    70    69    2
    30    62    64   ar
    31    62    61   ar
    32    69    68    1
    33    68    71    1
    34    81    80    2
    35    13    14    2
    36    13    12    1
    37    11    12    1
    38    19    17   ar
    39    19    21   ar
    40    71    72    1
    41    73    72   ar
    42    73    75   ar
    43    17    16   ar
    44    12    15    1
    45    80    79    1
    46    72    74   ar
    47    21    20   ar
    48    75    77   ar
    49    47    46    2
    50   123   121   ar
    51   123   122   ar
    52    82    79    1
    53    82    83    1
    54   121   119   ar
    55    16    15    1
    56    16    18   ar
    57    74    76   ar
    58    77    76   ar
    59    51    50   ar
    60    79    78    1
    61    20    18   ar
    62   122   120   ar
    63    83    85   ar
    64    83    84   ar
    65    46    45    1
    66    85    87   ar
    67    48    45    1
    68    48    49    1
    69   119   118   ar
    70    84    86   ar
    71    50    49    1
    72    50    52   ar
    73   120   118   ar
    74    45    44    1
    75    87    88   ar
    76   118   117    1
    77    86    88   ar
    78    88    89    1
    79   113   114    1
    80     8    10   ar
    81     8     6   ar
    82    10     9   ar
    83    37    36    2
    84   114   117    1
    85   114   115    1
    86    44    36   am
    87    36    35    1
    88   107   105   ar
    89   107   108   ar
    90   105   104   ar
    91     6     5    1
    92     6     7   ar
    93     9     7   ar
    94   116   115    2
    95    43    41   ar
    96    43    42   ar
    97    97    96   ar
    98     5     2    1
    99    41    39   ar
   100   108   110   ar
   101   108   106   ar
   102     4     3    2
   103    42    40   ar
   104     3     2    1
   105   104   103    1
   106   104   106   ar
   107   110   112   ar
   108     2     1    1
   109    35    34    1
   110    35    38    1
   111    39    40   ar
   112    39    38    1
   113   103   100    1
   114   106   109   ar
   115    96    98   ar
   116    96    95    1
   117    93    92    2
   118   112   111   ar
   119    94    95    1
   120    94    91    1
   121   109   111   ar
   122    92    91    1
   123   100   101    1
   124   100    99    1
   125   101   102    2
   126    91    90    1
