@<TRIPOS>MOLECULE
tmp/3zm8A01.pdb
 76 72 0 0 0
SMALL
GASTEIGER

@<TRIPOS>ATOM
      1  N         -1.0560  -27.0110  -20.6390 N.3   229  VAL229     -0.1231
      2  CA        -1.7270  -26.8630  -21.9350 C.3   229  VAL229      0.1692
      3  C         -0.7670  -27.0550  -23.1380 C.2   229  VAL229      0.2593
      4  O          0.4450  -27.0770  -22.9470 O.2   229  VAL229     -0.2718
      5  CB        -2.4960  -25.5030  -22.0020 C.3   229  VAL229      0.0266
      6  CG1       -3.8800  -25.6190  -21.3650 C.3   229  VAL229      0.0020
      7  CG2       -1.6990  -24.3610  -21.3630 C.3   229  VAL229      0.0020
      8  N         -1.3210  -27.2100  -24.3440 N.am  230  GLY230     -0.1942
      9  CA        -0.5700  -27.3640  -25.5920 C.3   230  GLY230      0.2014
     10  C         -0.1830  -28.7730  -26.0020 C.2   230  GLY230      0.2638
     11  O          0.4780  -28.9550  -27.0270 O.2   230  GLY230     -0.2714
     12  N         -0.6080  -29.7730  -25.2220 N.am  231  LEU231     -0.1977
     13  CA        -0.2980  -31.1850  -25.4210 C.3   231  LEU231      0.1596
     14  C         -0.7910  -31.7370  -26.7600 C.2   231  LEU231      0.2287
     15  O         -1.9890  -31.9770  -26.9280 O.2   231  LEU231     -0.2864
     16  CB        -0.8740  -32.0150  -24.2510 C.3   231  LEU231      0.0297
     17  CG        -0.0490  -32.1780  -22.9680 C.3   231  LEU231      0.0022
     18  CD1        0.1270  -30.8730  -22.2350 C.3   231  LEU231      0.0001
     19  CD2       -0.7400  -33.1210  -22.0220 C.3   231  LEU231      0.0001
     20  N          2.9320  -27.2290  -27.5450 N.3   249  ASP249     -0.1225
     21  CA         3.0420  -25.9200  -28.1860 C.3   249  ASP249      0.1805
     22  C          3.1490  -24.8280  -27.1150 C.2   249  ASP249      0.2598
     23  O          3.3360  -23.6610  -27.4510 O.2   249  ASP249     -0.2718
     24  CB         1.9520  -25.6410  -29.2640 C.3   249  ASP249      0.1424
     25  CG         0.5020  -25.6410  -28.8120 C.2   249  ASP249      0.3668
     26  OD1        0.1810  -24.9190  -27.8420 O.co2 249  ASP249     -0.2456
     27  OD2       -0.3310  -26.3020  -29.4810 O.co2 249  ASP249     -0.2456
     28  N          3.0890  -25.2320  -25.8230 N.am  250  PHE250     -0.1962
     29  CA         3.1650  -24.3570  -24.6530 C.3   250  PHE250      0.1771
     30  C          4.3770  -23.4340  -24.6930 C.2   250  PHE250      0.2619
     31  O          5.5190  -23.8970  -24.7100 O.2   250  PHE250     -0.2715
     32  CB         3.0820  -25.1520  -23.3390 C.3   250  PHE250      0.0574
     33  CG         2.9080  -24.2920  -22.1050 C.ar  250  PHE250     -0.0200
     34  CD1        1.7410  -23.5620  -21.9020 C.ar  250  PHE250     -0.0042
     35  CD2        3.9130  -24.2090  -21.1480 C.ar  250  PHE250     -0.0042
     36  CE1        1.5900  -22.7550  -20.7700 C.ar  250  PHE250     -0.0003
     37  CE2        3.7580  -23.4030  -20.0150 C.ar  250  PHE250     -0.0003
     38  CZ         2.5990  -22.6830  -19.8350 C.ar  250  PHE250     -0.0000
     39  N          4.0950  -22.1200  -24.7970 N.am  251  ASP251     -0.1971
     40  CA         5.0600  -21.0280  -24.9050 C.3   251  ASP251      0.1709
     41  C          5.1090  -20.3210  -23.5720 C.2   251  ASP251      0.2293
     42  O          4.1780  -19.6030  -23.2180 O.2   251  ASP251     -0.2864
     43  CB         4.6410  -20.0720  -26.0460 C.3   251  ASP251      0.1436
     44  CG         5.5400  -18.8740  -26.3260 C.2   251  ASP251      0.3671
     45  OD1        6.2200  -18.4020  -25.3860 O.co2 251  ASP251     -0.2456
     46  OD2        5.4820  -18.3420  -27.4570 O.co2 251  ASP251     -0.2456
     47  N          5.3490  -16.2400  -23.8690 N.3   254  ALA254     -0.1245
     48  CA         4.0180  -15.6910  -24.1230 C.3   254  ALA254      0.1562
     49  C          3.2380  -15.6400  -22.8230 C.2   254  ALA254      0.2260
     50  O          2.7250  -14.5820  -22.4540 O.2   254  ALA254     -0.2867
     51  CB         3.2790  -16.5470  -25.1350 C.3   254  ALA254      0.0290
     52  N          1.9690  -12.3040  -20.5530 N.3   258  ASN258     -0.1240
     53  CA         0.5450  -12.1200  -20.2790 C.3   258  ASN258      0.1653
     54  C          0.1420  -12.7260  -18.8930 C.2   258  ASN258      0.2266
     55  O         -0.5370  -13.7630  -18.8390 O.2   258  ASN258     -0.2867
     56  CB        -0.2840  -12.6860  -21.4390 C.3   258  ASN258      0.1155
     57  CG        -1.7680  -12.4460  -21.3230 C.2   258  ASN258      0.2627
     58  OD1       -2.5620  -13.3910  -21.2960 O.2   258  ASN258     -0.2716
     59  ND2       -2.1750  -11.1820  -21.2290 N.am  258  ASN258     -0.0877
     60  N         -3.7080  -13.8960  -18.0490 N.3   261  GLY261     -0.1210
     61  CA        -4.3250  -14.9020  -18.9090 C.3   261  GLY261      0.1956
     62  C         -4.6810  -16.2070  -18.2200 C.2   261  GLY261      0.2612
     63  O         -4.5330  -16.3360  -17.0000 O.2   261  GLY261     -0.2717
     64  N         -5.1760  -17.1790  -19.0090 N.am  262  ALA262     -0.1965
     65  CA        -5.5500  -18.5040  -18.5180 C.3   262  ALA262      0.1728
     66  C         -4.3080  -19.3950  -18.4380 C.2   262  ALA262      0.2616
     67  O         -4.1660  -20.1440  -17.4710 O.2   262  ALA262     -0.2715
     68  CB        -6.5940  -19.1300  -19.4250 C.3   262  ALA262      0.0334
     69  N         -3.4010  -19.2910  -19.4480 N.am  263  ASN263     -0.1972
     70  CA        -2.1210  -20.0010  -19.5370 C.3   263  ASN263      0.1688
     71  C         -1.3490  -19.8250  -18.1970 C.2   263  ASN263      0.2292
     72  O         -0.9500  -20.8220  -17.5890 O.2   263  ASN263     -0.2864
     73  CB        -1.2850  -19.4300  -20.7050 C.3   263  ASN263      0.1181
     74  CG        -1.4490  -20.0020  -22.1100 C.2   263  ASN263      0.2629
     75  OD1       -0.4700  -20.0120  -22.8750 O.2   263  ASN263     -0.2716
     76  ND2       -2.6770  -20.4320  -22.4940 N.am  263  ASN263     -0.0877
@<TRIPOS>BOND
     1    27    25   ar
     2    24    25    1
     3    24    21    1
     4    25    26   ar
     5    21    20    1
     6    21    22    1
     7    46    44   ar
     8    23    22    2
     9    22    28   am
    10    11    10    2
    11    15    14    2
    12    14    13    1
    13    44    43    1
    14    44    45   ar
    15    43    40    1
    16    10     9    1
    17    10    12   am
    18    28    29    1
    19     9     8    1
    20    13    12    1
    21    13    16    1
    22    51    48    1
    23    40    39    1
    24    40    41    1
    25    39    30   am
    26    31    30    2
    27    30    29    1
    28    29    32    1
    29     8     3   am
    30    16    17    1
    31    48    47    1
    32    48    49    1
    33    41    42    2
    34    32    33    1
    35     3     4    2
    36     3     2    1
    37    17    18    1
    38    17    19    1
    39    75    74    2
    40    49    50    2
    41    76    74   am
    42    74    73    1
    43    33    34   ar
    44    33    35   ar
    45     5     2    1
    46     5     6    1
    47     5     7    1
    48     2     1    1
    49    34    36   ar
    50    56    57    1
    51    56    53    1
    52    57    58    2
    53    57    59   am
    54    35    37   ar
    55    36    38   ar
    56    73    70    1
    57    52    53    1
    58    53    54    1
    59    37    38   ar
    60    70    69    1
    61    70    71    1
    62    69    66   am
    63    68    65    1
    64    64    65    1
    65    64    62   am
    66    61    62    1
    67    61    60    1
    68    54    55    2
    69    65    66    1
    70    66    67    2
    71    62    63    2
    72    71    72    2
