@<TRIPOS>MOLECULE
tmp/3zm9B00.pdb
 272 260 0 0 0
SMALL
GASTEIGER

@<TRIPOS>ATOM
      1  N         12.3270  -25.4150  -12.2620 N.3    30  ILE30      -0.1231
      2  CA        11.4240  -26.3450  -12.9410 C.3    30  ILE30       0.1692
      3  C         11.5970  -26.2510  -14.4710 C.2    30  ILE30       0.2591
      4  O         11.5230  -27.2660  -15.1810 O.2    30  ILE30      -0.2718
      5  CB         9.9540  -26.1200  -12.5050 C.3    30  ILE30       0.0266
      6  CG1        9.8160  -26.2950  -10.9880 C.3    30  ILE30       0.0019
      7  CG2        9.0100  -27.0840  -13.2140 C.3    30  ILE30       0.0020
      8  CD1        8.4400  -25.9700  -10.4510 C.3    30  ILE30       0.0001
      9  N         11.8460  -25.0360  -14.9630 N.am   31  ARG31      -0.1980
     10  CA        12.0800  -24.7910  -16.3920 C.3    31  ARG31       0.1597
     11  C         12.9780  -23.5700  -16.5930 C.2    31  ARG31       0.2287
     12  O         12.6610  -22.4680  -16.1270 O.2    31  ARG31      -0.2864
     13  CB        10.7460  -24.6350  -17.1380 C.3    31  ARG31       0.0334
     14  CG        10.7860  -23.8670  -18.4540 C.3    31  ARG31       0.0492
     15  CD         9.3890  -23.8270  -19.0550 C.3    31  ARG31       0.2205
     16  NE         8.9910  -22.5080  -19.5480 N.pl3  31  ARG31      -0.0865
     17  CZ         7.7250  -22.1230  -19.7440 C.cat  31  ARG31       0.5346
     18  NH1        6.7090  -22.9450  -19.4850 N.pl3  31  ARG31       0.1354
     19  NH2        7.4680  -20.9010  -20.1970 N.pl3  31  ARG31       0.1354
     20  N         10.5210  -20.9830  -14.7270 N.3    38  LEU38      -0.1245
     21  CA         9.6780  -21.4380  -13.6120 C.3    38  LEU38       0.1561
     22  C         10.4980  -21.8890  -12.4130 C.2    38  LEU38       0.2260
     23  O         11.6590  -22.2490  -12.5530 O.2    38  LEU38      -0.2867
     24  CB         8.7190  -22.5580  -14.0470 C.3    38  LEU38       0.0270
     25  CG         7.9310  -22.3610  -15.3460 C.3    38  LEU38       0.0019
     26  CD1        6.9580  -23.5100  -15.5680 C.3    38  LEU38       0.0001
     27  CD2        7.2020  -21.0250  -15.3650 C.3    38  LEU38       0.0001
     28  N          3.8870  -21.9450   -7.6000 N.3    58  LEU58      -0.1245
     29  CA         4.7820  -21.8030   -8.7210 C.3    58  LEU58       0.1561
     30  C          5.1860  -20.3330   -8.8190 C.2    58  LEU58       0.2260
     31  O          4.3430  -19.4310   -8.6490 O.2    58  LEU58      -0.2867
     32  CB         4.0930  -22.2630   -9.9990 C.3    58  LEU58       0.0270
     33  CG         5.0040  -22.6140  -11.1680 C.3    58  LEU58       0.0019
     34  CD1        5.1700  -24.1230  -11.2390 C.3    58  LEU58       0.0001
     35  CD2        4.4270  -22.0840  -12.4680 C.3    58  LEU58       0.0001
     36  N          6.9040  -17.6960  -11.5620 N.3    60  ARG60      -0.1245
     37  CA         7.2720  -17.4830  -12.9520 C.3    60  ARG60       0.1563
     38  C          7.9720  -16.1290  -13.0500 C.2    60  ARG60       0.2260
     39  O          7.4980  -15.1460  -12.4660 O.2    60  ARG60      -0.2867
     40  CB         6.0160  -17.5290  -13.8320 C.3    60  ARG60       0.0307
     41  CG         6.2250  -17.3240  -15.3280 C.3    60  ARG60       0.0489
     42  CD         4.9210  -17.5610  -16.0830 C.3    60  ARG60       0.2205
     43  NE         4.3720  -18.8940  -15.8160 N.pl3  60  ARG60      -0.0865
     44  CZ         4.4380  -19.9250  -16.6610 C.cat  60  ARG60       0.5346
     45  NH1        5.0240  -19.7860  -17.8470 N.pl3  60  ARG60       0.1354
     46  NH2        3.9200  -21.1010  -16.3220 N.pl3  60  ARG60       0.1354
     47  N         -4.5770  -22.2080  -13.6260 N.3    83  PRO83      -0.2116
     48  CA        -4.1700  -22.1830  -12.2020 C.3    83  PRO83       0.1372
     49  C         -4.5680  -20.8560  -11.5270 C.2    83  PRO83       0.2244
     50  O         -4.6130  -19.8210  -12.1900 O.2    83  PRO83      -0.2868
     51  CB        -2.6510  -22.3340  -12.2680 C.3    83  PRO83       0.0268
     52  CG        -2.3880  -22.9850  -13.6020 C.3    83  PRO83       0.0207
     53  CD        -3.4040  -22.3130  -14.5070 C.3    83  PRO83       0.0892
     54  N          1.7430  -18.3820   -8.8690 N.3    95  GLU95      -0.1231
     55  CA         0.5820  -19.1490   -9.3190 C.3    95  GLU95       0.1699
     56  C          0.3470  -20.3530   -8.4650 C.2    95  GLU95       0.2592
     57  O          1.2570  -20.8550   -7.8120 O.2    95  GLU95      -0.2718
     58  CB         0.7900  -19.6830  -10.7380 C.3    95  GLU95       0.0402
     59  CG         1.2870  -18.6970  -11.7730 C.3    95  GLU95       0.1161
     60  CD         1.7220  -19.4230  -13.0410 C.2    95  GLU95       0.3649
     61  OE1        1.4730  -20.6420  -13.1620 O.co2  95  GLU95      -0.2457
     62  OE2        2.3220  -18.7890  -13.9110 O.co2  95  GLU95      -0.2457
     63  N         -0.8730  -20.8570   -8.5200 N.am   96  GLN96      -0.1966
     64  CA        -1.1990  -22.1330   -7.9220 C.3    96  GLN96       0.1733
     65  C         -0.3130  -23.2340   -8.5200 C.2    96  GLN96       0.2616
     66  O         -0.0700  -23.2710   -9.7180 O.2    96  GLN96      -0.2715
     67  CB        -2.6710  -22.4590   -8.1610 C.3    96  GLN96       0.0408
     68  CG        -3.1320  -23.7600   -7.5250 C.3    96  GLN96       0.0908
     69  CD        -4.4930  -24.1940   -8.0270 C.2    96  GLN96       0.2608
     70  OE1       -5.0450  -23.6020   -8.9540 O.2    96  GLN96      -0.2717
     71  NE2       -5.0360  -25.2350   -7.4260 N.am   96  GLN96      -0.0878
     72  N          0.1850  -24.1090   -7.6580 N.am   97  PHE97      -0.1960
     73  CA         0.9710  -25.2460   -8.1020 C.3    97  PHE97       0.1771
     74  C          0.0000  -26.4110   -8.1300 C.2    97  PHE97       0.2619
     75  O         -0.6340  -26.7140   -7.1290 O.2    97  PHE97      -0.2715
     76  CB         2.1240  -25.5160   -7.1360 C.3    97  PHE97       0.0574
     77  CG         2.9730  -26.6960   -7.5180 C.ar   97  PHE97      -0.0200
     78  CD1        3.9920  -26.5610   -8.4540 C.ar   97  PHE97      -0.0042
     79  CD2        2.7500  -27.9440   -6.9430 C.ar   97  PHE97      -0.0042
     80  CE1        4.7740  -27.6580   -8.8150 C.ar   97  PHE97      -0.0003
     81  CE2        3.5330  -29.0410   -7.2880 C.ar   97  PHE97      -0.0003
     82  CZ         4.5390  -28.8970   -8.2280 C.ar   97  PHE97      -0.0000
     83  N         -0.1800  -27.0060   -9.3010 N.am   98  ILE98      -0.1977
     84  CA        -1.1480  -28.0930   -9.4590 C.3    98  ILE98       0.1596
     85  C         -0.3770  -29.4060   -9.3970 C.2    98  ILE98       0.2287
     86  O          0.5020  -29.6200  -10.2390 O.2    98  ILE98      -0.2864
     87  CB        -1.8650  -28.0410  -10.8320 C.3    98  ILE98       0.0276
     88  CG1       -2.2390  -26.5990  -11.2280 C.3    98  ILE98       0.0022
     89  CG2       -3.0820  -28.9620  -10.8360 C.3    98  ILE98       0.0022
     90  CD1       -3.4420  -26.0470  -10.5130 C.3    98  ILE98       0.0001
     91  N          0.4370  -32.9110  -10.2750 N.3   100  SER100     -0.1217
     92  CA         0.1870  -33.3940  -11.6280 C.3   100  SER100      0.1889
     93  C          1.4930  -33.7960  -12.2770 C.2   100  SER100      0.2288
     94  O          2.5700  -33.5900  -11.7060 O.2   100  SER100     -0.2866
     95  CB        -0.4310  -32.2620  -12.4630 C.3   100  SER100      0.2089
     96  OG         0.4340  -31.1260  -12.4990 O.3   100  SER100     -0.2183
     97  N          3.0620  -33.6980  -16.6080 N.3   102  ARG102     -0.1245
     98  CA         2.7600  -33.3730  -17.9970 C.3   102  ARG102      0.1563
     99  C          2.4490  -34.6800  -18.7130 C.2   102  ARG102      0.2260
    100  O          2.9460  -35.7400  -18.3130 O.2   102  ARG102     -0.2867
    101  CB         3.9840  -32.7320  -18.6590 C.3   102  ARG102      0.0307
    102  CG         4.3640  -31.3700  -18.0900 C.3   102  ARG102      0.0489
    103  CD         5.6380  -30.8830  -18.7520 C.3   102  ARG102      0.2205
    104  NE         6.8110  -31.4900  -18.1460 N.pl3 102  ARG102     -0.0865
    105  CZ         7.9790  -31.6290  -18.7570 C.cat 102  ARG102      0.5346
    106  NH1        8.1380  -31.2260  -20.0080 N.pl3 102  ARG102      0.1354
    107  NH2        8.9890  -32.1820  -18.1150 N.pl3 102  ARG102      0.1354
    108  N         -0.6000  -23.4900  -28.7500 N.3   195  ASP195     -0.1239
    109  CA         0.5710  -24.3250  -28.4150 C.3   195  ASP195      0.1674
    110  C          0.1280  -25.5670  -27.6450 C.2   195  ASP195      0.2266
    111  O          0.6640  -25.8970  -26.5830 O.2   195  ASP195     -0.2867
    112  CB         1.5580  -23.4960  -27.5780 C.3   195  ASP195      0.1410
    113  CG         2.9110  -24.1820  -27.3930 C.2   195  ASP195      0.3668
    114  OD1        3.2800  -25.0670  -28.1940 O.co2 195  ASP195     -0.2456
    115  OD2        3.6090  -23.8070  -26.4290 O.co2 195  ASP195     -0.2456
    116  N          0.6360  -28.6580  -27.1420 N.3   197  GLN197     -0.1245
    117  CA         1.5620  -29.7920  -27.1520 C.3   197  GLN197      0.1566
    118  C          1.3930  -30.5170  -25.8010 C.2   197  GLN197      0.2260
    119  O          0.9240  -29.9080  -24.8270 O.2   197  GLN197     -0.2867
    120  CB         2.9940  -29.2950  -27.3430 C.3   197  GLN197      0.0367
    121  CG         3.4450  -28.1600  -26.4350 C.3   197  GLN197      0.0905
    122  CD         4.9340  -27.8210  -26.5700 C.2   197  GLN197      0.2608
    123  OE1        5.7760  -28.4860  -25.9950 O.2   197  GLN197     -0.2717
    124  NE2        5.2510  -26.7620  -27.3090 N.am  197  GLN197     -0.0878
    125  N          3.3600  -31.2570  -23.4390 N.3   199  GLY199     -0.1210
    126  CA         4.0230  -30.5980  -22.3120 C.3   199  GLY199      0.1956
    127  C          3.2410  -29.4610  -21.6750 C.2   199  GLY199      0.2611
    128  O          3.5570  -29.0370  -20.5740 O.2   199  GLY199     -0.2717
    129  N          2.2240  -28.9650  -22.3810 N.am  200  ASN200     -0.1974
    130  CA         1.3390  -27.9300  -21.8840 C.3   200  ASN200      0.1688
    131  C          0.0000  -28.4810  -21.4370 C.2   200  ASN200      0.2292
    132  O         -0.9810  -27.7420  -21.3540 O.2   200  ASN200     -0.2864
    133  CB         1.1310  -26.8810  -22.9820 C.3   200  ASN200      0.1181
    134  CG         2.3870  -26.0930  -23.2570 C.2   200  ASN200      0.2629
    135  OD1        3.2650  -26.0230  -22.4070 O.2   200  ASN200     -0.2716
    136  ND2        2.4890  -25.5040  -24.4460 N.am  200  ASN200     -0.0877
    137  N         -1.5490  -30.8300  -18.3230 N.3   202  LEU202     -0.1245
    138  CA        -1.3270  -31.5020  -17.0420 C.3   202  LEU202      0.1561
    139  C         -2.3070  -32.6370  -16.8270 C.2   202  LEU202      0.2260
    140  O         -3.4870  -32.4730  -17.0340 O.2   202  LEU202     -0.2867
    141  CB        -1.4660  -30.4940  -15.9000 C.3   202  LEU202      0.0270
    142  CG        -0.4650  -29.3440  -15.8990 C.3   202  LEU202      0.0019
    143  CD1       -0.7040  -28.4680  -14.6680 C.3   202  LEU202      0.0001
    144  CD2        0.9420  -29.9210  -15.9020 C.3   202  LEU202      0.0001
    145  N         -2.3970  -25.6610  -19.8500 N.3   218  ILE218     -0.1231
    146  CA        -1.6370  -24.5990  -19.1960 C.3   218  ILE218      0.1692
    147  C         -0.7670  -23.8930  -20.2230 C.2   218  ILE218      0.2592
    148  O         -0.7840  -24.2780  -21.4040 O.2   218  ILE218     -0.2718
    149  CB        -0.7650  -25.1310  -18.0370 C.3   218  ILE218      0.0266
    150  CG1        0.2450  -26.1740  -18.5470 C.3   218  ILE218      0.0019
    151  CG2       -1.6640  -25.6770  -16.9300 C.3   218  ILE218      0.0020
    152  CD1        1.4230  -26.3890  -17.6230 C.3   218  ILE218      0.0001
    153  N         -0.0110  -22.8900  -19.7670 N.am  219  ASP219     -0.1974
    154  CA         1.0290  -22.2260  -20.5820 C.3   219  ASP219      0.1709
    155  C          0.4020  -21.4820  -21.7810 C.2   219  ASP219      0.2293
    156  O          0.5020  -21.8950  -22.9400 O.2   219  ASP219     -0.2864
    157  CB         2.1010  -23.2290  -21.0670 C.3   219  ASP219      0.1436
    158  CG         3.0000  -23.7680  -19.9220 C.2   219  ASP219      0.3671
    159  OD1        3.0570  -23.1360  -18.8430 O.co2 219  ASP219     -0.2456
    160  OD2        3.6760  -24.8230  -20.1100 O.co2 219  ASP219     -0.2456
    161  N          1.2190  -18.0670  -25.9430 N.3   222  TYR222     -0.1241
    162  CA         0.9240  -17.7770  -27.3550 C.3   222  TYR222      0.1605
    163  C         -0.5480  -17.4900  -27.6540 C.2   222  TYR222      0.2264
    164  O         -0.8840  -17.2130  -28.7990 O.2   222  TYR222     -0.2867
    165  CB         1.4380  -18.9130  -28.2610 C.3   222  TYR222      0.0534
    166  CG         2.9280  -19.1250  -28.1420 C.ar  222  TYR222     -0.0201
    167  CD1        3.8390  -18.2090  -28.7040 C.ar  222  TYR222     -0.0009
    168  CD2        3.4320  -20.2180  -27.4520 C.ar  222  TYR222     -0.0009
    169  CE1        5.2120  -18.4030  -28.5940 C.ar  222  TYR222      0.0417
    170  CE2        4.8030  -20.4240  -27.3300 C.ar  222  TYR222      0.0417
    171  CZ         5.6870  -19.5210  -27.9060 C.ar  222  TYR222      0.1957
    172  OH         7.0360  -19.7360  -27.7530 O.3   222  TYR222     -0.2866
    173  N         -2.4080  -27.6560  -35.3680 N.3   234  ASN234     -0.1240
    174  CA        -1.1850  -27.6150  -34.5550 C.3   234  ASN234      0.1653
    175  C         -1.1190  -28.7830  -33.5510 C.2   234  ASN234      0.2266
    176  O         -0.0660  -29.4440  -33.3890 O.2   234  ASN234     -0.2867
    177  CB        -1.0660  -26.2640  -33.8330 C.3   234  ASN234      0.1155
    178  CG         0.2310  -26.1300  -33.0540 C.2   234  ASN234      0.2627
    179  OD1        1.3110  -26.0410  -33.6270 O.2   234  ASN234     -0.2716
    180  ND2        0.1280  -26.1810  -31.7420 N.am  234  ASN234     -0.0877
    181  N          1.5940  -31.9940  -33.3090 N.3   238  GLU238     -0.1245
    182  CA         2.3370  -32.3110  -32.0750 C.3   238  GLU238      0.1567
    183  C          2.3580  -33.7910  -31.7570 C.2   238  GLU238      0.2260
    184  O          3.2220  -34.2570  -31.0340 O.2   238  GLU238     -0.2867
    185  CB         1.8160  -31.5060  -30.8910 C.3   238  GLU238      0.0388
    186  CG         2.3500  -30.0780  -30.8740 C.3   238  GLU238      0.1160
    187  CD         3.8670  -29.9970  -30.6800 C.2   238  GLU238      0.3649
    188  OE1        4.4990  -30.9760  -30.2360 O.co2 238  GLU238     -0.2457
    189  OE2        4.4480  -28.9220  -30.9590 O.co2 238  GLU238     -0.2457
    190  N          9.5620  -34.1050  -27.3100 N.3   243  TYR243     -0.1241
    191  CA        10.6300  -33.2360  -26.8110 C.3   243  TYR243      0.1605
    192  C         11.3110  -33.7720  -25.5530 C.2   243  TYR243      0.2264
    193  O         12.0270  -33.0420  -24.8960 O.2   243  TYR243     -0.2867
    194  CB        10.1140  -31.8250  -26.5610 C.3   243  TYR243      0.0534
    195  CG         9.3160  -31.2760  -27.7400 C.ar  243  TYR243     -0.0201
    196  CD1        9.9390  -31.0540  -28.9740 C.ar  243  TYR243     -0.0009
    197  CD2        7.9550  -30.9930  -27.6170 C.ar  243  TYR243     -0.0009
    198  CE1        9.2220  -30.5740  -30.0610 C.ar  243  TYR243      0.0417
    199  CE2        7.2200  -30.4990  -28.7160 C.ar  243  TYR243      0.0417
    200  CZ         7.8790  -30.2950  -29.9260 C.ar  243  TYR243      0.1957
    201  OH         7.1940  -29.8260  -31.0230 O.3   243  TYR243     -0.2866
    202  N          6.2290  -22.6140  -36.9360 N.3   309  TRP309     -0.1241
    203  CA         7.2030  -23.0610  -35.9280 C.3   309  TRP309      0.1605
    204  C          8.5570  -23.3430  -36.5120 C.2   309  TRP309      0.2264
    205  O          9.5550  -23.1950  -35.8110 O.2   309  TRP309     -0.2867
    206  CB         6.7030  -24.2590  -35.1290 C.3   309  TRP309      0.0550
    207  CG         5.4630  -23.9490  -34.3370 C.ar  309  TRP309      0.0003
    208  CD1        4.2340  -24.6100  -34.3980 C.ar  309  TRP309      0.0946
    209  CD2        5.2770  -22.8780  -33.3460 C.ar  309  TRP309      0.0152
    210  NE1        3.3210  -24.0350  -33.5380 N.ar  309  TRP309     -0.2442
    211  CE2        3.8880  -22.9910  -32.8740 C.ar  309  TRP309      0.0810
    212  CE3        6.0920  -21.8590  -32.8270 C.ar  309  TRP309      0.0012
    213  CZ2        3.3620  -22.1260  -31.9140 C.ar  309  TRP309      0.0191
    214  CZ3        5.5410  -20.9740  -31.8660 C.ar  309  TRP309      0.0001
    215  CH2        4.2160  -21.1190  -31.4140 C.ar  309  TRP309      0.0015
    216  N         10.0520  -19.9300  -36.5690 N.3   312  TRP312     -0.1241
    217  CA        10.2990  -19.5950  -35.1670 C.3   312  TRP312      0.1605
    218  C         11.5540  -20.2880  -34.6470 C.2   312  TRP312      0.2264
    219  O         12.3850  -19.6770  -33.9330 O.2   312  TRP312     -0.2867
    220  CB         9.0670  -19.9840  -34.3410 C.3   312  TRP312      0.0550
    221  CG         9.2470  -19.9060  -32.8410 C.ar  312  TRP312      0.0003
    222  CD1        8.9810  -18.8160  -31.9990 C.ar  312  TRP312      0.0946
    223  CD2        9.7130  -20.9740  -31.9470 C.ar  312  TRP312      0.0152
    224  NE1        9.2510  -19.1380  -30.6850 N.ar  312  TRP312     -0.2442
    225  CE2        9.6930  -20.4180  -30.5910 C.ar  312  TRP312      0.0810
    226  CE3       10.1250  -22.2820  -32.1270 C.ar  312  TRP312      0.0012
    227  CZ2       10.0850  -21.1640  -29.4890 C.ar  312  TRP312      0.0191
    228  CZ3       10.5210  -23.0140  -31.0060 C.ar  312  TRP312      0.0001
    229  CH2       10.4980  -22.4610  -29.7190 C.ar  312  TRP312      0.0015
    230  N         18.3880  -22.5170  -24.1120 N.3   322  ILE322     -0.1245
    231  CA        17.9900  -23.9140  -23.9160 C.3   322  ILE322      0.1561
    232  C         18.8780  -24.8430  -24.7590 C.2   322  ILE322      0.2260
    233  O         19.2900  -24.4810  -25.8590 O.2   322  ILE322     -0.2867
    234  CB        16.4800  -24.1140  -24.2490 C.3   322  ILE322      0.0252
    235  CG1       15.5930  -23.4020  -23.2130 C.3   322  ILE322      0.0019
    236  CG2       16.0900  -25.5880  -24.3020 C.3   322  ILE322      0.0019
    237  CD1       14.9690  -22.1060  -23.6880 C.3   322  ILE322      0.0001
    238  N         18.7320  -27.4200  -27.1230 N.3   324  PHE324     -0.1241
    239  CA        17.7660  -27.9570  -28.0770 C.3   324  PHE324      0.1605
    240  C         18.3150  -27.7020  -29.4640 C.2   324  PHE324      0.2264
    241  O         18.8470  -26.6260  -29.7370 O.2   324  PHE324     -0.2867
    242  CB        16.4040  -27.2570  -27.9270 C.3   324  PHE324      0.0534
    243  CG        15.2980  -27.9030  -28.7240 C.ar  324  PHE324     -0.0203
    244  CD1       14.6810  -29.0650  -28.2620 C.ar  324  PHE324     -0.0042
    245  CD2       14.8820  -27.3560  -29.9390 C.ar  324  PHE324     -0.0042
    246  CE1       13.6630  -29.6730  -28.9950 C.ar  324  PHE324     -0.0003
    247  CE2       13.8650  -27.9560  -30.6790 C.ar  324  PHE324     -0.0003
    248  CZ        13.2640  -29.1230  -30.2040 C.ar  324  PHE324     -0.0000
    249  N         17.7070  -26.4630  -32.4700 N.3   326  TYR326     -0.1241
    250  CA        16.6510  -25.6730  -33.1610 C.3   326  TYR326      0.1605
    251  C         16.7320  -25.7310  -34.6870 C.2   326  TYR326      0.2264
    252  O         15.7040  -25.7310  -35.3600 O.2   326  TYR326     -0.2867
    253  CB        16.6300  -24.2050  -32.7260 C.3   326  TYR326      0.0534
    254  CG        16.0720  -23.9690  -31.3370 C.ar  326  TYR326     -0.0201
    255  CD1       14.7040  -24.0240  -31.0830 C.ar  326  TYR326     -0.0009
    256  CD2       16.9340  -23.6810  -30.2780 C.ar  326  TYR326     -0.0009
    257  CE1       14.2100  -23.8110  -29.7940 C.ar  326  TYR326      0.0417
    258  CE2       16.4560  -23.4610  -29.0010 C.ar  326  TYR326      0.0417
    259  CZ        15.1060  -23.5210  -28.7700 C.ar  326  TYR326      0.1957
    260  OH        14.6760  -23.3040  -27.4920 O.3   326  TYR326     -0.2866
    261  N         15.3540  -29.0100  -35.7840 N.3   329  TYR329     -0.1241
    262  CA        13.8980  -29.0050  -35.6070 C.3   329  TYR329      0.1605
    263  C         13.2250  -28.2080  -36.6990 C.2   329  TYR329      0.2264
    264  O         12.1620  -28.5970  -37.1820 O.2   329  TYR329     -0.2867
    265  CB        13.5260  -28.4380  -34.2350 C.3   329  TYR329      0.0534
    266  CG        12.0300  -28.4200  -33.9480 C.ar  329  TYR329     -0.0201
    267  CD1       11.3330  -29.6080  -33.6600 C.ar  329  TYR329     -0.0009
    268  CD2       11.3300  -27.2270  -33.9280 C.ar  329  TYR329     -0.0009
    269  CE1        9.9680  -29.5880  -33.3670 C.ar  329  TYR329      0.0417
    270  CE2        9.9640  -27.2000  -33.6270 C.ar  329  TYR329      0.0417
    271  CZ         9.3020  -28.3770  -33.3540 C.ar  329  TYR329      0.1957
    272  OH         7.9680  -28.3540  -33.0700 O.3   329  TYR329     -0.2866
@<TRIPOS>BOND
     1   264   263    2
     2   202   203    1
     3   263   262    1
     4   216   217    1
     5   204   203    1
     6   204   205    2
     7   203   206    1
     8   261   262    1
     9   262   265    1
    10   173   174    1
    11   252   251    2
    12   217   218    1
    13   217   220    1
    14   206   207    1
    15   251   250    1
    16   218   219    2
    17   174   177    1
    18   174   175    1
    19   208   207   ar
    20   208   210   ar
    21   220   221    1
    22   207   209   ar
    23   265   266    1
    24   266   268   ar
    25   266   267   ar
    26   268   270   ar
    27   177   178    1
    28   267   269   ar
    29   270   271   ar
    30   179   178    2
    31   175   176    2
    32   210   211   ar
    33   269   271   ar
    34   271   272    1
    35   209   211   ar
    36   209   212   ar
    37   181   182    1
    38   250   253    1
    39   250   249    1
    40   178   180   am
    41   211   213   ar
    42   221   222   ar
    43   221   223   ar
    44   212   214   ar
    45   253   254    1
    46   226   223   ar
    47   226   228   ar
    48   182   183    1
    49   182   185    1
    50   222   224   ar
    51   223   225   ar
    52   213   215   ar
    53   214   215   ar
    54   183   184    2
    55   254   255   ar
    56   254   256   ar
    57   255   257   ar
    58   201   200    1
    59   228   229   ar
    60   189   187   ar
    61   185   186    1
    62   186   187    1
    63   224   225   ar
    64   187   188   ar
    65   247   248   ar
    66   247   245   ar
    67   225   227   ar
    68   256   258   ar
    69   248   246   ar
    70   198   200   ar
    71   198   196   ar
    72   245   243   ar
    73   200   199   ar
    74   257   259   ar
    75   241   240    2
    76   229   227   ar
    77   240   239    1
    78   258   259   ar
    79   246   244   ar
    80   196   195   ar
    81   164   163    2
    82   259   260    1
    83   108   109    1
    84   243   244   ar
    85   243   242    1
    86   199   197   ar
    87   167   169   ar
    88   167   166   ar
    89   169   171   ar
    90   109   110    1
    91   109   112    1
    92   165   166    1
    93   165   162    1
    94   114   113   ar
    95   166   168   ar
    96   239   242    1
    97   239   238    1
    98   171   172    1
    99   171   170   ar
   100   195   197   ar
   101   195   194    1
   102   163   162    1
   103   110   111    2
   104   112   113    1
   105   168   170   ar
   106   113   115   ar
   107   162   161    1
   108   120   117    1
   109   120   121    1
   110   190   191    1
   111   124   122   am
   112   117   116    1
   113   117   118    1
   114   191   194    1
   115   191   192    1
   116   122   121    1
   117   122   123    2
   118   233   232    2
   119   118   119    2
   120   192   193    2
   121   232   231    1
   122   136   134   am
   123   236   234    1
   124   234   231    1
   125   234   235    1
   126   230   231    1
   127   237   235    1
   128   125   126    1
   129   134   133    1
   130   134   135    2
   131   133   130    1
   132   156   155    2
   133   129   130    1
   134   129   127   am
   135   126   127    1
   136   130   131    1
   137   155   154    1
   138   127   128    2
   139   131   132    2
   140   148   147    2
   141   157   154    1
   142   157   158    1
   143   154   153    1
   144   147   153   am
   145   147   146    1
   146    19    17    1
   147   160   158   ar
   148   106   105    1
   149   158   159   ar
   150   145   146    1
   151    17    16    2
   152    17    18    1
   153    16    15    1
   154   146   149    1
   155    15    14    1
   156   105   104    2
   157   105   107    1
   158   103   104    1
   159   103   102    1
   160    99   100    2
   161    99    98    1
   162   101   102    1
   163   101    98    1
   164   150   149    1
   165   150   152    1
   166    14    13    1
   167   137   138    1
   168   149   151    1
   169    98    97    1
   170    45    44    1
   171    13    10    1
   172   138   139    1
   173   138   141    1
   174   140   139    2
   175    44    46    1
   176    44    43    2
   177    11    10    1
   178    11    12    2
   179    10     9    1
   180    42    43    1
   181    42    41    1
   182   144   142    1
   183   141   142    1
   184   142   143    1
   185    26    25    1
   186    27    25    1
   187    25    24    1
   188    41    40    1
   189     4     3    2
   190     9     3   am
   191    20    21    1
   192    53    47    1
   193    53    52    1
   194     3     2    1
   195    24    21    1
   196    62    60   ar
   197    40    37    1
   198    47    48    1
   199    21    22    1
   200    52    51    1
   201     7     5    1
   202    61    60   ar
   203    38    37    1
   204    38    39    2
   205    60    59    1
   206    37    36    1
   207     2     5    1
   208     2     1    1
   209    23    22    2
   210     5     6    1
   211    96    95    1
   212    35    33    1
   213    95    92    1
   214    93    94    2
   215    93    92    1
   216    51    48    1
   217    48    49    1
   218    50    49    2
   219    59    58    1
   220    92    91    1
   221    34    33    1
   222    88    87    1
   223    88    90    1
   224    33    32    1
   225     6     8    1
   226    89    87    1
   227    87    84    1
   228    58    55    1
   229    86    85    2
   230    32    29    1
   231    66    65    2
   232    84    85    1
   233    84    83    1
   234    55    54    1
   235    55    56    1
   236    83    74   am
   237    70    69    2
   238    30    29    1
   239    30    31    2
   240    80    78   ar
   241    80    82   ar
   242    29    28    1
   243    63    56   am
   244    63    64    1
   245    65    64    1
   246    65    72   am
   247    56    57    2
   248    78    77   ar
   249    82    81   ar
   250    67    64    1
   251    67    68    1
   252    74    73    1
   253    74    75    2
   254    73    72    1
   255    73    76    1
   256    69    68    1
   257    69    71   am
   258    77    76    1
   259    77    79   ar
   260    81    79   ar
