@<TRIPOS>MOLECULE
tmp/3zmbA01.pdb
 134 128 0 0 0
SMALL
GASTEIGER

@<TRIPOS>ATOM
      1  N          1.2020   21.6250  -12.1330 N.3    45  LYS45      -0.1231
      2  CA         0.0140   21.8850  -11.3270 C.3    45  LYS45       0.1693
      3  C         -0.3350   23.3870  -11.1380 C.2    45  LYS45       0.2592
      4  O         -1.4310   23.6750  -10.7580 O.2    45  LYS45      -0.2718
      5  CB         0.0980   21.1580   -9.9840 C.3    45  LYS45       0.0285
      6  CG         0.0220   19.6340  -10.0640 C.3    45  LYS45       0.0035
      7  CD        -1.2270   19.1580  -10.8370 C.3    45  LYS45       0.0206
      8  CE        -1.1070   17.7300  -11.3670 C.3    45  LYS45       0.1093
      9  NZ        -2.2730   17.3960  -12.2510 N.3    45  LYS45      -0.1314
     10  N          0.5750   24.3070  -11.5170 N.am   46  ARG46      -0.1966
     11  CA         0.3100   25.7480  -11.4760 C.3    46  ARG46       0.1729
     12  C         -0.1290   26.2550  -10.0800 C.2    46  ARG46       0.2616
     13  O         -1.0510   27.0350   -9.9450 O.2    46  ARG46      -0.2715
     14  CB        -0.7410   26.1390  -12.4860 C.3    46  ARG46       0.0348
     15  CG        -0.5410   25.5430  -13.8740 C.3    46  ARG46       0.0492
     16  CD         0.8360   25.9440  -14.4770 C.3    46  ARG46       0.2205
     17  NE         0.8110   25.6410  -15.8880 N.pl3  46  ARG46      -0.0865
     18  CZ         1.8220   25.2210  -16.6190 C.cat  46  ARG46       0.5346
     19  NH1        3.0200   25.0400  -16.0910 N.pl3  46  ARG46       0.1354
     20  NH2        1.6460   24.9720  -17.9110 N.pl3  46  ARG46       0.1354
     21  N          0.6310   25.8660   -9.0710 N.am   47  VAL47      -0.1963
     22  CA         0.4140   26.3530   -7.6900 C.3    47  VAL47       0.1727
     23  C          0.5800   27.8440   -7.5800 C.2    47  VAL47       0.2616
     24  O         -0.2090   28.5000   -6.9040 O.2    47  VAL47      -0.2715
     25  CB         1.3540   25.6860   -6.7030 C.3    47  VAL47       0.0290
     26  CG1        1.0120   26.1220   -5.2980 C.3    47  VAL47       0.0023
     27  CG2        1.1310   24.1870   -6.7520 C.3    47  VAL47       0.0023
     28  N          1.5560   28.4160   -8.3140 N.am   48  ARG48      -0.1977
     29  CA         1.8000   29.8410   -8.1940 C.3    48  ARG48       0.1597
     30  C          0.6620   30.6450   -8.8210 C.2    48  ARG48       0.2287
     31  O          0.1510   31.5740   -8.2200 O.2    48  ARG48      -0.2864
     32  CB         3.1820   30.1750   -8.7000 C.3    48  ARG48       0.0334
     33  CG         4.2240   29.6910   -7.6570 C.3    48  ARG48       0.0492
     34  CD         5.5730   29.3580   -8.2750 C.3    48  ARG48       0.2205
     35  NE         6.4140   28.6480   -7.3500 N.pl3  48  ARG48      -0.0865
     36  CZ         6.3880   27.3330   -7.1750 C.cat  48  ARG48       0.5346
     37  NH1        5.6270   26.5430   -7.9390 N.pl3  48  ARG48       0.1354
     38  NH2        7.2390   26.8020   -6.3140 N.pl3  48  ARG48       0.1354
     39  N          8.8400   30.7030  -12.5350 N.3    77  HIS77      -0.1241
     40  CA         8.9930   29.3330  -12.0410 C.3    77  HIS77       0.1621
     41  C          9.5400   28.3640  -13.1000 C.2    77  HIS77       0.2264
     42  O         10.5100   27.6730  -12.8430 O.2    77  HIS77      -0.2867
     43  CB         7.6450   28.8550  -11.5270 C.3    77  HIS77       0.0745
     44  CG         7.6540   27.4720  -10.9800 C.ar   77  HIS77       0.0817
     45  ND1        8.4700   27.0690   -9.9460 N.ar   77  HIS77      -0.2268
     46  CD2        6.9060   26.4020  -11.3140 C.ar   77  HIS77       0.1154
     47  CE1        8.2320   25.7980   -9.6880 C.ar   77  HIS77       0.1986
     48  NE2        7.2960   25.3690  -10.5170 N.ar   77  HIS77      -0.2212
     49  N         12.2330   29.0410   -2.4890 N.3   180  THR180     -0.1218
     50  CA        10.8360   28.8290   -2.8340 C.3   180  THR180      0.1862
     51  C          9.9140   29.8720   -2.2240 C.2   180  THR180      0.2287
     52  O          8.9180   30.2330   -2.8570 O.2   180  THR180     -0.2866
     53  CB        10.3460   27.4060   -2.5170 C.3   180  THR180      0.1770
     54  OG1       10.6170   27.0140   -1.1990 O.3   180  THR180     -0.2211
     55  CG2       10.9720   26.3640   -3.4660 C.3   180  THR180      0.0375
     56  N          6.6500   32.2020   -3.9580 N.3   184  ILE184     -0.1245
     57  CA         5.3230   31.9140   -3.3840 C.3   184  ILE184      0.1561
     58  C          4.6490   33.1700   -2.8170 C.2   184  ILE184      0.2260
     59  O          3.4660   33.4620   -3.0870 O.2   184  ILE184     -0.2867
     60  CB         5.4250   30.7710   -2.3570 C.3   184  ILE184      0.0252
     61  CG1        5.6400   29.4540   -3.1340 C.3   184  ILE184      0.0019
     62  CG2        4.1760   30.6700   -1.4680 C.3   184  ILE184      0.0019
     63  CD1        6.2070   28.3820   -2.2980 C.3   184  ILE184      0.0001
     64  N          2.4670   28.8040    4.4500 N.3   213  ILE213     -0.1231
     65  CA         2.2540   27.6730    3.5720 C.3   213  ILE213      0.1692
     66  C          3.5180   27.2390    2.8380 C.2   213  ILE213      0.2592
     67  O          3.6700   26.0680    2.5470 O.2   213  ILE213     -0.2718
     68  CB         1.1210   27.8640    2.5510 C.3   213  ILE213      0.0266
     69  CG1        1.3360   29.0680    1.6690 C.3   213  ILE213      0.0019
     70  CG2       -0.1730   28.0420    3.2850 C.3   213  ILE213      0.0020
     71  CD1        0.8910   28.7310    0.2630 C.3   213  ILE213      0.0001
     72  N          4.3850   28.1840    2.4880 N.am  214  GLY214     -0.1957
     73  CA         5.6030   27.8610    1.7390 C.3   214  GLY214      0.1869
     74  C          6.4470   26.9300    2.6010 C.2   214  GLY214      0.2309
     75  O          6.9470   25.9360    2.1450 O.2   214  GLY214     -0.2863
     76  N          4.7110   23.3590    3.2090 N.3   217  PHE217     -0.1227
     77  CA         4.8960   22.5020    2.1440 C.3   217  PHE217      0.1736
     78  C          6.2370   21.7530    2.2280 C.2   217  PHE217      0.2595
     79  O          6.2980   20.5870    1.9220 O.2   217  PHE217     -0.2718
     80  CB         4.8290   23.2450    0.8230 C.3   217  PHE217      0.0547
     81  CG         4.9890   22.3230   -0.3170 C.ar  217  PHE217     -0.0202
     82  CD1        3.9110   21.5290   -0.7110 C.ar  217  PHE217     -0.0042
     83  CD2        6.2250   22.1580   -0.9710 C.ar  217  PHE217     -0.0042
     84  CE1        4.0510   20.5760   -1.7270 C.ar  217  PHE217     -0.0003
     85  CE2        6.3500   21.2230   -1.9860 C.ar  217  PHE217     -0.0003
     86  CZ         5.2700   20.4240   -2.3590 C.ar  217  PHE217     -0.0000
     87  N          7.2990   22.4500    2.6380 N.am  218  GLN218     -0.1979
     88  CA         8.6060   21.8350    2.6880 C.3   218  GLN218      0.1601
     89  C          8.7020   20.8270    3.8420 C.2   218  GLN218      0.2287
     90  O          9.3040   19.7720    3.6950 O.2   218  GLN218     -0.2864
     91  CB         9.6970   22.9020    2.8490 C.3   218  GLN218      0.0394
     92  CG         9.9480   23.7560    1.5990 C.3   218  GLN218      0.0908
     93  CD        10.1930   22.9890    0.3140 C.2   218  GLN218      0.2608
     94  OE1       10.7670   21.9230    0.3080 O.2   218  GLN218     -0.2717
     95  NE2        9.7140   23.5230   -0.8030 N.am  218  GLN218     -0.0878
     96  N         -6.4330   25.3350    0.5530 N.3   267  LEU267     -0.1245
     97  CA        -5.0930   25.0400    0.1060 C.3   267  LEU267      0.1561
     98  C         -4.1540   24.7770    1.2850 C.2   267  LEU267      0.2260
     99  O         -3.3560   23.8270    1.2320 O.2   267  LEU267     -0.2867
    100  CB        -4.5220   26.1900   -0.7490 C.3   267  LEU267      0.0270
    101  CG        -3.0250   25.9940   -1.2040 C.3   267  LEU267      0.0019
    102  CD1       -2.9200   24.8230   -2.1530 C.3   267  LEU267      0.0001
    103  CD2       -2.3860   27.2240   -1.8290 C.3   267  LEU267      0.0001
    104  N         -4.8670   21.4010    2.5750 N.3   270  TYR270     -0.1227
    105  CA        -4.4830   20.3920    1.5870 C.3   270  TYR270      0.1736
    106  C         -2.9770   20.0590    1.7100 C.2   270  TYR270      0.2595
    107  O         -2.5730   18.8970    1.7110 O.2   270  TYR270     -0.2718
    108  CB        -4.8430   20.8660    0.1850 C.3   270  TYR270      0.0548
    109  CG        -4.1920   20.0220   -0.8390 C.ar  270  TYR270     -0.0200
    110  CD1       -4.7060   18.7780   -1.1680 C.ar  270  TYR270     -0.0009
    111  CD2       -2.9890   20.4160   -1.4010 C.ar  270  TYR270     -0.0009
    112  CE1       -4.0530   17.9580   -2.0660 C.ar  270  TYR270      0.0417
    113  CE2       -2.3190   19.6120   -2.2920 C.ar  270  TYR270      0.0417
    114  CZ        -2.8580   18.3790   -2.6240 C.ar  270  TYR270      0.1957
    115  OH        -2.1660   17.5840   -3.5280 O.3   270  TYR270     -0.2866
    116  N         -2.1590   21.0790    1.8470 N.am  271  ILE271     -0.1980
    117  CA        -0.6860   20.9490    1.9630 C.3   271  ILE271      0.1595
    118  C         -0.2410   20.0450    3.0890 C.2   271  ILE271      0.2287
    119  O          0.6260   19.1830    2.8780 O.2   271  ILE271     -0.2864
    120  CB        -0.0110   22.3460    2.0880 C.3   271  ILE271      0.0276
    121  CG1       -0.1080   23.0420    0.7330 C.3   271  ILE271      0.0022
    122  CG2        1.4470   22.2680    2.5570 C.3   271  ILE271      0.0022
    123  CD1       -0.0020   24.5230    0.8470 C.3   271  ILE271      0.0001
    124  N         -2.0430   16.1460    2.4750 N.3   274  ARG274     -0.1245
    125  CA        -1.6370   15.2550    1.3500 C.3   274  ARG274      0.1563
    126  C         -0.9450   14.0220    1.9120 C.2   274  ARG274      0.2260
    127  O         -0.2610   14.0900    2.9460 O.2   274  ARG274     -0.2867
    128  CB        -0.7580   15.9650    0.2900 C.3   274  ARG274      0.0307
    129  CG         0.4410   16.7360    0.8320 C.3   274  ARG274      0.0489
    130  CD         0.8840   17.9210   -0.0580 C.3   274  ARG274      0.2205
    131  NE         2.0690   18.5590    0.4820 N.pl3 274  ARG274     -0.0865
    132  CZ         3.3220   18.1700    0.2010 C.cat 274  ARG274      0.5346
    133  NH1        3.5630   17.1220   -0.6110 N.pl3 274  ARG274      0.1354
    134  NH2        4.3410   18.7780    0.7970 N.pl3 274  ARG274      0.1354
@<TRIPOS>BOND
     1    20    18    1
     2    18    19    1
     3    18    17    2
     4    17    16    1
     5    16    15    1
     6    15    14    1
     7    41    42    2
     8    41    40    1
     9    39    40    1
    10    14    11    1
    11     9     8    1
    12     1     2    1
    13    40    43    1
    14    43    44    1
    15    10    11    1
    16    10     3   am
    17    11    12    1
    18     8     7    1
    19     2     3    1
    20     2     5    1
    21    46    44   ar
    22    46    48   ar
    23     3     4    2
    24    44    45   ar
    25     7     6    1
    26    48    47   ar
    27    12    13    2
    28    12    21   am
    29     6     5    1
    30    45    47   ar
    31    21    22    1
    32    30    31    2
    33    30    29    1
    34    32    29    1
    35    32    33    1
    36    28    29    1
    37    28    23   am
    38    34    33    1
    39    34    35    1
    40    37    36    1
    41    22    23    1
    42    22    25    1
    43    23    24    2
    44    35    36    2
    45    36    38    1
    46    27    25    1
    47    25    26    1
    48    56    57    1
    49   115   114    1
    50    55    53    1
    51    57    58    1
    52    57    60    1
    53    61    60    1
    54    61    63    1
    55    59    58    2
    56    52    51    2
    57    50    53    1
    58    50    49    1
    59    50    51    1
    60   114   113   ar
    61   114   112   ar
    62    53    54    1
    63    86    85   ar
    64    86    84   ar
    65    60    62    1
    66   113   111   ar
    67   102   101    1
    68   112   110   ar
    69    85    83   ar
    70   103   101    1
    71    84    82   ar
    72   111   109   ar
    73   101   100    1
    74   110   109   ar
    75    83    81   ar
    76   109   108    1
    77    95    93   am
    78   100    97    1
    79    82    81   ar
    80   133   132    1
    81    81    80    1
    82   130   131    1
    83   130   129    1
    84    97    96    1
    85    97    98    1
    86   108   105    1
    87   132   131    2
    88   132   134    1
    89    71    69    1
    90   128   129    1
    91   128   125    1
    92    94    93    2
    93    93    92    1
    94   121   123    1
    95   121   120    1
    96    80    77    1
    97    99    98    2
    98   125   126    1
    99   125   124    1
   100   105   106    1
   101   105   104    1
   102    92    91    1
   103    69    68    1
   104   106   107    2
   105   106   116   am
   106    73    72    1
   107    73    74    1
   108   116   117    1
   109   126   127    2
   110    79    78    2
   111   117   120    1
   112   117   118    1
   113   120   122    1
   114    77    78    1
   115    77    76    1
   116    75    74    2
   117    78    87   am
   118    72    66   am
   119    67    66    2
   120    68    70    1
   121    68    65    1
   122    87    88    1
   123    88    91    1
   124    88    89    1
   125    66    65    1
   126   119   118    2
   127    65    64    1
   128    90    89    2
