@<TRIPOS>MOLECULE
tmp/3zmcB00.pdb
 156 148 0 0 0
SMALL
GASTEIGER

@<TRIPOS>ATOM
      1  N         26.4420   50.9250  -24.3300 N.3    48  ARG48      -0.1245
      2  CA        24.9950   50.9720  -24.2130 C.3    48  ARG48       0.1563
      3  C         24.5630   52.1080  -23.2810 C.2    48  ARG48       0.2260
      4  O         23.6470   52.8400  -23.5850 O.2    48  ARG48      -0.2867
      5  CB        24.4640   49.5720  -23.8590 C.3    48  ARG48       0.0307
      6  CG        24.5440   48.6250  -25.0760 C.3    48  ARG48       0.0489
      7  CD        24.6640   47.1240  -24.6820 C.3    48  ARG48       0.2205
      8  NE        24.9410   46.3210  -25.8910 N.pl3  48  ARG48      -0.0865
      9  CZ        26.1390   46.1290  -26.4010 C.cat  48  ARG48       0.5346
     10  NH1       27.2470   46.5500  -25.7860 N.pl3  48  ARG48       0.1354
     11  NH2       26.2460   45.3870  -27.5130 N.pl3  48  ARG48       0.1354
     12  N         23.4230   43.5100  -20.9060 N.3    77  HIS77      -0.1241
     13  CA        24.6130   43.1940  -21.7000 C.3    77  HIS77       0.1621
     14  C         25.5530   42.2740  -20.9180 C.2    77  HIS77       0.2264
     15  O         25.9930   41.2460  -21.4060 O.2    77  HIS77      -0.2867
     16  CB        25.3230   44.4730  -22.1100 C.3    77  HIS77       0.0745
     17  CG        26.5770   44.2270  -22.9060 C.ar   77  HIS77       0.0817
     18  ND1       26.5710   43.5130  -24.0770 N.ar   77  HIS77      -0.2268
     19  CD2       27.8600   44.6240  -22.7160 C.ar   77  HIS77       0.1154
     20  CE1       27.7860   43.5240  -24.6100 C.ar   77  HIS77       0.1986
     21  NE2       28.5920   44.1730  -23.7880 N.ar   77  HIS77      -0.2212
     22  N         25.0030   40.2350  -18.4120 N.3    79  TYR79      -0.1227
     23  CA        24.4920   38.8680  -18.1020 C.3    79  TYR79       0.1736
     24  C         24.6520   38.0600  -19.3780 C.2    79  TYR79       0.2596
     25  O         25.0830   36.9150  -19.3530 O.2    79  TYR79      -0.2718
     26  CB        23.0190   38.8550  -17.6570 C.3    79  TYR79       0.0548
     27  CG        21.9910   38.2760  -18.5880 C.ar   79  TYR79      -0.0200
     28  CD1       21.9270   36.9170  -18.8070 C.ar   79  TYR79      -0.0009
     29  CD2       20.9630   39.0650  -19.1060 C.ar   79  TYR79      -0.0009
     30  CE1       20.9770   36.3590  -19.6270 C.ar   79  TYR79       0.0417
     31  CE2       19.9790   38.5070  -19.9130 C.ar   79  TYR79       0.0417
     32  CZ        20.0340   37.1360  -20.1930 C.ar   79  TYR79       0.1957
     33  OH        19.0910   36.5160  -21.0280 O.3    79  TYR79      -0.2866
     34  N         24.3490   38.6780  -20.4980 N.am   80  SER80      -0.1938
     35  CA        24.5130   37.9490  -21.8050 C.3    80  SER80       0.2055
     36  C         25.9170   37.4260  -22.0560 C.2    80  SER80       0.2642
     37  O         26.1150   36.3540  -22.6010 O.2    80  SER80      -0.2714
     38  CB        24.0330   38.8200  -22.9980 C.3    80  SER80       0.2130
     39  OG        24.9620   39.8860  -23.3460 O.3    80  SER80      -0.2179
     40  N         26.9090   38.2150  -21.7290 N.am   81  LEU81      -0.1977
     41  CA        28.2930   37.8250  -21.9590 C.3    81  LEU81       0.1596
     42  C         28.6790   36.6820  -21.0080 C.2    81  LEU81       0.2287
     43  O         29.3550   35.7460  -21.4050 O.2    81  LEU81      -0.2864
     44  CB        29.2540   38.9970  -21.8260 C.3    81  LEU81       0.0297
     45  CG        29.0540   40.2110  -22.7030 C.3    81  LEU81       0.0022
     46  CD1       30.2580   41.0800  -22.5850 C.3    81  LEU81       0.0001
     47  CD2       28.9290   39.7690  -24.1600 C.3    81  LEU81       0.0001
     48  N         26.6800   34.2790  -19.8810 N.3    83  HIS83      -0.1226
     49  CA        26.0760   33.0830  -20.5000 C.3    83  HIS83       0.1752
     50  C         26.7410   32.6410  -21.7870 C.2    83  HIS83       0.2596
     51  O         26.9870   31.4200  -21.9770 O.2    83  HIS83      -0.2718
     52  CB        24.5570   33.2230  -20.6550 C.3    83  HIS83       0.0759
     53  CG        23.8030   33.0310  -19.3600 C.ar   83  HIS83       0.0818
     54  ND1       22.4350   32.9050  -19.3010 N.ar   83  HIS83      -0.2268
     55  CD2       24.2390   32.8740  -18.0790 C.ar   83  HIS83       0.1154
     56  CE1       22.0430   32.7710  -18.0450 C.ar   83  HIS83       0.1986
     57  NE2       23.1140   32.7310  -17.2820 N.ar   83  HIS83      -0.2212
     58  N         27.0910   33.6120  -22.6400 N.am   84  ASP84      -0.1960
     59  CA        27.7920   33.3140  -23.8990 C.3    84  ASP84       0.1840
     60  C         29.0940   32.5790  -23.7130 C.2    84  ASP84       0.2622
     61  O         29.4630   31.7380  -24.5610 O.2    84  ASP84      -0.2715
     62  CB        27.9970   34.6380  -24.6440 C.3    84  ASP84       0.1450
     63  CG        28.7470   34.5040  -25.9640 C.2    84  ASP84       0.3671
     64  OD1       28.1400   34.0270  -26.9570 O.co2  84  ASP84      -0.2456
     65  OD2       29.9470   34.8830  -25.9050 O.co2  84  ASP84      -0.2456
     66  N         29.8180   32.8920  -22.6260 N.am   85  ASP85      -0.1971
     67  CA        31.1030   32.3560  -22.3520 C.3    85  ASP85       0.1709
     68  C         31.0210   30.9170  -21.8600 C.2    85  ASP85       0.2293
     69  O         32.0390   30.2380  -21.8580 O.2    85  ASP85      -0.2864
     70  CB        31.8740   33.2320  -21.3300 C.3    85  ASP85       0.1436
     71  CG        32.3650   34.5040  -21.9070 C.2    85  ASP85       0.3671
     72  OD1       32.6470   34.5520  -23.1220 O.co2  85  ASP85      -0.2456
     73  OD2       32.4460   35.4690  -21.1400 O.co2  85  ASP85      -0.2456
     74  N         28.0530   27.1150  -24.5500 N.3    89  MET89      -0.1230
     75  CA        28.0250   28.0200  -25.6880 C.3    89  MET89       0.1702
     76  C         29.4290   28.1840  -26.2210 C.2    89  MET89       0.2592
     77  O         29.9400   27.2560  -26.8950 O.2    89  MET89      -0.2718
     78  CB        27.3200   29.3340  -25.3000 C.3    89  MET89       0.0401
     79  CG        25.8060   29.0360  -25.1560 C.3    89  MET89       0.0596
     80  SD        24.6340   30.3730  -24.8760 S.3    89  MET89      -0.1393
     81  CE        23.9640   30.1650  -23.2630 C.3    89  MET89       0.0692
     82  N         30.0810   29.2900  -25.9400 N.am   90  ASP90      -0.1974
     83  CA        31.3700   29.5220  -26.5770 C.3    90  ASP90       0.1709
     84  C         32.5060   28.9020  -25.8010 C.2    90  ASP90       0.2293
     85  O         33.6120   28.7660  -26.3320 O.2    90  ASP90      -0.2864
     86  CB        31.6020   30.9780  -26.8280 C.3    90  ASP90       0.1436
     87  CG        30.7010   31.5250  -27.8480 C.2    90  ASP90       0.3671
     88  OD1       30.2450   30.7320  -28.6740 O.co2  90  ASP90      -0.2456
     89  OD2       30.5300   32.7570  -27.9480 O.co2  90  ASP90      -0.2456
     90  N         34.5130   29.8960  -23.3290 N.3    92  ASP92      -0.1239
     91  CA        35.6820   30.7060  -23.2860 C.3    92  ASP92       0.1674
     92  C         36.2820   30.8600  -21.9060 C.2    92  ASP92       0.2266
     93  O         35.5880   31.1410  -20.9270 O.2    92  ASP92      -0.2867
     94  CB        35.4020   32.0760  -23.9240 C.3    92  ASP92       0.1410
     95  CG        35.5040   32.0020  -25.4540 C.2    92  ASP92       0.3668
     96  OD1       36.3930   31.3270  -25.9830 O.co2  92  ASP92      -0.2456
     97  OD2       34.6930   32.5420  -26.1340 O.co2  92  ASP92      -0.2456
     98  N         37.9020   36.6460  -21.2400 N.3    95  ARG95      -0.1245
     99  CA        37.2550   37.7160  -21.9400 C.3    95  ARG95       0.1563
    100  C         38.1330   38.9250  -21.7280 C.2    95  ARG95       0.2260
    101  O         38.4170   39.3350  -20.6060 O.2    95  ARG95      -0.2867
    102  CB        35.8620   37.9360  -21.4280 C.3    95  ARG95       0.0307
    103  CG        35.1520   39.0540  -22.1530 C.3    95  ARG95       0.0489
    104  CD        33.6540   39.1310  -21.8950 C.3    95  ARG95       0.2205
    105  NE        32.9740   38.0400  -22.5420 N.pl3  95  ARG95      -0.0865
    106  CZ        32.5580   38.0250  -23.8000 C.cat  95  ARG95       0.5346
    107  NH1       32.8340   39.0310  -24.6530 N.pl3  95  ARG95       0.1354
    108  NH2       31.8770   36.9750  -24.2430 N.pl3  95  ARG95       0.1354
    109  N         17.5090   39.7610  -28.1660 N.3   154  MET154     -0.1230
    110  CA        18.7980   39.2690  -27.8690 C.3   154  MET154      0.1702
    111  C         18.9330   37.7480  -27.6940 C.2   154  MET154      0.2592
    112  O         19.8510   37.1440  -28.2140 O.2   154  MET154     -0.2718
    113  CB        19.2900   39.9190  -26.5910 C.3   154  MET154      0.0401
    114  CG        20.7180   39.7080  -26.2250 C.3   154  MET154      0.0596
    115  SD        21.1640   40.4250  -24.6030 S.3   154  MET154     -0.1393
    116  CE        20.3020   39.3400  -23.4390 C.3   154  MET154      0.0692
    117  N         18.0920   37.1720  -26.8410 N.am  155  VAL155     -0.1980
    118  CA        18.1360   35.7040  -26.5890 C.3   155  VAL155      0.1595
    119  C         17.8550   35.0000  -27.9300 C.2   155  VAL155      0.2287
    120  O         18.4650   33.9750  -28.2790 O.2   155  VAL155     -0.2864
    121  CB        17.1430   35.2330  -25.5040 C.3   155  VAL155      0.0276
    122  CG1       17.0400   33.6800  -25.4250 C.3   155  VAL155      0.0022
    123  CG2       17.6040   35.6980  -24.1760 C.3   155  VAL155      0.0022
    124  N         20.9630   34.9240  -30.0940 N.3   158  GLN158     -0.1245
    125  CA        21.8890   33.9280  -29.6760 C.3   158  GLN158      0.1566
    126  C         21.4490   32.5370  -30.1430 C.2   158  GLN158      0.2260
    127  O         22.2730   31.7620  -30.6120 O.2   158  GLN158     -0.2867
    128  CB        22.0210   33.9800  -28.1460 C.3   158  GLN158      0.0367
    129  CG        23.0430   32.9680  -27.6140 C.3   158  GLN158      0.0905
    130  CD        24.4780   33.4650  -27.8150 C.2   158  GLN158      0.2608
    131  OE1       24.7350   34.3030  -28.6920 O.2   158  GLN158     -0.2717
    132  NE2       25.3950   33.0310  -26.9660 N.am  158  GLN158     -0.0878
    133  N         22.2360   32.4010  -33.7870 N.3   161  ASP161     -0.1239
    134  CA        23.6710   32.2130  -33.8270 C.3   161  ASP161      0.1674
    135  C         23.9890   30.6840  -33.5980 C.2   161  ASP161      0.2266
    136  O         24.6330   30.0180  -34.4290 O.2   161  ASP161     -0.2867
    137  CB        24.3980   33.1490  -32.8400 C.3   161  ASP161      0.1410
    138  CG        25.8880   33.1100  -32.9830 C.2   161  ASP161      0.3668
    139  OD1       26.3560   32.1990  -33.6590 O.co2 161  ASP161     -0.2456
    140  OD2       26.6260   33.9440  -32.4400 O.co2 161  ASP161     -0.2456
    141  N         20.7230   39.6480  -32.1820 N.3   181  LYS181     -0.1231
    142  CA        21.7130   39.3610  -31.1860 C.3   181  LYS181      0.1693
    143  C         22.2830   40.6190  -30.5740 C.2   181  LYS181      0.2592
    144  O         22.4110   40.6970  -29.3350 O.2   181  LYS181     -0.2718
    145  CB        22.8430   38.4770  -31.7290 C.3   181  LYS181      0.0285
    146  CG        23.7200   37.9050  -30.6530 C.3   181  LYS181      0.0035
    147  CD        24.8290   36.9320  -31.1470 C.3   181  LYS181      0.0206
    148  CE        26.0990   37.5810  -31.5810 C.3   181  LYS181      0.1093
    149  NZ        27.1270   36.5950  -32.0260 N.3   181  LYS181     -0.1314
    150  N         22.5640   41.6550  -31.3740 N.am  182  THR182     -0.1953
    151  CA        23.0850   42.8690  -30.7550 C.3   182  THR182      0.1897
    152  C         22.1630   44.1020  -31.0720 C.2   182  THR182      0.2313
    153  O         22.1280   45.0780  -30.3000 O.2   182  THR182     -0.2863
    154  CB        24.5280   43.1720  -31.1580 C.3   182  THR182      0.1794
    155  OG1       24.6440   43.0240  -32.5880 O.3   182  THR182     -0.2208
    156  CG2       25.5800   42.2680  -30.4360 C.3   182  THR182      0.0378
@<TRIPOS>BOND
     1   136   135    2
     2   134   133    1
     3   134   135    1
     4   134   137    1
     5   139   138   ar
     6   138   137    1
     7   138   140   ar
     8   155   154    1
     9   141   142    1
    10   149   148    1
    11   145   142    1
    12   145   146    1
    13   148   147    1
    14   150   151    1
    15   150   143   am
    16   142   143    1
    17   154   151    1
    18   154   156    1
    19   147   146    1
    20   152   151    1
    21   152   153    2
    22   127   126    2
    23   143   144    2
    24   126   125    1
    25   124   125    1
    26   125   128    1
    27   131   130    2
    28    88    87   ar
    29   120   119    2
    30   112   111    2
    31   109   110    1
    32   128   129    1
    33    89    87   ar
    34   119   118    1
    35   110   111    1
    36   110   113    1
    37    87    86    1
    38   130   129    1
    39   130   132   am
    40   111   117   am
    41    11     9    1
    42    64    63   ar
    43    77    76    2
    44   117   118    1
    45    86    83    1
    46   113   114    1
    47   118   121    1
    48    83    82    1
    49    83    84    1
    50     9     8    2
    51     9    10    1
    52    85    84    2
    53   114   115    1
    54    76    82   am
    55    76    75    1
    56    97    95   ar
    57    96    95   ar
    58    63    65   ar
    59    63    62    1
    60     8     7    1
    61    75    78    1
    62    75    74    1
    63   121   122    1
    64   121   123    1
    65    95    94    1
    66    78    79    1
    67    79    80    1
    68     6     7    1
    69     6     5    1
    70    80    81    1
    71   107   106    1
    72    62    59    1
    73    20    18   ar
    74    20    21   ar
    75   115   116    1
    76    61    60    2
    77     1     2    1
    78   108   106    1
    79     2     5    1
    80     2     3    1
    81    47    45    1
    82    18    17   ar
    83    94    91    1
    84    59    60    1
    85    59    58    1
    86   106   105    2
    87    21    19   ar
    88    60    66   am
    89     4     3    2
    90    39    38    1
    91    90    91    1
    92    91    92    1
    93    72    71   ar
    94    38    35    1
    95    17    19   ar
    96    17    16    1
    97    45    46    1
    98    45    44    1
    99    58    50   am
   100    66    67    1
   101    37    36    2
   102   105   104    1
   103    67    68    1
   104    67    70    1
   105   103   104    1
   106   103   102    1
   107    16    13    1
   108    36    35    1
   109    36    40   am
   110    51    50    2
   111    41    44    1
   112    41    40    1
   113    41    42    1
   114    99   100    1
   115    99   102    1
   116    99    98    1
   117    71    70    1
   118    71    73   ar
   119    92    93    2
   120    68    69    2
   121    35    34    1
   122    50    49    1
   123   100   101    2
   124    13    14    1
   125    13    12    1
   126    15    14    2
   127    43    42    2
   128    33    32    1
   129    52    49    1
   130    52    53    1
   131    49    48    1
   132    34    24   am
   133    32    31   ar
   134    32    30   ar
   135    31    29   ar
   136    30    28   ar
   137    24    25    2
   138    24    23    1
   139    53    54   ar
   140    53    55   ar
   141    54    56   ar
   142    29    27   ar
   143    28    27   ar
   144    27    26    1
   145    22    23    1
   146    23    26    1
   147    55    57   ar
   148    56    57   ar
