@<TRIPOS>MOLECULE
tmp/3zmeB00.pdb
 130 130 0 0 0
SMALL
GASTEIGER

@<TRIPOS>ATOM
      1  N        134.1680  104.5550  -41.0060 N.3    15  PHE15      -0.1241
      2  CA       133.4290  103.5980  -40.1830 C.3    15  PHE15       0.1605
      3  C        133.8300  103.6590  -38.7150 C.2    15  PHE15       0.2264
      4  O        135.0190  103.6330  -38.3840 O.2    15  PHE15      -0.2867
      5  CB       133.6890  102.1820  -40.7120 C.3    15  PHE15       0.0534
      6  CG       133.0590  101.0950  -39.8860 C.ar   15  PHE15      -0.0203
      7  CD1      131.6870  100.9140  -39.9020 C.ar   15  PHE15      -0.0042
      8  CD2      133.8410  100.2320  -39.1220 C.ar   15  PHE15      -0.0042
      9  CE1      131.0960   99.9050  -39.1530 C.ar   15  PHE15      -0.0003
     10  CE2      133.2580   99.2130  -38.3760 C.ar   15  PHE15      -0.0003
     11  CZ       131.8830   99.0520  -38.3970 C.ar   15  PHE15      -0.0000
     12  N        126.2380  101.4350  -36.1260 N.3    51  LEU51      -0.1245
     13  CA       127.2620  101.4730  -37.1560 C.3    51  LEU51       0.1561
     14  C        127.1910  102.8370  -37.8190 C.2    51  LEU51       0.2260
     15  O        126.1960  103.1610  -38.4590 O.2    51  LEU51      -0.2867
     16  CB       127.0120  100.3720  -38.1940 C.3    51  LEU51       0.0270
     17  CG       126.8100   98.9620  -37.6240 C.3    51  LEU51       0.0019
     18  CD1      126.4560   97.9850  -38.7410 C.3    51  LEU51       0.0001
     19  CD2      128.0460   98.5000  -36.8380 C.3    51  LEU51       0.0001
     20  N        128.8830  105.7070  -40.4520 N.3    53  VAL53      -0.1231
     21  CA       129.8080  105.9730  -41.5500 C.3    53  VAL53       0.1692
     22  C        129.6510  107.4220  -41.9960 C.2    53  VAL53       0.2592
     23  O        128.5890  108.0080  -41.8250 O.2    53  VAL53      -0.2718
     24  CB       129.5620  105.0460  -42.7690 C.3    53  VAL53       0.0266
     25  CG1      129.9320  103.6000  -42.4180 C.3    53  VAL53       0.0020
     26  CG2      128.1210  105.1530  -43.2320 C.3    53  VAL53       0.0020
     27  N        130.7110  107.9950  -42.5560 N.am   54  ASP54      -0.1960
     28  CA       130.6210  109.3200  -43.1720 C.3    54  ASP54       0.1840
     29  C        129.9840  109.2410  -44.5530 C.2    54  ASP54       0.2623
     30  O        129.3470  110.1950  -45.0100 O.2    54  ASP54      -0.2715
     31  CB       132.0070  109.9430  -43.3160 C.3    54  ASP54       0.1450
     32  CG       132.6240  110.3040  -41.9920 C.2    54  ASP54       0.3671
     33  OD1      131.8780  110.6850  -41.0610 O.co2  54  ASP54      -0.2456
     34  OD2      133.8660  110.2170  -41.8920 O.co2  54  ASP54      -0.2456
     35  N        130.1950  108.1190  -45.2330 N.am   55  SER55      -0.1936
     36  CA       129.6000  107.9260  -46.5460 C.3    55  SER55       0.2055
     37  C        129.0790  106.5050  -46.6930 C.2    55  SER55       0.2644
     38  O        129.6340  105.5570  -46.1390 O.2    55  SER55      -0.2714
     39  CB       130.5880  108.2750  -47.6650 C.3    55  SER55       0.2130
     40  OG       131.8120  107.5870  -47.5050 O.3    55  SER55      -0.2179
     41  N        127.9810  106.3740  -47.4290 N.am   56  THR56      -0.1937
     42  CA       127.3160  105.0880  -47.5920 C.3    56  THR56       0.2013
     43  C        128.1540  104.1250  -48.4230 C.2    56  THR56       0.2484
     44  O        128.5210  104.4350  -49.5560 O.2    56  THR56      -0.2729
     45  CB       125.9440  105.2790  -48.2530 C.3    56  THR56       0.1807
     46  OG1      125.1390  106.1230  -47.4210 O.3    56  THR56      -0.2208
     47  CG2      125.2420  103.9410  -48.4550 C.3    56  THR56       0.0379
     48  N        128.4650  102.9440  -47.8620 N.am   57  PRO57      -0.2715
     49  CA       129.2180  101.9500  -48.6330 C.3    57  PRO57       0.1521
     50  C        128.3200  101.2220  -49.6450 C.2    57  PRO57       0.2440
     51  O        127.0960  101.3320  -49.5840 O.2    57  PRO57      -0.2731
     52  CB       129.7260  100.9870  -47.5530 C.3    57  PRO57       0.0310
     53  CG       128.7160  101.0740  -46.4720 C.3    57  PRO57       0.0237
     54  CD       128.1460  102.4730  -46.4990 C.3    57  PRO57       0.0939
     55  N        128.9320  100.4850  -50.5770 N.am   58  PRO58      -0.2717
     56  CA       128.2020   99.8730  -51.6920 C.3    58  PRO58       0.1521
     57  C        127.2410   98.7610  -51.2670 C.2    58  PRO58       0.2440
     58  O        127.4380   98.1170  -50.2360 O.2    58  PRO58      -0.2731
     59  CB       129.3220   99.2700  -52.5500 C.3    58  PRO58       0.0310
     60  CG       130.5360  100.0380  -52.2030 C.3    58  PRO58       0.0237
     61  CD       130.3910  100.3930  -50.7490 C.3    58  PRO58       0.0939
     62  N        126.2070   98.5110  -52.0810 N.am   59  PRO59      -0.2716
     63  CA       125.3650   97.3330  -51.8480 C.3    59  PRO59       0.1536
     64  C        126.2320   96.0780  -51.8100 C.2    59  PRO59       0.2599
     65  O        127.1230   95.9120  -52.6460 O.2    59  PRO59      -0.2715
     66  CB       124.4420   97.3120  -53.0730 C.3    59  PRO59       0.0310
     67  CG       124.4660   98.7230  -53.5960 C.3    59  PRO59       0.0237
     68  CD       125.8410   99.2340  -53.3120 C.3    59  PRO59       0.0939
     69  N        125.9820   95.2000  -50.8440 N.am   60  GLY60      -0.1955
     70  CA       126.7910   94.0030  -50.7090 C.3    60  GLY60       0.1869
     71  C        127.8290   94.1110  -49.6060 C.2    60  GLY60       0.2309
     72  O        128.4300   93.1130  -49.1990 O.2    60  GLY60      -0.2863
     73  N        124.9210   94.8720  -44.6950 N.3   126  CYS126     -0.1221
     74  CA       124.6130   96.2590  -44.3710 C.3   126  CYS126      0.1808
     75  C        123.3020   96.6800  -45.0220 C.2   126  CYS126      0.2601
     76  O        123.0960   96.4550  -46.2220 O.2   126  CYS126     -0.2717
     77  CB       125.7120   97.1840  -44.8880 C.3   126  CYS126      0.0970
     78  SG       127.3260   96.9190  -44.1800 S.3   126  CYS126     -0.0800
     79  N        122.4320   97.3010  -44.2310 N.am  127  GLU127     -0.1966
     80  CA       121.1500   97.8000  -44.7130 C.3   127  GLU127      0.1718
     81  C        121.0060   99.2690  -44.3290 C.2   127  GLU127      0.2458
     82  O        121.6780   99.7380  -43.4100 O.2   127  GLU127     -0.2730
     83  CB       119.9960   96.9860  -44.1090 C.3   127  GLU127      0.0428
     84  CG       119.9650   95.5290  -44.5420 C.3   127  GLU127      0.1163
     85  CD       118.9470   94.6920  -43.7690 C.2   127  GLU127      0.3649
     86  OE1      118.4070   95.1710  -42.7460 O.co2 127  GLU127     -0.2457
     87  OE2      118.6890   93.5420  -44.1850 O.co2 127  GLU127     -0.2457
     88  N        120.1280  100.0010  -45.0300 N.am  128  PRO128     -0.2716
     89  CA       119.9130  101.4100  -44.6880 C.3   128  PRO128      0.1521
     90  C        119.3100  101.5540  -43.3010 C.2   128  PRO128      0.2440
     91  O        118.6140  100.6490  -42.8350 O.2   128  PRO128     -0.2731
     92  CB       118.8930  101.8800  -45.7360 C.3   128  PRO128      0.0310
     93  CG       118.9850  100.8980  -46.8540 C.3   128  PRO128      0.0237
     94  CD       119.3510   99.5870  -46.2120 C.3   128  PRO128      0.0939
     95  N        119.5850  102.6830  -42.6370 N.am  129  PRO129     -0.2727
     96  CA       118.9590  102.9770  -41.3490 C.3   129  PRO129      0.1402
     97  C        117.4420  102.9680  -41.4820 C.2   129  PRO129      0.2269
     98  O        116.9110  103.2160  -42.5650 O.2   129  PRO129     -0.2865
     99  CB       119.4420  104.3990  -41.0440 C.3   129  PRO129      0.0296
    100  CG       120.7200  104.5330  -41.7840 C.3   129  PRO129      0.0237
    101  CD       120.5720  103.7050  -43.0260 C.3   129  PRO129      0.0939
    102  N        119.6410  108.1070  -38.0240 N.3   134  ASP134     -0.1225
    103  CA       120.8620  108.5280  -38.6980 C.3   134  ASP134      0.1805
    104  C        121.8860  107.4040  -38.8270 C.2   134  ASP134      0.2598
    105  O        122.9000  107.5510  -39.5070 O.2   134  ASP134     -0.2718
    106  CB       121.4920  109.7120  -37.9600 C.3   134  ASP134      0.1424
    107  CG       120.6470  110.9610  -38.0380 C.2   134  ASP134      0.3668
    108  OD1      120.0500  111.1930  -39.1060 O.co2 134  ASP134     -0.2456
    109  OD2      120.5890  111.7120  -37.0390 O.co2 134  ASP134     -0.2456
    110  N        121.6370  106.2800  -38.1680 N.am  135  CYS135     -0.1956
    111  CA       122.5730  105.1710  -38.2510 C.3   135  CYS135      0.1843
    112  C        121.8400  103.8530  -38.2650 C.2   135  CYS135      0.2626
    113  O        120.6980  103.7540  -37.8260 O.2   135  CYS135     -0.2714
    114  CB       123.5630  105.1940  -37.0850 C.3   135  CYS135      0.0997
    115  SG       122.8250  104.9450  -35.4530 S.3   135  CYS135     -0.0797
    116  N        122.5200  102.8420  -38.7800 N.am  136  THR136     -0.1950
    117  CA       122.0350  101.4780  -38.7340 C.3   136  THR136      0.1897
    118  C        122.4990  100.8460  -37.4320 C.2   136  THR136      0.2313
    119  O        123.5770  101.1480  -36.9430 O.2   136  THR136     -0.2863
    120  CB       122.5540  100.7140  -39.9520 C.3   136  THR136      0.1794
    121  OG1      121.9730  101.3040  -41.1190 O.3   136  THR136     -0.2208
    122  CG2      122.1800   99.2400  -39.8930 C.3   136  THR136      0.0378
    123  N        133.8470   96.0700  -41.0470 N.3   163  LEU163     -0.1245
    124  CA       133.0580   96.3840  -42.2270 C.3   163  LEU163      0.1561
    125  C        133.8180   95.7590  -43.3990 C.2   163  LEU163      0.2260
    126  O        135.0270   95.9390  -43.5100 O.2   163  LEU163     -0.2867
    127  CB       132.9640   97.9020  -42.3800 C.3   163  LEU163      0.0270
    128  CG       132.0250   98.4130  -43.4720 C.3   163  LEU163      0.0019
    129  CD1      130.5700   98.1870  -43.0760 C.3   163  LEU163      0.0001
    130  CD2      132.2740   99.8970  -43.7320 C.3   163  LEU163      0.0001
@<TRIPOS>BOND
     1    67    68    1
     2    67    66    1
     3    68    62    1
     4    66    63    1
     5    65    64    2
     6    59    60    1
     7    59    56    1
     8    60    61    1
     9    62    63    1
    10    62    57   am
    11    63    64    1
    12    64    69   am
    13    56    57    1
    14    56    55    1
    15    57    58    2
    16    69    70    1
    17    61    55    1
    18    70    71    1
    19    55    50   am
    20    50    51    2
    21    50    49    1
    22    71    72    2
    23    44    43    2
    24    49    48    1
    25    49    52    1
    26    47    45    1
    27    43    48   am
    28    43    42    1
    29    45    42    1
    30    45    46    1
    31    48    54    1
    32    39    40    1
    33    39    36    1
    34    42    41    1
    35    52    53    1
    36    41    37   am
    37    93    94    1
    38    93    92    1
    39    37    36    1
    40    37    38    2
    41    36    35    1
    42    54    53    1
    43    76    75    2
    44    94    88    1
    45    92    89    1
    46    35    29   am
    47    88    89    1
    48    88    81   am
    49    75    74    1
    50    75    79   am
    51    30    29    2
    52    77    74    1
    53    77    78    1
    54    80    81    1
    55    80    79    1
    56    80    83    1
    57    73    74    1
    58    89    90    1
    59    29    28    1
    60    84    83    1
    61    84    85    1
    62    81    82    2
    63    87    85   ar
    64    85    86   ar
    65   130   128    1
    66   126   125    2
    67   128   129    1
    68   128   127    1
    69   125   124    1
    70    31    28    1
    71    31    32    1
    72    90    91    2
    73    90    95   am
    74    26    24    1
    75    28    27    1
    76   101    95    1
    77   101   100    1
    78    24    25    1
    79    24    21    1
    80    95    96    1
    81    98    97    2
    82    27    22   am
    83   127   124    1
    84   124   123    1
    85    22    23    2
    86    22    21    1
    87    32    34   ar
    88    32    33   ar
    89   100    99    1
    90    21    20    1
    91    97    96    1
    92    96    99    1
    93   121   120    1
    94     1     2    1
    95     5     2    1
    96     5     6    1
    97     2     3    1
    98   120   122    1
    99   120   117    1
   100     7     6   ar
   101     7     9   ar
   102     6     8   ar
   103   105   104    2
   104     9    11   ar
   105     8    10   ar
   106   108   107   ar
   107   104   103    1
   108   104   110   am
   109   116   117    1
   110   116   112   am
   111    18    17    1
   112   117   118    1
   113     3     4    2
   114   103   102    1
   115   103   106    1
   116    15    14    2
   117    11    10   ar
   118   112   111    1
   119   112   113    2
   120   111   110    1
   121   111   114    1
   122    16    17    1
   123    16    13    1
   124   107   106    1
   125   107   109   ar
   126    14    13    1
   127    17    19    1
   128   118   119    2
   129    13    12    1
   130   114   115    1
