@<TRIPOS>MOLECULE
tmp/3zmhA00.pdb
 144 143 0 0 0
SMALL
GASTEIGER

@<TRIPOS>ATOM
      1  N         -8.0410   -1.1110  -52.8990 N.3    59  MET59      -0.1230
      2  CA        -7.5880    0.1240  -52.2550 C.3    59  MET59       0.1702
      3  C         -8.7340    0.8910  -51.5970 C.2    59  MET59       0.2592
      4  O         -8.6370    1.2860  -50.4320 O.2    59  MET59      -0.2718
      5  CB        -6.9240    1.0240  -53.2890 C.3    59  MET59       0.0401
      6  CG        -5.6190    0.4860  -53.7910 C.3    59  MET59       0.0596
      7  SD        -4.2600    0.9290  -52.7100 S.3    59  MET59      -0.1393
      8  CE        -4.2110    2.7010  -52.9690 C.3    59  MET59       0.0692
      9  N         -9.8060    1.0920  -52.3640 N.am   60  HIS60      -0.1976
     10  CA       -10.9810    1.8330  -51.9210 C.3    60  HIS60       0.1656
     11  C        -11.4480    1.2690  -50.5850 C.2    60  HIS60       0.2291
     12  O        -11.4630    1.9650  -49.5650 O.2    60  HIS60      -0.2864
     13  CB       -12.0890    1.6990  -52.9870 C.3    60  HIS60       0.0771
     14  CG       -13.2110    2.6850  -52.8460 C.ar   60  HIS60       0.0820
     15  ND1      -14.3820    2.5900  -53.5760 N.ar   60  HIS60      -0.2267
     16  CD2      -13.3410    3.7900  -52.0720 C.ar   60  HIS60       0.1154
     17  CE1      -15.1840    3.5870  -53.2470 C.ar   60  HIS60       0.1986
     18  NE2      -14.5780    4.3310  -52.3370 N.ar   60  HIS60      -0.2212
     19  N         -8.6310    1.1090  -47.6370 N.3    63  PHE63      -0.1227
     20  CA        -8.4050    2.3960  -46.9980 C.3    63  PHE63       0.1736
     21  C         -9.6310    2.9540  -46.2880 C.2    63  PHE63       0.2595
     22  O         -9.5110    3.4380  -45.1580 O.2    63  PHE63      -0.2718
     23  CB        -7.7470    3.4070  -47.9380 C.3    63  PHE63       0.0547
     24  CG        -6.2560    3.2290  -48.0360 C.ar   63  PHE63      -0.0202
     25  CD1       -5.4090    3.8560  -47.1320 C.ar   63  PHE63      -0.0042
     26  CD2       -5.7010    2.3990  -49.0020 C.ar   63  PHE63      -0.0042
     27  CE1       -4.0290    3.6790  -47.2000 C.ar   63  PHE63      -0.0003
     28  CE2       -4.3230    2.2220  -49.0800 C.ar   63  PHE63      -0.0003
     29  CZ        -3.4860    2.8670  -48.1720 C.ar   63  PHE63      -0.0000
     30  N        -10.8040    2.8540  -46.9090 N.am   64  ASN64      -0.1974
     31  CA       -12.0110    3.3410  -46.2360 C.3    64  ASN64       0.1688
     32  C        -12.2690    2.6040  -44.9320 C.2    64  ASN64       0.2292
     33  O        -12.5010    3.2310  -43.9010 O.2    64  ASN64      -0.2864
     34  CB       -13.2380    3.3330  -47.1600 C.3    64  ASN64       0.1181
     35  CG       -13.2820    4.5610  -48.0520 C.2    64  ASN64       0.2629
     36  OD1      -12.3910    5.4100  -47.9860 O.2    64  ASN64      -0.2716
     37  ND2      -14.3100    4.6630  -48.8880 N.am   64  ASN64      -0.0877
     38  N         -9.7630    3.5550  -42.0510 N.3    67  TRP67      -0.1241
     39  CA       -10.1350    4.8060  -41.3990 C.3    67  TRP67       0.1605
     40  C        -11.4550    4.7050  -40.6330 C.2    67  TRP67       0.2264
     41  O        -11.5780    5.2330  -39.5270 O.2    67  TRP67      -0.2867
     42  CB       -10.1660    5.9450  -42.4080 C.3    67  TRP67       0.0550
     43  CG        -8.7920    6.4430  -42.7620 C.ar   67  TRP67       0.0003
     44  CD1       -8.0300    6.0650  -43.8340 C.ar   67  TRP67       0.0946
     45  CD2       -8.0100    7.4070  -42.0320 C.ar   67  TRP67       0.0152
     46  NE1       -6.8340    6.7520  -43.8260 N.ar   67  TRP67      -0.2442
     47  CE2       -6.7960    7.5770  -42.7300 C.ar   67  TRP67       0.0810
     48  CE3       -8.2230    8.1430  -40.8610 C.ar   67  TRP67       0.0012
     49  CZ2       -5.8000    8.4570  -42.2970 C.ar   67  TRP67       0.0191
     50  CZ3       -7.2360    9.0240  -40.4350 C.ar   67  TRP67       0.0001
     51  CH2       -6.0410    9.1740  -41.1490 C.ar   67  TRP67       0.0015
     52  N        -16.5120    7.0480  -48.3910 N.3   111  SER111     -0.1217
     53  CA       -15.6780    8.2620  -48.3370 C.3   111  SER111      0.1889
     54  C        -16.3580    9.4790  -47.7070 C.2   111  SER111      0.2288
     55  O        -15.7140   10.2390  -46.9910 O.2   111  SER111     -0.2866
     56  CB       -15.0930    8.6390  -49.7010 C.3   111  SER111      0.2089
     57  OG       -14.0490    7.7460  -50.0500 O.3   111  SER111     -0.2183
     58  N        -16.2330    8.7340  -43.9240 N.3   114  VAL114     -0.1231
     59  CA       -14.8890    8.8460  -43.3580 C.3   114  VAL114      0.1692
     60  C        -14.4150   10.3040  -43.2960 C.2   114  VAL114      0.2592
     61  O        -13.7560   10.7170  -42.3600 O.2   114  VAL114     -0.2718
     62  CB       -13.8910    7.9600  -44.1460 C.3   114  VAL114      0.0266
     63  CG1      -12.4640    8.2330  -43.7280 C.3   114  VAL114      0.0020
     64  CG2      -14.2330    6.4880  -43.9470 C.3   114  VAL114      0.0020
     65  N        -14.7530   11.0790  -44.3190 N.am  115  TYR115     -0.1976
     66  CA       -14.4720   12.5220  -44.2910 C.3   115  TYR115      0.1639
     67  C        -15.1500   13.1940  -43.0850 C.2   115  TYR115      0.2290
     68  O        -14.5080   13.9580  -42.3660 O.2   115  TYR115     -0.2864
     69  CB       -14.8940   13.2040  -45.6000 C.3   115  TYR115      0.0560
     70  CG       -13.7620   13.3370  -46.6140 C.ar  115  TYR115     -0.0198
     71  CD1      -13.4100   12.2760  -47.4510 C.ar  115  TYR115     -0.0009
     72  CD2      -13.0450   14.5260  -46.7260 C.ar  115  TYR115     -0.0009
     73  CE1      -12.3740   12.4050  -48.3720 C.ar  115  TYR115      0.0417
     74  CE2      -12.0130   14.6630  -47.6320 C.ar  115  TYR115      0.0417
     75  CZ       -11.6780   13.6040  -48.4520 C.ar  115  TYR115      0.1957
     76  OH       -10.6570   13.7650  -49.3530 O.3   115  TYR115     -0.2866
     77  N        -13.4390   12.0680  -39.9090 N.3   118  MET118     -0.1245
     78  CA       -12.1460   12.7330  -39.8560 C.3   118  MET118      0.1570
     79  C        -12.3170   14.1630  -39.3590 C.2   118  MET118      0.2261
     80  O        -11.6560   14.5840  -38.4210 O.2   118  MET118     -0.2867
     81  CB       -11.5080   12.7330  -41.2400 C.3   118  MET118      0.0387
     82  CG       -10.1340   13.3520  -41.2990 C.3   118  MET118      0.0595
     83  SD        -9.6690   13.5860  -43.0190 S.3   118  MET118     -0.1393
     84  CE       -10.9890   14.6670  -43.5590 C.3   118  MET118      0.0692
     85  N         -4.1630   11.8950  -43.1380 N.3   143  ALA143     -0.1245
     86  CA        -5.4630   12.3390  -43.6190 C.3   143  ALA143      0.1562
     87  C         -5.3110   13.4450  -44.6800 C.2   143  ALA143      0.2260
     88  O         -5.9280   13.3850  -45.7420 O.2   143  ALA143     -0.2867
     89  CB        -6.3340   12.8160  -42.4460 C.3   143  ALA143      0.0290
     90  N         -4.1900   12.1040  -48.1030 N.3   146  TRP146     -0.1227
     91  CA        -5.2870   11.4900  -48.8560 C.3   146  TRP146      0.1737
     92  C         -6.3080   12.5080  -49.3590 C.2   146  TRP146      0.2595
     93  O         -6.8350   12.3630  -50.4590 O.2   146  TRP146     -0.2718
     94  CB        -5.9480   10.3710  -48.0630 C.3   146  TRP146      0.0564
     95  CG        -5.0890    9.1660  -48.0200 C.ar  146  TRP146      0.0003
     96  CD1       -4.4500    8.6520  -46.9300 C.ar  146  TRP146      0.0946
     97  CD2       -4.7350    8.3270  -49.1290 C.ar  146  TRP146      0.0152
     98  NE1       -3.7300    7.5350  -47.2890 N.ar  146  TRP146     -0.2442
     99  CE2       -3.8860    7.3150  -48.6330 C.ar  146  TRP146      0.0810
    100  CE3       -5.0560    8.3320  -50.4920 C.ar  146  TRP146      0.0012
    101  CZ2       -3.3510    6.3190  -49.4510 C.ar  146  TRP146      0.0191
    102  CZ3       -4.5270    7.3420  -51.3030 C.ar  146  TRP146      0.0001
    103  CH2       -3.6860    6.3460  -50.7800 C.ar  146  TRP146      0.0015
    104  N         -6.5650   13.5460  -48.5700 N.am  147  ILE147     -0.1980
    105  CA        -7.3780   14.6550  -49.0570 C.3   147  ILE147      0.1595
    106  C         -6.7610   15.2800  -50.3150 C.2   147  ILE147      0.2287
    107  O         -7.4710   15.5650  -51.2830 O.2   147  ILE147     -0.2864
    108  CB        -7.5490   15.7350  -47.9970 C.3   147  ILE147      0.0276
    109  CG1       -8.4150   15.2150  -46.8500 C.3   147  ILE147      0.0022
    110  CG2       -8.1820   16.9720  -48.5980 C.3   147  ILE147      0.0022
    111  CD1       -8.6250   16.2490  -45.7640 C.3   147  ILE147      0.0001
    112  N         -5.2090    9.8180  -57.2400 N.3   155  PHE155     -0.1227
    113  CA        -5.7640    8.4730  -57.2650 C.3   155  PHE155      0.1736
    114  C         -7.2470    8.6060  -57.6050 C.2   155  PHE155      0.2596
    115  O         -7.9800    9.3250  -56.9200 O.2   155  PHE155     -0.2718
    116  CB        -5.5830    7.7870  -55.9050 C.3   155  PHE155      0.0547
    117  CG        -6.1380    6.3830  -55.8040 C.ar  155  PHE155     -0.0202
    118  CD1       -5.7420    5.3810  -56.6460 C.ar  155  PHE155     -0.0042
    119  CD2       -7.0310    6.0570  -54.8160 C.ar  155  PHE155     -0.0042
    120  CE1       -6.1670    4.0740  -56.5330 C.ar  155  PHE155     -0.0003
    121  CE2       -7.4840    4.7230  -54.6570 C.ar  155  PHE155     -0.0003
    122  CZ        -7.0680    3.7860  -55.5390 C.ar  155  PHE155     -0.0000
    123  N         -7.6770    7.9360  -58.6720 N.am  156  GLY156     -0.1942
    124  CA        -9.0590    8.0090  -59.1160 C.3   156  GLY156      0.2014
    125  C        -10.0180    7.4630  -58.0740 C.2   156  GLY156      0.2638
    126  O         -9.8050    6.3820  -57.5130 O.2   156  GLY156     -0.2714
    127  N        -11.0650    8.2260  -57.7910 N.am  157  MET157     -0.1976
    128  CA       -12.0250    7.8410  -56.7660 C.3   157  MET157      0.1605
    129  C        -13.4530    7.9230  -57.2870 C.2   157  MET157      0.2287
    130  O        -13.7170    8.5650  -58.3030 O.2   157  MET157     -0.2864
    131  CB       -11.8520    8.7110  -55.5210 C.3   157  MET157      0.0413
    132  CG       -10.5120    8.5120  -54.8360 C.3   157  MET157      0.0598
    133  SD       -10.2440    9.6340  -53.4610 S.3   157  MET157     -0.1393
    134  CE        -8.5030    9.3250  -53.1150 C.3   157  MET157      0.0692
    135  N        -17.0190   14.8770  -51.0530 N.3   164  HIS164     -0.1241
    136  CA       -16.0720   14.7640  -49.9390 C.3   164  HIS164      0.1621
    137  C        -16.1730   15.9610  -48.9800 C.2   164  HIS164      0.2264
    138  O        -16.2220   15.7900  -47.7650 O.2   164  HIS164     -0.2867
    139  CB       -14.6380   14.5960  -50.4640 C.3   164  HIS164      0.0745
    140  CG       -14.4010   13.2880  -51.1560 C.ar  164  HIS164      0.0817
    141  ND1      -13.3750   13.0940  -52.0580 N.ar  164  HIS164     -0.2268
    142  CD2      -15.0590   12.1060  -51.0760 C.ar  164  HIS164      0.1154
    143  CE1      -13.4190   11.8530  -52.5100 C.ar  164  HIS164      0.1986
    144  NE2      -14.4330   11.2330  -51.9310 N.ar  164  HIS164     -0.2212
@<TRIPOS>BOND
     1   124   123    1
     2   124   125    1
     3   123   114   am
     4   130   129    2
     5   125   127   am
     6   125   126    2
     7   127   128    1
     8   114   113    1
     9   114   115    2
    10   129   128    1
    11   113   112    1
    12   113   116    1
    13   128   131    1
    14   118   120   ar
    15   118   117   ar
    16   120   122   ar
    17   116   117    1
    18   117   119   ar
    19   122   121   ar
    20   131   132    1
    21   132   133    1
    22   119   121   ar
    23     6     5    1
    24     6     7    1
    25    15    17   ar
    26    15    14   ar
    27   133   134    1
    28     5     2    1
    29    17    18   ar
    30    13    14    1
    31    13    10    1
    32     8     7    1
    33     1     2    1
    34    14    16   ar
    35   143   141   ar
    36   143   144   ar
    37     9    10    1
    38     9     3   am
    39    18    16   ar
    40     2     3    1
    41   141   140   ar
    42   144   142   ar
    43    10    11    1
    44     3     4    2
    45   102   103   ar
    46   102   100   ar
    47   107   106    2
    48   140   142   ar
    49   140   139    1
    50   135   136    1
    51   103   101   ar
    52    11    12    2
    53   100    97   ar
    54   139   136    1
    55    93    92    2
    56   106   105    1
    57    57    56    1
    58   136   137    1
    59    56    53    1
    60   101    99   ar
    61    92    91    1
    62    92   104   am
    63    76    75    1
    64    97    99   ar
    65    97    95   ar
    66    28    26   ar
    67    28    29   ar
    68   105   104    1
    69   105   108    1
    70    26    24   ar
    71   137   138    2
    72    37    35   am
    73    91    90    1
    74    91    94    1
    75    99    98   ar
    76   110   108    1
    77    75    73   ar
    78    75    74   ar
    79    52    53    1
    80    73    71   ar
    81    53    54    1
    82    29    27   ar
    83    94    95    1
    84    35    36    2
    85    35    34    1
    86    24    23    1
    87    24    25   ar
    88    95    96   ar
    89   108   109    1
    90    23    20    1
    91    54    55    2
    92    19    20    1
    93    74    72   ar
    94    71    70   ar
    95    98    96   ar
    96    27    25   ar
    97    34    31    1
    98    20    21    1
    99    30    21   am
   100    30    31    1
   101   109   111    1
   102    72    70   ar
   103    70    69    1
   104    21    22    2
   105    31    32    1
   106    88    87    2
   107    69    66    1
   108    32    33    2
   109    87    86    1
   110    65    66    1
   111    65    60   am
   112    66    67    1
   113    62    64    1
   114    62    63    1
   115    62    59    1
   116    58    59    1
   117    44    46   ar
   118    44    43   ar
   119    46    47   ar
   120    86    85    1
   121    86    89    1
   122    84    83    1
   123    59    60    1
   124    60    61    2
   125    67    68    2
   126    83    82    1
   127    43    42    1
   128    43    45   ar
   129    47    49   ar
   130    47    45   ar
   131    42    39    1
   132    49    51   ar
   133    38    39    1
   134    45    48   ar
   135    39    40    1
   136    82    81    1
   137    81    78    1
   138    51    50   ar
   139    48    50   ar
   140    40    41    2
   141    77    78    1
   142    78    79    1
   143    79    80    2
