@<TRIPOS>MOLECULE
tmp/3zmjA00.pdb
 139 136 0 0 0
SMALL
GASTEIGER

@<TRIPOS>ATOM
      1  N        -12.5500    1.0610   55.4240 N.3    56  SER56      -0.1217
      2  CA       -11.2170    1.6410   55.4890 C.3    56  SER56       0.1889
      3  C        -10.7750    2.0370   54.0890 C.2    56  SER56       0.2288
      4  O        -11.3530    1.6020   53.0890 O.2    56  SER56      -0.2866
      5  CB       -10.2110    0.6590   56.0940 C.3    56  SER56       0.2089
      6  OG        -9.9970   -0.4580   55.2410 O.3    56  SER56      -0.2183
      7  N         -8.0140    1.1560   52.5290 N.3    58  MET58      -0.1230
      8  CA        -7.5490   -0.0660   51.8730 C.3    58  MET58       0.1702
      9  C         -8.6830   -0.8570   51.2390 C.2    58  MET58       0.2592
     10  O         -8.5790   -1.3000   50.0920 O.2    58  MET58      -0.2718
     11  CB        -6.8660   -0.9800   52.8890 C.3    58  MET58       0.0401
     12  CG        -5.4630   -0.5930   53.2620 C.3    58  MET58       0.0596
     13  SD        -4.2610   -1.1930   52.0720 S.3    58  MET58      -0.1393
     14  CE        -4.0500    0.2710   51.0500 C.3    58  MET58       0.0692
     15  N         -9.7380   -1.0610   52.0240 N.am   59  HIS59      -0.1976
     16  CA       -10.9150   -1.8230   51.6170 C.3    59  HIS59       0.1656
     17  C        -11.4200   -1.2770   50.2860 C.2    59  HIS59       0.2291
     18  O        -11.4330   -1.9770   49.2720 O.2    59  HIS59      -0.2864
     19  CB       -11.9950   -1.6880   52.7100 C.3    59  HIS59       0.0771
     20  CG       -13.1230   -2.6690   52.5990 C.ar   59  HIS59       0.0820
     21  ND1      -14.3260   -2.4900   53.2530 N.ar   59  HIS59      -0.2267
     22  CD2      -13.2340   -3.8390   51.9210 C.ar   59  HIS59       0.1154
     23  CE1      -15.1310   -3.5010   52.9750 C.ar   59  HIS59       0.1986
     24  NE2      -14.4910   -4.3360   52.1720 N.ar   59  HIS59      -0.2212
     25  N         -8.5750   -1.2290   47.2660 N.3    62  PHE62      -0.1227
     26  CA        -8.3380   -2.5010   46.6170 C.3    62  PHE62       0.1736
     27  C         -9.5940   -3.0330   45.9270 C.2    62  PHE62       0.2595
     28  O         -9.5000   -3.5510   44.8110 O.2    62  PHE62      -0.2718
     29  CB        -7.6800   -3.5360   47.5500 C.3    62  PHE62       0.0547
     30  CG        -6.1800   -3.3980   47.6230 C.ar   62  PHE62      -0.0202
     31  CD1       -5.3680   -3.9460   46.6340 C.ar   62  PHE62      -0.0042
     32  CD2       -5.5800   -2.6940   48.6600 C.ar   62  PHE62      -0.0042
     33  CE1       -3.9840   -3.7980   46.6820 C.ar   62  PHE62      -0.0003
     34  CE2       -4.1940   -2.5470   48.7190 C.ar   62  PHE62      -0.0003
     35  CZ        -3.3950   -3.0990   47.7270 C.ar   62  PHE62      -0.0000
     36  N        -10.7580   -2.8790   46.5620 N.am   63  ASN63      -0.1974
     37  CA       -12.0060   -3.3280   45.9350 C.3    63  ASN63       0.1688
     38  C        -12.2520   -2.6410   44.5940 C.2    63  ASN63       0.2292
     39  O        -12.4700   -3.3060   43.5770 O.2    63  ASN63      -0.2864
     40  CB       -13.2090   -3.1540   46.8730 C.3    63  ASN63       0.1181
     41  CG       -13.3510   -4.3110   47.8510 C.2    63  ASN63       0.2629
     42  OD1      -12.5050   -5.2000   47.8940 O.2    63  ASN63      -0.2716
     43  ND2      -14.4250   -4.3070   48.6340 N.am   63  ASN63      -0.0877
     44  N         -9.7260   -3.7210   41.6760 N.3    66  TRP66      -0.1241
     45  CA       -10.1750   -4.9570   41.0380 C.3    66  TRP66       0.1605
     46  C        -11.4900   -4.7940   40.2520 C.2    66  TRP66       0.2264
     47  O        -11.6010   -5.2740   39.1230 O.2    66  TRP66      -0.2867
     48  CB       -10.2600   -6.0940   42.0510 C.3    66  TRP66       0.0550
     49  CG        -8.9020   -6.6070   42.4590 C.ar   66  TRP66       0.0003
     50  CD1       -8.2170   -6.2930   43.5990 C.ar   66  TRP66       0.0946
     51  CD2       -8.0570   -7.5070   41.7200 C.ar   66  TRP66       0.0152
     52  NE1       -7.0130   -6.9500   43.6250 N.ar   66  TRP66      -0.2442
     53  CE2       -6.8850   -7.7000   42.4810 C.ar   66  TRP66       0.0810
     54  CE3       -8.1790   -8.1690   40.4930 C.ar   66  TRP66       0.0012
     55  CZ2       -5.8430   -8.5350   42.0610 C.ar   66  TRP66       0.0191
     56  CZ3       -7.1400   -8.9980   40.0710 C.ar   66  TRP66       0.0001
     57  CH2       -5.9910   -9.1740   40.8550 C.ar   66  TRP66       0.0015
     58  N        -16.4090   -6.9930   48.1110 N.3   110  SER110     -0.1217
     59  CA       -15.5340   -8.1730   48.0400 C.3   110  SER110      0.1889
     60  C        -16.1960   -9.4050   47.4160 C.2   110  SER110      0.2288
     61  O        -15.5470  -10.1510   46.6770 O.2   110  SER110     -0.2866
     62  CB       -14.9400   -8.5350   49.4080 C.3   110  SER110      0.2089
     63  OG       -13.9200   -7.6140   49.7480 O.3   110  SER110     -0.2183
     64  N        -16.2460   -8.7600   43.6940 N.3   113  VAL113     -0.1231
     65  CA       -14.8850   -8.9260   43.1740 C.3   113  VAL113      0.1692
     66  C        -14.4330  -10.3910   43.1060 C.2   113  VAL113      0.2592
     67  O        -13.8030  -10.8010   42.1380 O.2   113  VAL113     -0.2718
     68  CB       -13.8680   -8.0420   43.9500 C.3   113  VAL113      0.0266
     69  CG1      -12.4350   -8.4350   43.6140 C.3   113  VAL113      0.0020
     70  CG2      -14.1240   -6.5650   43.6240 C.3   113  VAL113      0.0020
     71  N        -14.7740  -11.1930   44.1100 N.am  114  TYR114     -0.1976
     72  CA       -14.4700  -12.6300   44.0350 C.3   114  TYR114      0.1639
     73  C        -15.1600  -13.2820   42.8240 C.2   114  TYR114      0.2290
     74  O        -14.5530  -14.0720   42.1050 O.2   114  TYR114     -0.2864
     75  CB       -14.8490  -13.3550   45.3320 C.3   114  TYR114      0.0560
     76  CG       -13.7110  -13.4660   46.3380 C.ar  114  TYR114     -0.0198
     77  CD1      -13.3400  -12.3810   47.1360 C.ar  114  TYR114     -0.0009
     78  CD2      -13.0140  -14.6610   46.4980 C.ar  114  TYR114     -0.0009
     79  CE1      -12.3040  -12.4910   48.0620 C.ar  114  TYR114      0.0417
     80  CE2      -11.9730  -14.7750   47.4160 C.ar  114  TYR114      0.0417
     81  CZ       -11.6260  -13.6910   48.1940 C.ar  114  TYR114      0.1957
     82  OH       -10.6010  -13.8190   49.1050 O.3   114  TYR114     -0.2866
     83  N        -13.3970  -12.1750   39.5580 N.3   117  MET117     -0.1245
     84  CA       -12.1150  -12.8520   39.4340 C.3   117  MET117      0.1570
     85  C        -12.3210  -14.2980   39.0160 C.2   117  MET117      0.2261
     86  O        -11.6740  -14.7700   38.0850 O.2   117  MET117     -0.2867
     87  CB       -11.3470  -12.7960   40.7360 C.3   117  MET117      0.0387
     88  CG       -10.4280  -13.9700   40.9180 C.3   117  MET117      0.0595
     89  SD       -10.0210  -14.0700   42.6500 S.3   117  MET117     -0.1393
     90  CE        -9.8120  -12.3330   42.9490 C.3   117  MET117      0.0692
     91  N         -4.1210  -11.9740   42.6790 N.3   142  ALA142     -0.1245
     92  CA        -5.4250  -12.4210   43.1510 C.3   142  ALA142      0.1562
     93  C         -5.2690  -13.4980   44.2300 C.2   142  ALA142      0.2260
     94  O         -5.9050  -13.4350   45.2860 O.2   142  ALA142     -0.2867
     95  CB        -6.2760  -12.9510   41.9730 C.3   142  ALA142      0.0290
     96  N         -4.2170  -12.0200   47.5670 N.3   145  TRP145     -0.1227
     97  CA        -5.2870  -11.3510   48.3030 C.3   145  TRP145      0.1737
     98  C         -6.3240  -12.3170   48.8490 C.2   145  TRP145      0.2595
     99  O         -6.8330  -12.1250   49.9440 O.2   145  TRP145     -0.2718
    100  CB        -5.8970  -10.2310   47.4870 C.3   145  TRP145      0.0564
    101  CG        -5.0280   -9.0420   47.5390 C.ar  145  TRP145      0.0003
    102  CD1       -4.2150   -8.5720   46.5470 C.ar  145  TRP145      0.0946
    103  CD2       -4.8230   -8.1820   48.6700 C.ar  145  TRP145      0.0152
    104  NE1       -3.5350   -7.4580   46.9840 N.ar  145  TRP145     -0.2442
    105  CE2       -3.8920   -7.1970   48.2840 C.ar  145  TRP145      0.0810
    106  CE3       -5.3490   -8.1400   49.9690 C.ar  145  TRP145      0.0012
    107  CZ2       -3.4730   -6.1820   49.1480 C.ar  145  TRP145      0.0191
    108  CZ3       -4.9340   -7.1280   50.8260 C.ar  145  TRP145      0.0001
    109  CH2       -4.0070   -6.1650   50.4110 C.ar  145  TRP145      0.0015
    110  N         -6.5800  -13.3870   48.1110 N.am  146  ILE146     -0.1980
    111  CA        -7.3950  -14.4850   48.6090 C.3   146  ILE146      0.1595
    112  C         -6.7950  -15.1370   49.8640 C.2   146  ILE146      0.2287
    113  O         -7.5270  -15.5130   50.7920 O.2   146  ILE146     -0.2864
    114  CB        -7.5700  -15.5510   47.5280 C.3   146  ILE146      0.0276
    115  CG1       -8.4440  -15.0140   46.3900 C.3   146  ILE146      0.0022
    116  CG2       -8.1610  -16.8240   48.1010 C.3   146  ILE146      0.0022
    117  CD1       -8.6630  -16.0350   45.2890 C.3   146  ILE146      0.0001
    118  N         -8.0650   -8.6240   58.7150 N.3   154  GLY154     -0.1210
    119  CA        -9.1840   -7.8230   59.1810 C.3   154  GLY154      0.1956
    120  C        -10.0400   -7.3110   58.0380 C.2   154  GLY154      0.2611
    121  O         -9.7120   -6.3070   57.4000 O.2   154  GLY154     -0.2717
    122  N        -11.1360   -8.0160   57.7720 N.am  155  MET155     -0.1979
    123  CA       -12.0440   -7.6630   56.6820 C.3   155  MET155      0.1605
    124  C        -13.4940   -7.7890   57.1390 C.2   155  MET155      0.2287
    125  O        -13.7890   -8.4650   58.1290 O.2   155  MET155     -0.2864
    126  CB       -11.8130   -8.5680   55.4670 C.3   155  MET155      0.0413
    127  CG       -10.4360   -8.4410   54.8360 C.3   155  MET155      0.0598
    128  SD       -10.1910   -9.5760   53.4490 S.3   155  MET155     -0.1393
    129  CE        -8.4790   -9.2060   53.0160 C.3   155  MET155      0.0692
    130  N        -17.0160  -14.9300   50.7170 N.3   162  HIS162     -0.1241
    131  CA       -16.1080  -14.7900   49.5710 C.3   162  HIS162      0.1621
    132  C        -16.1600  -16.0090   48.6430 C.2   162  HIS162      0.2264
    133  O        -16.1480  -15.8780   47.4170 O.2   162  HIS162     -0.2867
    134  CB       -14.6710  -14.5460   50.0390 C.3   162  HIS162      0.0745
    135  CG       -14.4790  -13.2300   50.7220 C.ar  162  HIS162      0.0817
    136  ND1      -13.4420  -12.9880   51.6000 N.ar  162  HIS162     -0.2268
    137  CD2      -15.1930  -12.0820   50.6630 C.ar  162  HIS162      0.1154
    138  CE1      -13.5300  -11.7500   52.0510 C.ar  162  HIS162      0.1986
    139  NE2      -14.5880  -11.1800   51.5020 N.ar  162  HIS162     -0.2212
@<TRIPOS>BOND
     1    86    85    2
     2    85    84    1
     3    47    46    2
     4    84    83    1
     5    84    87    1
     6    56    54   ar
     7    56    57   ar
     8    46    45    1
     9    54    51   ar
    10    87    88    1
    11    57    55   ar
    12    88    89    1
    13    45    44    1
    14    45    48    1
    15    51    49   ar
    16    51    53   ar
    17    95    92    1
    18    48    49    1
    19    55    53   ar
    20    74    73    2
    21    67    66    2
    22    49    50   ar
    23    53    52   ar
    24    89    90    1
    25    91    92    1
    26    73    72    1
    27    66    65    1
    28    66    71   am
    29    92    93    1
    30    65    64    1
    31    65    68    1
    32    39    38    2
    33    50    52   ar
    34    69    68    1
    35    70    68    1
    36    72    71    1
    37    72    75    1
    38    93    94    2
    39    38    37    1
    40    28    27    2
    41   117   115    1
    42    75    76    1
    43    27    36   am
    44    27    26    1
    45    37    36    1
    46    37    40    1
    47    76    78   ar
    48    76    77   ar
    49   115   114    1
    50    78    80   ar
    51   102   104   ar
    52   102   101   ar
    53    26    25    1
    54    26    29    1
    55    31    33   ar
    56    31    30   ar
    57    61    60    2
    58    33    35   ar
    59    40    41    1
    60   104   105   ar
    61    77    79   ar
    62    80    81   ar
    63    60    59    1
    64   133   132    2
    65   100   101    1
    66   100    97    1
    67   114   116    1
    68   114   111    1
    69   101   103   ar
    70    29    30    1
    71    96    97    1
    72    30    32   ar
    73    35    34   ar
    74    41    42    2
    75    41    43   am
    76    59    58    1
    77    59    62    1
    78    79    81   ar
    79   110   111    1
    80   110    98   am
    81    81    82    1
    82   105   103   ar
    83   105   107   ar
    84    97    98    1
    85   111   112    1
    86   132   131    1
    87    32    34   ar
    88   103   106   ar
    89    98    99    2
    90   107   109   ar
    91    18    17    2
    92    62    63    1
    93   131   134    1
    94   131   130    1
    95   112   113    2
    96   106   108   ar
    97   134   135    1
    98    10     9    2
    99    17    16    1
   100   109   108   ar
   101   137   135   ar
   102   137   139   ar
   103   135   136   ar
   104    14    13    1
   105     9     8    1
   106     9    15   am
   107   139   138   ar
   108   136   138   ar
   109    16    15    1
   110    16    19    1
   111     8     7    1
   112     8    11    1
   113    22    24   ar
   114    22    20   ar
   115    13    12    1
   116    24    23   ar
   117    20    19    1
   118    20    21   ar
   119    11    12    1
   120    23    21   ar
   121   129   128    1
   122     4     3    2
   123   128   127    1
   124     3     2    1
   125   127   126    1
   126     6     5    1
   127     1     2    1
   128   126   123    1
   129     2     5    1
   130   123   124    1
   131   123   122    1
   132   124   125    2
   133   121   120    2
   134   122   120   am
   135   120   119    1
   136   118   119    1
