@<TRIPOS>MOLECULE
tmp/3zmjA02.pdb
 80 76 0 0 0
SMALL
GASTEIGER

@<TRIPOS>ATOM
      1  N        -20.9040    2.4050   39.5360 N.3     9  MET9       -0.1245
      2  CA       -20.6150    1.6550   40.7490 C.3     9  MET9        0.1570
      3  C        -19.4850    2.3350   41.5430 C.2     9  MET9        0.2261
      4  O        -19.5590    2.4960   42.7710 O.2     9  MET9       -0.2867
      5  CB       -20.2520    0.2080   40.4100 C.3     9  MET9        0.0387
      6  CG       -19.6940   -0.5750   41.5910 C.3     9  MET9        0.0595
      7  SD       -20.9130   -0.8670   42.9050 S.3     9  MET9       -0.1393
      8  CE       -21.9080   -2.1780   42.1800 C.3     9  MET9        0.0692
      9  N        -33.8790   -2.5580   48.8430 N.3    45  TRP45      -0.1241
     10  CA       -32.5590   -2.0950   48.4350 C.3    45  TRP45       0.1605
     11  C        -31.4940   -2.7540   49.3170 C.2    45  TRP45       0.2264
     12  O        -30.3950   -3.0180   48.8550 O.2    45  TRP45      -0.2867
     13  CB       -32.4490   -0.5510   48.4650 C.3    45  TRP45       0.0550
     14  CG       -32.6380    0.0490   49.8170 C.ar   45  TRP45       0.0003
     15  CD1      -31.6730    0.2750   50.7600 C.ar   45  TRP45       0.0946
     16  CD2      -33.8760    0.4750   50.3990 C.ar   45  TRP45       0.0152
     17  NE1      -32.2320    0.8230   51.8920 N.ar   45  TRP45      -0.2442
     18  CE2      -33.5840    0.9560   51.6960 C.ar   45  TRP45       0.0810
     19  CE3      -35.2100    0.4940   49.9530 C.ar   45  TRP45       0.0012
     20  CZ2      -34.5740    1.4600   52.5440 C.ar   45  TRP45       0.0191
     21  CZ3      -36.1840    0.9890   50.7950 C.ar   45  TRP45       0.0001
     22  CH2      -35.8630    1.4640   52.0770 C.ar   45  TRP45       0.0015
     23  N        -29.0430   -5.5500   48.5280 N.3    48  PHE48      -0.1227
     24  CA       -27.9600   -5.2070   47.5920 C.3    48  PHE48       0.1736
     25  C        -27.0160   -4.1160   48.1120 C.2    48  PHE48       0.2596
     26  O        -25.8110   -4.1630   47.8680 O.2    48  PHE48      -0.2718
     27  CB       -28.5250   -4.7250   46.2460 C.3    48  PHE48       0.0547
     28  CG       -29.5300   -5.6610   45.6320 C.ar   48  PHE48      -0.0202
     29  CD1      -30.8770   -5.5370   45.9200 C.ar   48  PHE48      -0.0042
     30  CD2      -29.1210   -6.6670   44.7710 C.ar   48  PHE48      -0.0042
     31  CE1      -31.8060   -6.4070   45.3560 C.ar   48  PHE48      -0.0003
     32  CE2      -30.0270   -7.5270   44.2100 C.ar   48  PHE48      -0.0003
     33  CZ       -31.3780   -7.3980   44.4970 C.ar   48  PHE48      -0.0000
     34  N        -27.5750   -3.1230   48.8000 N.am   49  THR49      -0.1953
     35  CA       -26.8400   -1.9020   49.1150 C.3    49  THR49       0.1897
     36  C        -25.6660   -2.0910   50.0830 C.2    49  THR49       0.2313
     37  O        -24.7830   -1.2380   50.1510 O.2    49  THR49      -0.2863
     38  CB       -27.7650   -0.7670   49.6110 C.3    49  THR49       0.1794
     39  OG1      -28.4980   -1.1900   50.7720 O.3    49  THR49      -0.2208
     40  CG2      -28.7170   -0.3400   48.5080 C.3    49  THR49       0.0378
     41  N        -23.2610   -3.8700   49.6220 N.3    51  ALA51      -0.1231
     42  CA       -22.0640   -3.9340   48.7730 C.3    51  ALA51       0.1694
     43  C        -21.4010   -2.5720   48.5380 C.2    51  ALA51       0.2591
     44  O        -20.2530   -2.5080   48.0790 O.2    51  ALA51      -0.2718
     45  CB       -22.4070   -4.5720   47.4230 C.3    51  ALA51       0.0304
     46  N        -22.1460   -1.5000   48.8280 N.am   52  LEU52      -0.1980
     47  CA       -21.7090   -0.1360   48.5630 C.3    52  LEU52       0.1596
     48  C        -20.8900    0.4730   49.7160 C.2    52  LEU52       0.2287
     49  O        -20.2320    1.4820   49.5350 O.2    52  LEU52      -0.2864
     50  CB       -22.9130    0.7700   48.2300 C.3    52  LEU52       0.0297
     51  CG       -23.7100    0.4760   46.9510 C.3    52  LEU52       0.0022
     52  CD1      -24.8710    1.4420   46.8280 C.3    52  LEU52       0.0001
     53  CD2      -22.8530    0.5130   45.6830 C.3    52  LEU52       0.0001
     54  N        -22.9340   -8.9900   39.1340 N.3    87  THR87      -0.1203
     55  CA       -22.9420   -8.1380   40.3210 C.3    87  THR87       0.1994
     56  C        -24.1430   -8.3980   41.2380 C.2    87  THR87       0.2617
     57  O        -23.9800   -8.5480   42.4590 O.2    87  THR87      -0.2717
     58  CB       -22.9380   -6.6370   39.9130 C.3    87  THR87       0.1784
     59  OG1      -21.7830   -6.3660   39.1080 O.3    87  THR87      -0.2211
     60  CG2      -22.9350   -5.7340   41.1370 C.3    87  THR87       0.0376
     61  N        -25.3420   -8.4380   40.6550 N.am   88  LEU88      -0.1979
     62  CA       -26.5650   -8.6410   41.4410 C.3    88  LEU88       0.1596
     63  C        -26.5540   -9.9850   42.1350 C.2    88  LEU88       0.2287
     64  O        -26.8210  -10.0740   43.3320 O.2    88  LEU88      -0.2864
     65  CB       -27.8390   -8.4950   40.5800 C.3    88  LEU88       0.0297
     66  CG       -28.0600   -7.1240   39.9260 C.3    88  LEU88       0.0022
     67  CD1      -29.3150   -7.1090   39.0340 C.3    88  LEU88       0.0001
     68  CD2      -28.1240   -6.0090   40.9890 C.3    88  LEU88       0.0001
     69  N        -23.6360  -10.2660   44.7640 N.3    91  ALA91      -0.1245
     70  CA       -23.9390   -9.4350   45.9290 C.3    91  ALA91       0.1562
     71  C        -24.9990  -10.1080   46.8210 C.2    91  ALA91       0.2260
     72  O        -24.8280  -10.1930   48.0410 O.2    91  ALA91      -0.2867
     73  CB       -24.3550   -8.0250   45.5250 C.3    91  ALA91       0.0290
     74  N        -18.4870   -9.4020   45.2150 N.3   112  VAL112     -0.1245
     75  CA       -18.6410   -9.0990   43.8010 C.3   112  VAL112      0.1561
     76  C        -17.3130   -9.2710   43.0820 C.2   112  VAL112      0.2260
     77  O        -17.2550   -9.8760   42.0110 O.2   112  VAL112     -0.2867
     78  CB       -19.2190   -7.6730   43.6000 C.3   112  VAL112      0.0252
     79  CG1      -19.0970   -7.2180   42.1410 C.3   112  VAL112      0.0019
     80  CG2      -20.6690   -7.6340   44.0640 C.3   112  VAL112      0.0019
@<TRIPOS>BOND
     1    67    66    1
     2    59    58    1
     3    54    55    1
     4     1     2    1
     5    58    55    1
     6    58    60    1
     7    66    65    1
     8    66    68    1
     9    55    56    1
    10     5     2    1
    11     5     6    1
    12    65    62    1
    13    61    56   am
    14    61    62    1
    15     2     3    1
    16    56    57    2
    17    62    63    1
    18     3     4    2
    19     6     7    1
    20    77    76    2
    21    63    64    2
    22    79    78    1
    23     8     7    1
    24    76    75    1
    25    78    75    1
    26    78    80    1
    27    75    74    1
    28    32    33   ar
    29    32    30   ar
    30    33    31   ar
    31    69    70    1
    32    30    28   ar
    33    31    29   ar
    34    73    70    1
    35    28    29   ar
    36    28    27    1
    37    53    51    1
    38    70    71    1
    39    27    24    1
    40    71    72    2
    41    52    51    1
    42    51    50    1
    43    45    42    1
    44    24    25    1
    45    24    23    1
    46    26    25    2
    47    44    43    2
    48    25    34   am
    49    50    47    1
    50    10    13    1
    51    10     9    1
    52    10    11    1
    53    13    14    1
    54    40    38    1
    55    43    42    1
    56    43    46   am
    57    47    46    1
    58    47    48    1
    59    42    41    1
    60    34    35    1
    61    12    11    2
    62    35    38    1
    63    35    36    1
    64    49    48    2
    65    38    39    1
    66    14    16   ar
    67    14    15   ar
    68    19    16   ar
    69    19    21   ar
    70    36    37    2
    71    16    18   ar
    72    15    17   ar
    73    21    22   ar
    74    18    17   ar
    75    18    20   ar
    76    22    20   ar
