@<TRIPOS>MOLECULE
tmp/3zmkB00.pdb
 143 141 0 0 0
SMALL
GASTEIGER

@<TRIPOS>ATOM
      1  N         26.5690   -5.2710   60.5380 N.3    14  SER14      -0.1203
      2  CA        26.9240   -3.8540   60.5230 C.3    14  SER14       0.2005
      3  C         26.5140   -3.1850   59.2040 C.2    14  SER14       0.2461
      4  O         26.7860   -3.7060   58.1250 O.2    14  SER14      -0.2732
      5  CB        28.4230   -3.6870   60.7790 C.3    14  SER14       0.2103
      6  OG        28.8880   -2.4590   60.2590 O.3    14  SER14      -0.2182
      7  N         25.8030   -2.0550   59.2940 N.am   15  PRO15      -0.2718
      8  CA        25.4070   -1.3420   58.0750 C.3    15  PRO15       0.1520
      9  C         26.5990   -0.8960   57.1960 C.2    15  PRO15       0.2440
     10  O         26.5650   -1.1610   55.9950 O.2    15  PRO15      -0.2731
     11  CB        24.5900   -0.1470   58.6100 C.3    15  PRO15       0.0310
     12  CG        24.0650   -0.6370   59.9430 C.3    15  PRO15       0.0237
     13  CD        25.1790   -1.4940   60.5010 C.3    15  PRO15       0.0939
     14  N         27.6370   -0.2440   57.7720 N.am   16  PRO16      -0.2727
     15  CA        28.7040    0.1680   56.8520 C.3    16  PRO16       0.1402
     16  C         29.4220   -1.0200   56.2000 C.2    16  PRO16       0.2269
     17  O         29.9050   -0.8860   55.0730 O.2    16  PRO16      -0.2865
     18  CB        29.6620    0.9650   57.7550 C.3    16  PRO16       0.0296
     19  CG        29.3700    0.5190   59.1270 C.3    16  PRO16       0.0237
     20  CD        27.8890    0.2570   59.1370 C.3    16  PRO16       0.0939
     21  N         32.2380   -7.9140   67.3240 N.3    38  LEU38      -0.1245
     22  CA        32.2940   -6.7530   68.2110 C.3    38  LEU38       0.1561
     23  C         31.8320   -7.0440   69.6350 C.2    38  LEU38       0.2260
     24  O         32.2430   -6.3600   70.5830 O.2    38  LEU38      -0.2867
     25  CB        31.4440   -5.6040   67.6640 C.3    38  LEU38       0.0270
     26  CG        31.7130   -5.0880   66.2510 C.3    38  LEU38       0.0019
     27  CD1       30.7430   -3.9630   65.9360 C.3    38  LEU38       0.0001
     28  CD2       33.1540   -4.6220   66.1140 C.3    38  LEU38       0.0001
     29  N         37.7210   -6.6670   67.9310 N.3    43  HIS43      -0.1241
     30  CA        38.2990   -5.4740   67.3330 C.3    43  HIS43       0.1621
     31  C         39.2650   -4.7750   68.2820 C.2    43  HIS43       0.2264
     32  O         40.0080   -3.8780   67.8740 O.2    43  HIS43      -0.2867
     33  CB        37.1950   -4.5080   66.8840 C.3    43  HIS43       0.0745
     34  CG        36.2760   -4.0710   67.9860 C.ar   43  HIS43       0.0817
     35  ND1       35.7230   -4.9480   68.8970 N.ar   43  HIS43      -0.2268
     36  CD2       35.7910   -2.8460   68.3060 C.ar   43  HIS43       0.1154
     37  CE1       34.9520   -4.2810   69.7380 C.ar   43  HIS43       0.1986
     38  NE2       34.9730   -3.0040   69.3980 N.ar   43  HIS43      -0.2212
     39  N         40.0810    0.9730   66.2330 N.3    55  HIS55      -0.1226
     40  CA        39.3380   -0.2910   66.3760 C.3    55  HIS55       0.1752
     41  C         37.8970   -0.3220   65.8340 C.2    55  HIS55       0.2597
     42  O         36.9390   -0.4650   66.6010 O.2    55  HIS55      -0.2718
     43  CB        39.3090   -0.6490   67.8620 C.3    55  HIS55       0.0759
     44  CG        38.9460    0.5040   68.7430 C.ar   55  HIS55       0.0818
     45  ND1       37.6610    0.9950   68.8330 N.ar   55  HIS55      -0.2268
     46  CD2       39.7030    1.2900   69.5440 C.ar   55  HIS55       0.1154
     47  CE1       37.6390    2.0200   69.6650 C.ar   55  HIS55       0.1986
     48  NE2       38.8670    2.2230   70.1090 N.ar   55  HIS55      -0.2212
     49  N         37.7480   -0.1900   64.5170 N.am   56  THR56      -0.1939
     50  CA        36.4250   -0.1260   63.8990 C.3    56  THR56       0.2028
     51  C         36.3540   -1.0260   62.6760 C.2    56  THR56       0.2642
     52  O         37.3800   -1.4170   62.1260 O.2    56  THR56      -0.2714
     53  CB        36.0540    1.3090   63.4570 C.3    56  THR56       0.1808
     54  OG1       37.0030    1.7700   62.4820 O.3    56  THR56      -0.2208
     55  CG2       36.0300    2.2500   64.6450 C.3    56  THR56       0.0379
     56  N         35.1340   -1.3640   62.2710 N.am   57  ILE57      -0.1963
     57  CA        34.9100   -2.1230   61.0510 C.3    57  ILE57       0.1712
     58  C         33.9320   -1.3280   60.2120 C.2    57  ILE57       0.2458
     59  O         33.1790   -0.5410   60.7540 O.2    57  ILE57      -0.2730
     60  CB        34.3240   -3.5210   61.3430 C.3    57  ILE57       0.0289
     61  CG1       33.0350   -3.3920   62.1660 C.3    57  ILE57       0.0022
     62  CG2       35.3760   -4.4140   62.0130 C.3    57  ILE57       0.0023
     63  CD1       32.3120   -4.7080   62.3990 C.3    57  ILE57       0.0001
     64  N         33.9390   -1.5260   58.8860 N.am   58  PRO58      -0.2727
     65  CA        34.7940   -2.4560   58.1360 C.3    58  PRO58       0.1402
     66  C         36.1990   -1.9070   57.9350 C.2    58  PRO58       0.2269
     67  O         36.4070   -0.6900   57.9640 O.2    58  PRO58      -0.2865
     68  CB        34.1030   -2.5180   56.7710 C.3    58  PRO58       0.0296
     69  CG        33.5440   -1.1280   56.6050 C.3    58  PRO58       0.0237
     70  CD        33.1200   -0.6910   57.9870 C.3    58  PRO58       0.0939
     71  N         37.0180    2.8590   57.2890 N.3    69  GLU69      -0.1231
     72  CA        35.8080    3.6680   57.0940 C.3    69  GLU69       0.1699
     73  C         35.0910    3.3080   55.7760 C.2    69  GLU69       0.2593
     74  O         35.6900    3.3240   54.6930 O.2    69  GLU69      -0.2718
     75  CB        36.1050    5.1770   57.2080 C.3    69  GLU69       0.0402
     76  CG        34.9560    6.0280   57.7220 C.3    69  GLU69       0.1161
     77  CD        33.9330    6.3390   56.6410 C.2    69  GLU69       0.3649
     78  OE1       34.3520    6.4880   55.4730 O.co2  69  GLU69      -0.2457
     79  OE2       32.7150    6.4180   56.9520 O.co2  69  GLU69      -0.2457
     80  N         33.8050    2.9920   55.8780 N.am   70  SER70      -0.1938
     81  CA        33.0780    2.4020   54.7450 C.3    70  SER70       0.2055
     82  C         32.9830    3.3010   53.5300 C.2    70  SER70       0.2643
     83  O         33.1600    2.8280   52.4120 O.2    70  SER70      -0.2714
     84  CB        31.6730    1.9330   55.1430 C.3    70  SER70       0.2130
     85  OG        30.8250    3.0310   55.4560 O.3    70  SER70      -0.2179
     86  N         32.6770    4.5780   53.7430 N.am   71  HIS71      -0.1973
     87  CA        32.5810    5.5400   52.6450 C.3    71  HIS71       0.1656
     88  C         33.9260    5.6940   51.9420 C.2    71  HIS71       0.2291
     89  O         33.9970    5.6800   50.7060 O.2    71  HIS71      -0.2864
     90  CB        32.0540    6.8960   53.1430 C.3    71  HIS71       0.0771
     91  CG        30.7780    6.7880   53.9260 C.ar   71  HIS71       0.0820
     92  ND1       30.7510    6.7250   55.3050 N.ar   71  HIS71      -0.2267
     93  CD2       29.4890    6.6870   53.5190 C.ar   71  HIS71       0.1154
     94  CE1       29.5000    6.5990   55.7130 C.ar   71  HIS71       0.1986
     95  NE2       28.7140    6.5750   54.6480 N.ar   71  HIS71      -0.2212
     96  N         26.1630    9.3900   56.7780 N.3   106  SER106     -0.1217
     97  CA        26.9310    9.2940   58.0140 C.3   106  SER106      0.1889
     98  C         26.4410   10.3180   59.0480 C.2   106  SER106      0.2288
     99  O         26.2800    9.9910   60.2300 O.2   106  SER106     -0.2866
    100  CB        28.4440    9.3950   57.7560 C.3   106  SER106      0.2089
    101  OG        28.7870   10.6470   57.1980 O.3   106  SER106     -0.2183
    102  N         22.7610    7.3430   59.6290 N.3   110  PHE110     -0.1241
    103  CA        23.4770    6.4100   60.4880 C.3   110  PHE110      0.1605
    104  C         23.5880    6.9690   61.9060 C.2   110  PHE110      0.2264
    105  O         23.3900    6.2520   62.8720 O.2   110  PHE110     -0.2867
    106  CB        24.8650    6.1120   59.9180 C.3   110  PHE110      0.0534
    107  CG        25.6200    5.0570   60.6830 C.ar  110  PHE110     -0.0203
    108  CD1       25.2960    3.7150   60.5420 C.ar  110  PHE110     -0.0042
    109  CD2       26.6450    5.4100   61.5500 C.ar  110  PHE110     -0.0042
    110  CE1       25.9950    2.7250   61.2570 C.ar  110  PHE110     -0.0003
    111  CE2       27.3400    4.4380   62.2650 C.ar  110  PHE110     -0.0003
    112  CZ        27.0110    3.0880   62.1180 C.ar  110  PHE110     -0.0000
    113  N         22.0770    5.2670   65.3560 N.3   114  ARG114     -0.1245
    114  CA        23.0280    4.9290   66.4000 C.3   114  ARG114      0.1563
    115  C         22.5830    5.5040   67.7430 C.2   114  ARG114      0.2260
    116  O         22.6870    4.8220   68.7580 O.2   114  ARG114     -0.2867
    117  CB        24.4290    5.4080   65.9990 C.3   114  ARG114      0.0307
    118  CG        25.5750    4.8400   66.8080 C.3   114  ARG114      0.0489
    119  CD        26.9020    5.2240   66.1580 C.3   114  ARG114      0.2205
    120  NE        28.0700    5.0060   67.0110 N.pl3 114  ARG114     -0.0865
    121  CZ        29.2820    5.4950   66.7460 C.cat 114  ARG114      0.5346
    122  NH1       29.4800    6.2310   65.6540 N.pl3 114  ARG114      0.1354
    123  NH2       30.2950    5.2540   67.5720 N.pl3 114  ARG114      0.1354
    124  N         22.3830    2.8200   70.6520 N.3   118  GLU118     -0.1245
    125  CA        23.3460    2.9110   71.7370 C.3   118  GLU118      0.1567
    126  C         22.6510    2.9440   73.0940 C.2   118  GLU118      0.2260
    127  O         23.1310    2.3570   74.0560 O.2   118  GLU118     -0.2867
    128  CB        24.2390    4.1370   71.5570 C.3   118  GLU118      0.0388
    129  CG        25.6590    3.9510   72.0750 C.3   118  GLU118      0.1160
    130  CD        26.6880    4.7770   71.3200 C.2   118  GLU118      0.3649
    131  OE1       26.3690    5.2920   70.2280 O.co2 118  GLU118     -0.2457
    132  OE2       27.8240    4.9090   71.8190 O.co2 118  GLU118     -0.2457
    133  N         23.8090    0.0260   75.4570 N.3   122  PHE122     -0.1241
    134  CA        24.8160    0.4170   76.4390 C.3   122  PHE122      0.1605
    135  C         24.2430    0.9770   77.7370 C.2   122  PHE122      0.2264
    136  O         24.8860    0.9050   78.7750 O.2   122  PHE122     -0.2867
    137  CB        25.8370    1.3840   75.8210 C.3   122  PHE122      0.0534
    138  CG        26.7520    0.7400   74.8050 C.ar  122  PHE122     -0.0203
    139  CD1       27.5550   -0.3370   75.1550 C.ar  122  PHE122     -0.0042
    140  CD2       26.8120    1.2150   73.5060 C.ar  122  PHE122     -0.0042
    141  CE1       28.4010   -0.9230   74.2230 C.ar  122  PHE122     -0.0003
    142  CE2       27.6460    0.6370   72.5710 C.ar  122  PHE122     -0.0003
    143  CZ        28.4440   -0.4350   72.9290 C.ar  122  PHE122     -0.0000
@<TRIPOS>BOND
     1    89    88    2
     2    88    87    1
     3    83    82    2
     4    87    90    1
     5    87    86    1
     6    90    91    1
     7    93    91   ar
     8    93    95   ar
     9    82    86   am
    10    82    81    1
    11    91    92   ar
    12    95    94   ar
    13    74    73    2
    14    81    84    1
    15    81    80    1
    16    17    16    2
    17    84    85    1
    18    92    94   ar
    19    78    77   ar
    20    73    80   am
    21    73    72    1
    22    10     9    2
    23    16    15    1
    24    69    68    1
    25    69    70    1
    26    77    79   ar
    27    77    76    1
    28    68    65    1
    29    96    97    1
    30    15    18    1
    31    15    14    1
    32    72    75    1
    33    72    71    1
    34     9    14   am
    35     9     8    1
    36   101   100    1
    37    75    76    1
    38    18    19    1
    39   100    97    1
    40    14    20    1
    41    66    67    2
    42    66    65    1
    43    70    64    1
    44    97    98    1
    45     8    11    1
    46     8     7    1
    47     4     3    2
    48    65    64    1
    49    11    12    1
    50    64    58   am
    51    98    99    2
    52    19    20    1
    53     3     7   am
    54     3     2    1
    55     7    13    1
    56   102   103    1
    57   106   103    1
    58   106   107    1
    59    12    13    1
    60    58    59    2
    61    58    57    1
    62     6     5    1
    63   103   104    1
    64     2     1    1
    65     2     5    1
    66   108   107   ar
    67   108   110   ar
    68   107   109   ar
    69    57    60    1
    70    57    56    1
    71   110   112   ar
    72    60    62    1
    73    60    61    1
    74   109   111   ar
    75   104   105    2
    76   112   111   ar
    77    52    51    2
    78    61    63    1
    79    56    51   am
    80    54    53    1
    81    51    50    1
    82    53    50    1
    83    53    55    1
    84    50    49    1
    85    49    41   am
    86   113   114    1
    87   122   121    1
    88    41    40    1
    89    41    42    2
    90    27    26    1
    91   117   114    1
    92   117   118    1
    93    28    26    1
    94   119   118    1
    95   119   120    1
    96    39    40    1
    97    26    25    1
    98    40    43    1
    99   114   115    1
   100   121   120    2
   101   121   123    1
   102    33    30    1
   103    33    34    1
   104    21    22    1
   105    30    29    1
   106    30    31    1
   107    25    22    1
   108   115   116    2
   109    43    44    1
   110    32    31    2
   111    34    36   ar
   112    34    35   ar
   113    22    23    1
   114    36    38   ar
   115    44    45   ar
   116    44    46   ar
   117    45    47   ar
   118    35    37   ar
   119    38    37   ar
   120    46    48   ar
   121    23    24    2
   122    47    48   ar
   123   131   130   ar
   124   124   125    1
   125   130   132   ar
   126   130   129    1
   127   128   125    1
   128   128   129    1
   129   125   126    1
   130   142   143   ar
   131   142   140   ar
   132   143   141   ar
   133   126   127    2
   134   140   138   ar
   135   141   139   ar
   136   138   139   ar
   137   138   137    1
   138   133   134    1
   139   137   134    1
   140   134   135    1
   141   135   136    2
