@<TRIPOS>MOLECULE
tmp/3zmmB00.pdb
 182 175 0 0 0
SMALL
GASTEIGER

@<TRIPOS>ATOM
      1  N         21.9610  -35.8760   41.3960 N.3    11  GLN11      -0.1245
      2  CA        23.2540  -35.5520   42.0340 C.3    11  GLN11       0.1566
      3  C         23.1530  -34.5240   43.1570 C.2    11  GLN11       0.2260
      4  O         22.1310  -33.8640   43.3390 O.2    11  GLN11      -0.2867
      5  CB        24.2980  -35.1000   40.9900 C.3    11  GLN11       0.0367
      6  CG        23.9600  -33.8090   40.2590 C.3    11  GLN11       0.0905
      7  CD        24.9020  -33.5240   39.0930 C.2    11  GLN11       0.2608
      8  OE1       24.4860  -33.5070   37.9400 O.2    11  GLN11      -0.2717
      9  NE2       26.1740  -33.3240   39.3940 N.am   11  GLN11      -0.0878
     10  N         23.9760  -31.0750   44.4920 N.3    13  LEU13      -0.1231
     11  CA        24.2790  -29.7460   43.9490 C.3    13  LEU13       0.1696
     12  C         25.0920  -28.9030   44.9490 C.2    13  LEU13       0.2632
     13  O         25.8650  -28.0280   44.5400 O.2    13  LEU13      -0.2714
     14  CB        23.0000  -29.0120   43.5300 C.3    13  LEU13       0.0284
     15  CG        22.2700  -29.4960   42.2710 C.3    13  LEU13       0.0019
     16  CD1       21.1340  -28.5430   41.9260 C.3    13  LEU13       0.0001
     17  CD2       23.2170  -29.6220   41.0850 C.3    13  LEU13       0.0001
     18  N         24.9160  -29.1580   46.2470 N.am   14  GLY14      -0.1718
     19  CA        25.7610  -28.5360   47.2770 C.2    14  GLY14       0.1480
     20  C         25.2480  -28.6220   48.7070 C.2    14  GLY14       0.2820
     21  O         24.4530  -29.5100   49.0460 O.2    14  GLY14      -0.2669
     22  N         25.7440  -27.7080   49.5500 N.am   15  LYS15      -0.1929
     23  CA        25.2600  -27.5270   50.9330 C.3    15  LYS15       0.1731
     24  C         24.8200  -26.0540   51.1180 C.2    15  LYS15       0.2616
     25  O         25.6100  -25.1340   50.8790 O.2    15  LYS15      -0.2715
     26  CB        26.3360  -27.9360   51.9590 C.3    15  LYS15       0.0312
     27  CG        26.7000  -29.4030   51.9110 C.3    15  LYS15       0.0038
     28  CD        25.6000  -30.3950   52.3240 C.3    15  LYS15       0.0206
     29  CE        26.1620  -31.7550   52.7070 C.3    15  LYS15       0.1093
     30  NZ        26.7490  -31.7930   54.0550 N.3    15  LYS15      -0.1314
     31  N         23.5580  -25.8520   51.5190 N.am   16  GLY16      -0.1955
     32  CA        22.9350  -24.5230   51.6170 C.3    16  GLY16       0.1869
     33  C         23.2470  -23.7880   52.9120 C.2    16  GLY16       0.2309
     34  O         24.3690  -23.3160   53.0930 O.2    16  GLY16      -0.2863
     35  N         21.1940  -28.8930   49.0060 N.3    21  VAL21      -0.1245
     36  CA        20.4470  -28.7230   47.7660 C.3    21  VAL21       0.1561
     37  C         20.8440  -29.8410   46.8160 C.2    21  VAL21       0.2260
     38  O         21.9980  -30.2760   46.8180 O.2    21  VAL21      -0.2867
     39  CB        20.7770  -27.3900   47.0720 C.3    21  VAL21       0.0252
     40  CG1       19.8180  -27.1450   45.9110 C.3    21  VAL21       0.0019
     41  CG2       20.7210  -26.2530   48.0590 C.3    21  VAL21       0.0019
     42  N         19.8130  -32.0430   42.7720 N.3    23  MET23      -0.1245
     43  CA        19.1340  -32.1090   41.5000 C.3    23  MET23       0.1570
     44  C         18.3650  -33.4070   41.4590 C.2    23  MET23       0.2261
     45  O         18.9380  -34.4650   41.6800 O.2    23  MET23      -0.2867
     46  CB        20.1500  -32.0720   40.3640 C.3    23  MET23       0.0387
     47  CG        19.5290  -31.9260   38.9850 C.3    23  MET23       0.0595
     48  SD        20.5660  -32.6390   37.7080 S.3    23  MET23      -0.1393
     49  CE        22.1330  -31.7880   37.9200 C.3    23  MET23       0.0692
     50  N         15.4940  -28.2640   41.3130 N.3    38  ALA38      -0.1245
     51  CA        16.4120  -28.0630   42.4340 C.3    38  ALA38       0.1562
     52  C         15.6230  -28.3610   43.7100 C.2    38  ALA38       0.2260
     53  O         14.5080  -27.8640   43.8480 O.2    38  ALA38      -0.2867
     54  CB        16.9390  -26.6230   42.4430 C.3    38  ALA38       0.0290
     55  N         15.0800  -16.9210   41.0180 N.3    63  VAL63      -0.1245
     56  CA        14.8170  -18.3460   40.8150 C.3    63  VAL63       0.1561
     57  C         13.3810  -18.6650   41.2100 C.2    63  VAL63       0.2260
     58  O         12.9060  -18.2650   42.2830 O.2    63  VAL63      -0.2867
     59  CB        15.8040  -19.2450   41.6050 C.3    63  VAL63       0.0252
     60  CG1       15.6990  -19.0050   43.1010 C.3    63  VAL63       0.0019
     61  CG2       15.5600  -20.7190   41.2990 C.3    63  VAL63       0.0019
     62  N         12.3250  -25.9620   43.4360 N.3    74  MET74      -0.1230
     63  CA        12.5410  -24.7690   42.6390 C.3    74  MET74       0.1702
     64  C         13.0040  -25.2200   41.2700 C.2    74  MET74       0.2592
     65  O         13.4380  -26.3700   41.0990 O.2    74  MET74      -0.2718
     66  CB        13.6490  -23.9070   43.2650 C.3    74  MET74       0.0401
     67  CG        13.4160  -23.4340   44.6960 C.3    74  MET74       0.0596
     68  SD        14.9360  -22.9240   45.5250 S.3    74  MET74      -0.1393
     69  CE        15.6140  -24.4980   46.0480 C.3    74  MET74       0.0692
     70  N         12.9380  -24.3080   40.3040 N.am   75  GLU75      -0.1966
     71  CA        13.4770  -24.5840   38.9930 C.3    75  GLU75       0.1733
     72  C         14.9720  -24.9120   39.0750 C.2    75  GLU75       0.2616
     73  O         15.6910  -24.4290   39.9550 O.2    75  GLU75      -0.2715
     74  CB        13.2000  -23.4430   38.0080 C.3    75  GLU75       0.0429
     75  CG        13.7930  -22.1030   38.3760 C.3    75  GLU75       0.1163
     76  CD        13.7390  -21.0980   37.2380 C.2    75  GLU75       0.3649
     77  OE1       13.6700  -21.5440   36.0770 O.co2  75  GLU75      -0.2457
     78  OE2       13.7650  -19.8700   37.5120 O.co2  75  GLU75      -0.2457
     79  N         15.4180  -25.7750   38.1710 N.am   76  TYR76      -0.1960
     80  CA        16.8280  -26.0770   38.0380 C.3    76  TYR76       0.1771
     81  C         17.3990  -25.1620   36.9860 C.2    76  TYR76       0.2619
     82  O         16.8830  -25.1070   35.8820 O.2    76  TYR76      -0.2715
     83  CB        17.0460  -27.5210   37.6040 C.3    76  TYR76       0.0574
     84  CG        18.4970  -27.8400   37.3790 C.ar   76  TYR76      -0.0198
     85  CD1       19.4110  -27.6640   38.3920 C.ar   76  TYR76      -0.0009
     86  CD2       18.9550  -28.3030   36.1530 C.ar   76  TYR76      -0.0009
     87  CE1       20.7420  -27.9400   38.2080 C.ar   76  TYR76       0.0417
     88  CE2       20.2900  -28.5940   35.9580 C.ar   76  TYR76       0.0417
     89  CZ        21.1810  -28.4140   37.0000 C.ar   76  TYR76       0.1957
     90  OH        22.5260  -28.6820   36.8520 O.3    76  TYR76      -0.2866
     91  N         18.4570  -24.4400   37.3420 N.am   77  LEU77      -0.1964
     92  CA        19.2130  -23.6270   36.3920 C.3    77  LEU77       0.1713
     93  C         20.5540  -24.3410   36.1460 C.2    77  LEU77       0.2458
     94  O         21.3240  -24.5400   37.0790 O.2    77  LEU77      -0.2730
     95  CB        19.4040  -22.2090   36.9320 C.3    77  LEU77       0.0310
     96  CG        18.1360  -21.4840   37.4080 C.3    77  LEU77       0.0022
     97  CD1       18.4670  -20.0760   37.8800 C.3    77  LEU77       0.0001
     98  CD2       17.0790  -21.4360   36.3220 C.3    77  LEU77       0.0001
     99  N         20.8240  -24.7490   34.8860 N.am   78  PRO78      -0.2716
    100  CA        21.8370  -25.7740   34.5570 C.3    78  PRO78       0.1536
    101  C         23.3200  -25.3890   34.5680 C.2    78  PRO78       0.2599
    102  O         24.1760  -26.2860   34.5440 O.2    78  PRO78      -0.2715
    103  CB        21.4430  -26.1860   33.1470 C.3    78  PRO78       0.0310
    104  CG        20.8790  -24.9460   32.5640 C.3    78  PRO78       0.0237
    105  CD        20.1190  -24.2920   33.6800 C.3    78  PRO78       0.0939
    106  N         23.6390  -24.0970   34.6020 N.am   79  TYR79      -0.1960
    107  CA        25.0510  -23.6720   34.5750 C.3    79  TYR79       0.1771
    108  C         25.6870  -23.3450   35.9390 C.2    79  TYR79       0.2620
    109  O         26.8750  -23.0580   36.0050 O.2    79  TYR79      -0.2715
    110  CB        25.2190  -22.5220   33.5960 C.3    79  TYR79       0.0574
    111  CG        24.8660  -22.9330   32.1930 C.ar   79  TYR79      -0.0198
    112  CD1       25.7050  -23.7710   31.4700 C.ar   79  TYR79      -0.0009
    113  CD2       23.6770  -22.5150   31.5930 C.ar   79  TYR79      -0.0009
    114  CE1       25.3860  -24.1560   30.1820 C.ar   79  TYR79       0.0417
    115  CE2       23.3500  -22.9090   30.3030 C.ar   79  TYR79       0.0417
    116  CZ        24.2130  -23.7300   29.6060 C.ar   79  TYR79       0.1957
    117  OH        23.9230  -24.1400   28.3260 O.3    79  TYR79      -0.2866
    118  N         24.9190  -23.4100   37.0190 N.am   80  GLY80      -0.1940
    119  CA        25.4940  -23.3270   38.3620 C.3    80  GLY80       0.2014
    120  C         25.6170  -21.9150   38.9070 C.2    80  GLY80       0.2639
    121  O         24.8970  -21.0110   38.4760 O.2    80  GLY80      -0.2714
    122  N         26.5070  -21.7230   39.8760 N.am   81  SER81      -0.1949
    123  CA        26.6680  -20.3990   40.4410 C.3    81  SER81       0.1924
    124  C         27.4050  -19.5080   39.4520 C.2    81  SER81       0.2314
    125  O         28.2920  -19.9630   38.7180 O.2    81  SER81      -0.2863
    126  CB        27.4090  -20.4300   41.7730 C.3    81  SER81       0.2116
    127  OG        28.7010  -20.9910   41.6440 O.3    81  SER81      -0.2180
    128  N         31.1700  -19.8320   39.9900 N.3    84  ASP84      -0.1239
    129  CA        31.8530  -20.9450   39.3210 C.3    84  ASP84       0.1674
    130  C         31.8400  -20.7710   37.7960 C.2    84  ASP84       0.2266
    131  O         32.8570  -21.0040   37.1530 O.2    84  ASP84      -0.2867
    132  CB        31.2620  -22.2920   39.7410 C.3    84  ASP84       0.1410
    133  CG        31.5840  -22.6540   41.1870 C.2    84  ASP84       0.3668
    134  OD1       32.4010  -21.9480   41.8390 O.co2  84  ASP84      -0.2456
    135  OD2       31.0100  -23.6550   41.6720 O.co2  84  ASP84      -0.2456
    136  N         28.2660  -16.2410   44.6630 N.3   125  ARG125     -0.1231
    137  CA        27.9620  -17.6440   45.0000 C.3   125  ARG125      0.1694
    138  C         26.4640  -17.9360   45.1170 C.2   125  ARG125      0.2592
    139  O         26.0670  -19.0990   45.0310 O.2   125  ARG125     -0.2718
    140  CB        28.6640  -18.0800   46.3010 C.3   125  ARG125      0.0321
    141  CG        28.4770  -17.1180   47.4690 C.3   125  ARG125      0.0489
    142  CD        29.0010  -17.6210   48.7960 C.3   125  ARG125      0.2205
    143  NE        27.8710  -18.1060   49.5880 N.pl3 125  ARG125     -0.0865
    144  CZ        27.3390  -17.5220   50.6690 C.cat 125  ARG125      0.5346
    145  NH1       27.8290  -16.3890   51.1810 N.pl3 125  ARG125      0.1354
    146  NH2       26.2950  -18.1100   51.2610 N.pl3 125  ARG125      0.1354
    147  N         25.6540  -16.8930   45.3280 N.am  126  ASN126     -0.1960
    148  CA        24.1910  -17.0040   45.4440 C.3   126  ASN126      0.1819
    149  C         23.4550  -16.4830   44.2340 C.2   126  ASN126      0.2621
    150  O         22.2690  -16.1580   44.3210 O.2   126  ASN126     -0.2715
    151  CB        23.7060  -16.2370   46.6560 C.3   126  ASN126      0.1195
    152  CG        24.1950  -16.8370   47.9340 C.2   126  ASN126      0.2630
    153  OD1       24.5720  -17.9960   47.9580 O.2   126  ASN126     -0.2716
    154  ND2       24.1770  -16.0630   49.0130 N.am  126  ASN126     -0.0877
    155  N         24.1630  -16.3920   43.1110 N.am  127  ILE127     -0.1963
    156  CA        23.5560  -16.0520   41.8450 C.3   127  ILE127      0.1727
    157  C         23.7270  -17.2750   40.9620 C.2   127  ILE127      0.2616
    158  O         24.7810  -17.9030   40.9910 O.2   127  ILE127     -0.2715
    159  CB        24.2390  -14.8340   41.1790 C.3   127  ILE127      0.0290
    160  CG1       24.2220  -13.6190   42.1010 C.3   127  ILE127      0.0022
    161  CG2       23.5020  -14.4470   39.9070 C.3   127  ILE127      0.0023
    162  CD1       22.8220  -13.0800   42.3000 C.3   127  ILE127      0.0001
    163  N         22.6960  -17.6110   40.1850 N.am  128  LEU128     -0.1977
    164  CA        22.7270  -18.7750   39.2930 C.3   128  LEU128      0.1596
    165  C         22.6380  -18.3220   37.8460 C.2   128  LEU128      0.2287
    166  O         22.0790  -17.2510   37.5460 O.2   128  LEU128     -0.2864
    167  CB        21.5730  -19.7310   39.5930 C.3   128  LEU128      0.0297
    168  CG        21.5380  -20.3890   40.9780 C.3   128  LEU128      0.0022
    169  CD1       20.1220  -20.8230   41.3210 C.3   128  LEU128      0.0001
    170  CD2       22.4930  -21.5770   41.0610 C.3   128  LEU128      0.0001
    171  N         19.6680  -16.7020   43.4700 N.3   138  GLY138     -0.1210
    172  CA        19.3050  -18.1000   43.6800 C.3   138  GLY138      0.1956
    173  C         19.2090  -18.6600   45.0880 C.2   138  GLY138      0.2611
    174  O         18.9730  -19.8680   45.2380 O.2   138  GLY138     -0.2717
    175  N         19.4090  -17.8250   46.1080 N.am  139  ASP139     -0.1973
    176  CA        19.2600  -18.2470   47.5070 C.3   139  ASP139      0.1709
    177  C         18.6920  -17.1150   48.3440 C.2   139  ASP139      0.2293
    178  O         19.1220  -15.9670   48.2310 O.2   139  ASP139     -0.2864
    179  CB        20.5890  -18.6760   48.1190 C.3   139  ASP139      0.1436
    180  CG        20.3980  -19.4600   49.3990 C.2   139  ASP139      0.3671
    181  OD1       20.1520  -18.8620   50.4710 O.co2 139  ASP139     -0.2456
    182  OD2       20.4730  -20.6970   49.3260 O.co2 139  ASP139     -0.2456
@<TRIPOS>BOND
     1   117   116    1
     2   116   114   ar
     3   116   115   ar
     4   114   112   ar
     5   115   113   ar
     6   112   111   ar
     7   113   111   ar
     8   111   110    1
     9   104   103    1
    10   104   105    1
    11   103   100    1
    12   110   107    1
    13   105    99    1
    14   102   101    2
    15   100   101    1
    16   100    99    1
    17   101   106   am
    18   107   106    1
    19   107   108    1
    20    99    93   am
    21    82    81    2
    22   108   109    2
    23   108   118   am
    24    88    86   ar
    25    88    89   ar
    26    77    76   ar
    27    93    92    1
    28    93    94    2
    29    86    84   ar
    30    98    96    1
    31    92    95    1
    32    92    91    1
    33    90    89    1
    34    95    96    1
    35    81    91   am
    36    81    80    1
    37    89    87   ar
    38   118   119    1
    39   131   130    2
    40    76    78   ar
    41    76    75    1
    42    84    83    1
    43    84    85   ar
    44    96    97    1
    45   166   165    2
    46    83    80    1
    47    48    49    1
    48    48    47    1
    49   130   129    1
    50   165   164    1
    51     8     7    2
    52    74    75    1
    53    74    71    1
    54    80    79    1
    55    79    72   am
    56    87    85   ar
    57   119   120    1
    58   121   120    2
    59   125   124    2
    60   120   122   am
    61    47    46    1
    62    71    72    1
    63    71    70    1
    64    72    73    2
    65     7     9   am
    66     7     6    1
    67   164   167    1
    68   164   163    1
    69   129   132    1
    70   129   128    1
    71   124   123    1
    72   167   168    1
    73   132   133    1
    74   122   123    1
    75   161   159    1
    76   163   157   am
    77     6     5    1
    78    70    64   am
    79    46    43    1
    80   123   126    1
    81    56    55    1
    82    56    57    1
    83    56    59    1
    84   157   158    2
    85   157   156    1
    86   168   170    1
    87   168   169    1
    88     5     2    1
    89    17    15    1
    90    65    64    2
    91   159   156    1
    92   159   160    1
    93   133   135   ar
    94   133   134   ar
    95    57    58    2
    96    64    63    1
    97    61    59    1
    98    50    51    1
    99     1     2    1
   100    44    43    1
   101    44    45    2
   102    43    42    1
   103    59    60    1
   104   127   126    1
   105   156   155    1
   106    16    15    1
   107     2     3    1
   108   160   162    1
   109    15    14    1
   110    51    54    1
   111    51    52    1
   112    63    66    1
   113    63    62    1
   114   155   149   am
   115     3     4    2
   116    66    67    1
   117   171   172    1
   118    14    11    1
   119   172   173    1
   120    52    53    2
   121    11    10    1
   122    11    12    1
   123   149   150    2
   124   149   148    1
   125    13    12    2
   126   136   137    1
   127    67    68    1
   128    12    18    1
   129   137   138    1
   130   137   140    1
   131   139   138    2
   132   173   174    2
   133   173   175   am
   134   138   147   am
   135   147   148    1
   136   148   151    1
   137    68    69    1
   138    40    39    1
   139   175   176    1
   140    18    19    2
   141   140   141    1
   142   151   152    1
   143    37    38    2
   144    37    36    1
   145    39    36    1
   146    39    41    1
   147    19    20    1
   148   141   142    1
   149   176   179    1
   150   176   177    1
   151    36    35    1
   152   152   153    2
   153   152   154   am
   154   179   180    1
   155   178   177    2
   156    20    21    2
   157    20    22   am
   158   142   143    1
   159   182   180   ar
   160   180   181   ar
   161    22    23    1
   162   143   144    2
   163   144   145    1
   164   144   146    1
   165    25    24    2
   166    23    24    1
   167    23    26    1
   168    24    31   am
   169    31    32    1
   170    32    33    1
   171    27    26    1
   172    27    28    1
   173    28    29    1
   174    29    30    1
   175    33    34    2
