@<TRIPOS>MOLECULE
tmp/3zmpA00.pdb
 119 116 0 0 0
SMALL
GASTEIGER

@<TRIPOS>ATOM
      1  N        -14.1050  -14.3600  -29.8310 N.3    44  TYR44      -0.1227
      2  CA       -14.6160  -15.3440  -30.7830 C.3    44  TYR44       0.1736
      3  C        -14.8660  -16.7200  -30.1860 C.2    44  TYR44       0.2595
      4  O        -13.9910  -17.2960  -29.5180 O.2    44  TYR44      -0.2718
      5  CB       -13.6530  -15.4930  -31.9540 C.3    44  TYR44       0.0548
      6  CG       -13.4330  -14.2160  -32.7190 C.ar   44  TYR44      -0.0200
      7  CD1      -14.4410  -13.6710  -33.5150 C.ar   44  TYR44      -0.0009
      8  CD2      -12.2340  -13.5360  -32.6230 C.ar   44  TYR44      -0.0009
      9  CE1      -14.2370  -12.5030  -34.2210 C.ar   44  TYR44       0.0417
     10  CE2      -12.0240  -12.3760  -33.3140 C.ar   44  TYR44       0.0417
     11  CZ       -13.0230  -11.8620  -34.1050 C.ar   44  TYR44       0.1957
     12  OH       -12.7880  -10.7020  -34.7820 O.3    44  TYR44      -0.2866
     13  N        -16.0300  -17.2710  -30.5360 N.am   45  ARG45      -0.1966
     14  CA       -16.4330  -18.5900  -30.0950 C.3    45  ARG45       0.1729
     15  C        -15.4060  -19.6020  -30.6000 C.2    45  ARG45       0.2616
     16  O        -15.1050  -20.5960  -29.9420 O.2    45  ARG45      -0.2715
     17  CB       -17.8420  -18.9170  -30.6010 C.3    45  ARG45       0.0348
     18  CG       -18.3680  -20.2970  -30.1820 C.3    45  ARG45       0.0492
     19  CD       -19.8260  -20.4570  -30.5470 C.3    45  ARG45       0.2205
     20  NE       -20.0800  -20.3140  -31.9700 N.pl3  45  ARG45      -0.0865
     21  CZ       -19.9860  -21.2410  -32.8660 C.cat  45  ARG45       0.5346
     22  NH1      -19.5370  -22.4890  -32.5830 N.pl3  45  ARG45       0.1354
     23  NH2      -20.2260  -21.0190  -34.1250 N.pl3  45  ARG45       0.1354
     24  N        -14.8640  -19.3310  -31.7800 N.am   46  ASP46      -0.1957
     25  CA       -13.9610  -20.2610  -32.4360 C.3    46  ASP46       0.1840
     26  C        -12.4750  -20.0290  -32.1460 C.2    46  ASP46       0.2621
     27  O        -11.6330  -20.6710  -32.7570 O.2    46  ASP46      -0.2715
     28  CB       -14.2290  -20.2870  -33.9480 C.3    46  ASP46       0.1450
     29  CG       -14.0070  -18.9440  -34.6150 C.2    46  ASP46       0.3671
     30  OD1      -14.1870  -17.8930  -33.9540 O.co2  46  ASP46      -0.2456
     31  OD2      -13.6870  -18.9490  -35.8240 O.co2  46  ASP46      -0.2456
     32  N        -12.1300  -19.0740  -31.2880 N.am   47  VAL47      -0.1977
     33  CA       -10.7060  -18.9000  -30.9400 C.3    47  VAL47       0.1596
     34  C        -10.4010  -18.9240  -29.4380 C.2    47  VAL47       0.2287
     35  O        -10.6860  -17.9740  -28.7130 O.2    47  VAL47      -0.2864
     36  CB       -10.1370  -17.6090  -31.5270 C.3    47  VAL47       0.0276
     37  CG1       -8.6400  -17.5410  -31.2730 C.3    47  VAL47       0.0022
     38  CG2      -10.4680  -17.5120  -33.0170 C.3    47  VAL47       0.0022
     39  N         -7.1990   -6.6240  -41.9280 N.3   175  ASP175     -0.1225
     40  CA        -7.6880   -7.8930  -41.3470 C.3   175  ASP175      0.1805
     41  C         -7.8350   -9.0060  -42.3750 C.2   175  ASP175      0.2597
     42  O         -8.4370   -8.8030  -43.4340 O.2   175  ASP175     -0.2718
     43  CB        -9.0380   -7.6790  -40.6620 C.3   175  ASP175      0.1424
     44  CG        -9.5060   -8.9120  -39.9020 C.2   175  ASP175      0.3668
     45  OD1       -8.6870   -9.8340  -39.5500 O.co2 175  ASP175     -0.2456
     46  OD2      -10.6820   -8.9290  -39.5130 O.co2 175  ASP175     -0.2456
     47  N         -7.3020  -10.1830  -42.0280 N.am  176  PHE176     -0.1976
     48  CA        -7.2380  -11.3620  -42.9140 C.3   176  PHE176      0.1639
     49  C         -6.4050  -11.0450  -44.1530 C.2   176  PHE176      0.2290
     50  O         -6.4960  -11.7380  -45.1670 O.2   176  PHE176     -0.2864
     51  CB        -8.6220  -11.8620  -43.3740 C.3   176  PHE176      0.0560
     52  CG        -9.4270  -12.5950  -42.3180 C.ar  176  PHE176     -0.0200
     53  CD1       -8.9610  -13.7840  -41.7680 C.ar  176  PHE176     -0.0042
     54  CD2      -10.6940  -12.1500  -41.9520 C.ar  176  PHE176     -0.0042
     55  CE1       -9.7130  -14.4770  -40.8250 C.ar  176  PHE176     -0.0003
     56  CE2      -11.4520  -12.8440  -41.0140 C.ar  176  PHE176     -0.0003
     57  CZ       -10.9580  -14.0060  -40.4520 C.ar  176  PHE176     -0.0000
     58  N         -3.7960   -8.9410  -31.9970 N.3   209  SER209     -0.1202
     59  CA        -4.4050   -8.5330  -33.2440 C.3   209  SER209      0.2020
     60  C         -5.8540   -8.6930  -32.8930 C.2   209  SER209      0.2619
     61  O         -6.1600   -8.7360  -31.7230 O.2   209  SER209     -0.2717
     62  CB        -3.9670   -9.4040  -34.4130 C.3   209  SER209      0.2103
     63  OG        -4.5250  -10.6880  -34.3480 O.3   209  SER209     -0.2182
     64  N         -6.7700   -8.6770  -33.8440 N.am  210  SER210     -0.1937
     65  CA        -8.1590   -8.8590  -33.4590 C.3   210  SER210      0.2055
     66  C         -8.4610  -10.2200  -32.8470 C.2   210  SER210      0.2643
     67  O         -9.0780  -10.3090  -31.8040 O.2   210  SER210     -0.2714
     68  CB        -9.0710   -8.6380  -34.6520 C.3   210  SER210      0.2130
     69  OG       -10.4020   -8.4960  -34.2230 O.3   210  SER210     -0.2179
     70  N         -7.9850  -11.2820  -33.4700 N.am  211  ALA211     -0.1963
     71  CA        -8.2130  -12.6100  -32.9400 C.3   211  ALA211      0.1728
     72  C         -7.0530  -13.0790  -32.0970 C.2   211  ALA211      0.2617
     73  O         -7.2090  -13.8930  -31.2050 O.2   211  ALA211     -0.2715
     74  CB        -8.4580  -13.5860  -34.0680 C.3   211  ALA211      0.0334
     75  N         -5.8840  -12.5460  -32.3920 N.am  212  GLY212     -0.1940
     76  CA        -4.6610  -12.9790  -31.7270 C.3   212  GLY212      0.2014
     77  C         -4.0690  -14.2460  -32.3490 C.2   212  GLY212      0.2639
     78  O         -3.3060  -14.9790  -31.7060 O.2   212  GLY212     -0.2714
     79  N         -4.4510  -14.5310  -33.5940 N.am  213  ILE213     -0.1963
     80  CA        -3.9590  -15.7160  -34.2780 C.3   213  ILE213      0.1727
     81  C         -3.2950  -15.4510  -35.6400 C.2   213  ILE213      0.2617
     82  O         -2.1960  -15.9390  -35.8890 O.2   213  ILE213     -0.2715
     83  CB        -5.0140  -16.8830  -34.3500 C.3   213  ILE213      0.0290
     84  CG1       -6.1680  -16.5590  -35.2890 C.3   213  ILE213      0.0022
     85  CG2       -5.5530  -17.2150  -32.9710 C.3   213  ILE213      0.0023
     86  CD1       -7.2210  -17.6040  -35.2750 C.3   213  ILE213      0.0001
     87  N         -3.9910  -14.8170  -36.5660 N.am  214  GLY214     -0.1940
     88  CA        -3.3830  -14.5990  -37.8600 C.3   214  GLY214      0.2014
     89  C         -2.3020  -13.5640  -38.0830 C.2   214  GLY214      0.2638
     90  O         -1.2450  -13.8810  -38.6020 O.2   214  GLY214     -0.2714
     91  N         -2.5610  -12.3270  -37.6810 N.am  215  ARG215     -0.1977
     92  CA        -1.5740  -11.2670  -37.8040 C.3   215  ARG215      0.1597
     93  C         -0.4390  -11.4400  -36.8350 C.2   215  ARG215      0.2287
     94  O          0.7110  -11.2430  -37.1590 O.2   215  ARG215     -0.2864
     95  CB        -2.2300   -9.9110  -37.6130 C.3   215  ARG215      0.0334
     96  CG        -1.9850   -8.9490  -38.7520 C.3   215  ARG215      0.0492
     97  CD        -3.2940   -8.4450  -39.3160 C.3   215  ARG215      0.2205
     98  NE        -4.3830   -8.5690  -38.3630 N.pl3 215  ARG215     -0.0865
     99  CZ        -5.3930   -7.7190  -38.2890 C.cat 215  ARG215      0.5346
    100  NH1       -5.4390   -6.6910  -39.1100 N.pl3 215  ARG215      0.1354
    101  NH2       -6.3490   -7.8950  -37.4010 N.pl3 215  ARG215      0.1354
    102  N         -3.7560  -17.2620  -40.3710 N.3   256  GLN256     -0.1245
    103  CA        -5.0830  -17.6780  -40.8100 C.3   256  GLN256      0.1566
    104  C         -5.2980  -17.8710  -42.3080 C.2   256  GLN256      0.2260
    105  O         -6.3140  -18.4310  -42.7150 O.2   256  GLN256     -0.2867
    106  CB        -6.1530  -16.7450  -40.2400 C.3   256  GLN256      0.0367
    107  CG        -6.5910  -17.1240  -38.8340 C.3   256  GLN256      0.0905
    108  CD        -7.4710  -18.3900  -38.7940 C.2   256  GLN256      0.2608
    109  OE1       -8.5000  -18.4920  -39.4910 O.2   256  GLN256     -0.2717
    110  NE2       -7.0370  -19.3800  -38.0070 N.am  256  GLN256     -0.0878
    111  N         -1.3410  -15.0990  -45.9090 N.3   260  GLN260     -0.1245
    112  CA        -0.4780  -14.7940  -44.7730 C.3   260  GLN260      0.1566
    113  C          0.7590  -15.7050  -44.7670 C.2   260  GLN260      0.2260
    114  O          1.8780  -15.2420  -44.5440 O.2   260  GLN260     -0.2867
    115  CB        -1.2580  -14.9200  -43.4550 C.3   260  GLN260      0.0367
    116  CG        -2.1280  -13.7000  -43.1520 C.3   260  GLN260      0.0905
    117  CD        -3.0740  -13.9150  -41.9790 C.2   260  GLN260      0.2608
    118  OE1       -3.1860  -15.0210  -41.4490 O.2   260  GLN260     -0.2717
    119  NE2       -3.7770  -12.8600  -41.5830 N.am  260  GLN260     -0.0878
@<TRIPOS>BOND
     1   111   112    1
     2    50    49    2
     3   112   113    1
     4   112   115    1
     5   113   114    2
     6    49    48    1
     7   115   116    1
     8    42    41    2
     9    51    48    1
    10    51    52    1
    11   116   117    1
    12    48    47    1
    13   105   104    2
    14    41    47   am
    15    41    40    1
    16    52    54   ar
    17    52    53   ar
    18   104   103    1
    19   117   119   am
    20   117   118    2
    21    54    56   ar
    22    39    40    1
    23    53    55   ar
    24    40    43    1
    25    56    57   ar
    26    55    57   ar
    27   103   102    1
    28   103   106    1
    29    43    44    1
    30   106   107    1
    31    44    45   ar
    32    44    46   ar
    33   109   108    2
    34    97    96    1
    35    97    98    1
    36   100    99    1
    37   107   108    1
    38   108   110   am
    39    96    95    1
    40    90    89    2
    41    98    99    2
    42    99   101    1
    43    89    88    1
    44    89    91   am
    45    88    87    1
    46    92    91    1
    47    92    95    1
    48    92    93    1
    49    94    93    2
    50    87    81   am
    51    82    81    2
    52    31    29   ar
    53    81    80    1
    54    84    86    1
    55    84    83    1
    56    12    11    1
    57    68    69    1
    58    68    65    1
    59    29    30   ar
    60    29    28    1
    61    62    63    1
    62    62    59    1
    63    83    80    1
    64    83    85    1
    65    80    79    1
    66     9    11   ar
    67     9     7   ar
    68    23    21    1
    69    11    10   ar
    70    74    71    1
    71    28    25    1
    72    64    65    1
    73    64    60   am
    74    79    77   am
    75     7     6   ar
    76    70    71    1
    77    70    66   am
    78    65    66    1
    79    10     8   ar
    80    59    60    1
    81    59    58    1
    82    38    36    1
    83    71    72    1
    84    60    61    2
    85    21    22    1
    86    21    20    2
    87    66    67    2
    88    27    26    2
    89     6     8   ar
    90     6     5    1
    91    25    26    1
    92    25    24    1
    93    75    72   am
    94    75    76    1
    95    77    76    1
    96    77    78    2
    97    26    32   am
    98    72    73    2
    99    20    19    1
   100     5     2    1
   101    24    15   am
   102    36    37    1
   103    36    33    1
   104    32    33    1
   105    33    34    1
   106     2     3    1
   107     2     1    1
   108    17    18    1
   109    17    14    1
   110    15    14    1
   111    15    16    2
   112    19    18    1
   113    13     3   am
   114    13    14    1
   115     3     4    2
   116    34    35    2
