@<TRIPOS>MOLECULE
tmp/3zmrB01.pdb
 185 181 0 0 0
SMALL
GASTEIGER

@<TRIPOS>ATOM
      1  N          8.8730   -3.7500   19.0280 N.3   124  ASN124     -0.1240
      2  CA         7.9040   -4.7780   19.4780 C.3   124  ASN124      0.1653
      3  C          8.4830   -5.6250   20.5790 C.2   124  ASN124      0.2266
      4  O          8.2960   -6.8550   20.6490 O.2   124  ASN124     -0.2867
      5  CB         7.4030   -5.6410   18.2980 C.3   124  ASN124      0.1155
      6  CG         6.3560   -4.9340   17.4730 C.2   124  ASN124      0.2627
      7  OD1        6.0750   -3.7340   17.6460 O.2   124  ASN124     -0.2716
      8  ND2        5.7840   -5.6800   16.5360 N.am  124  ASN124     -0.0877
      9  N          8.2960   -2.2080   24.5980 N.3   127  GLU127     -0.1245
     10  CA         7.0210   -1.4850   24.4890 C.3   127  GLU127      0.1567
     11  C          5.8010   -2.3860   24.2650 C.2   127  GLU127      0.2260
     12  O          4.6740   -1.8850   24.1870 O.2   127  GLU127     -0.2867
     13  CB         7.0880   -0.4160   23.3860 C.3   127  GLU127      0.0388
     14  CG         6.7750   -0.8500   21.9600 C.3   127  GLU127      0.1160
     15  CD         7.9170   -1.5400   21.2290 C.2   127  GLU127      0.3649
     16  OE1        8.7830   -2.2190   21.8390 O.co2 127  GLU127     -0.2457
     17  OE2        7.9450   -1.4260   19.9760 O.co2 127  GLU127     -0.2457
     18  N          2.7010   -4.5020   24.8620 N.3   129  VAL129     -0.1231
     19  CA         1.6700   -4.5340   25.8720 C.3   129  VAL129      0.1692
     20  C          0.4760   -5.3210   25.3490 C.2   129  VAL129      0.2592
     21  O          0.1620   -5.2690   24.1500 O.2   129  VAL129     -0.2718
     22  CB         1.2040   -3.1130   26.3070 C.3   129  VAL129      0.0266
     23  CG1        2.3200   -2.3750   27.0260 C.3   129  VAL129      0.0020
     24  CG2        0.7260   -2.2750   25.1370 C.3   129  VAL129      0.0020
     25  N         -0.1930   -6.0190   26.2640 N.am  130  ILE130     -0.1966
     26  CA        -1.4850   -6.6700   25.9830 C.3   130  ILE130      0.1727
     27  C         -2.5760   -5.7100   26.4530 C.2   130  ILE130      0.2616
     28  O         -2.6200   -5.3100   27.6390 O.2   130  ILE130     -0.2715
     29  CB        -1.6170   -8.0470   26.6810 C.3   130  ILE130      0.0290
     30  CG1       -0.4920   -9.0090   26.2580 C.3   130  ILE130      0.0022
     31  CG2       -3.0090   -8.6360   26.4410 C.3   130  ILE130      0.0023
     32  CD1       -0.3010   -9.2060   24.7630 C.3   130  ILE130      0.0001
     33  N         -3.4200   -5.2910   25.5200 N.am  131  VAL131     -0.1977
     34  CA        -4.4620   -4.3080   25.8220 C.3   131  VAL131      0.1596
     35  C         -5.8140   -4.9840   25.9230 C.2   131  VAL131      0.2287
     36  O         -6.3150   -5.5420   24.9440 O.2   131  VAL131     -0.2864
     37  CB        -4.5640   -3.1640   24.7710 C.3   131  VAL131      0.0276
     38  CG1       -5.5420   -2.0900   25.2100 C.3   131  VAL131      0.0022
     39  CG2       -3.2000   -2.5200   24.5250 C.3   131  VAL131      0.0022
     40  N          5.8110  -10.3240   25.0940 N.3   143  CYS143     -0.1221
     41  CA         4.3790  -10.5920   24.8220 C.3   143  CYS143      0.1808
     42  C          3.9280  -10.3680   23.3750 C.2   143  CYS143      0.2601
     43  O          2.8320  -10.7970   22.9750 O.2   143  CYS143     -0.2717
     44  CB         3.4240   -9.8990   25.8100 C.3   143  CYS143      0.0970
     45  SG         3.1400   -8.1340   25.5280 S.3   143  CYS143     -0.0800
     46  N          4.7800   -9.7450   22.5620 N.am  144  TRP144     -0.1962
     47  CA         4.5490   -9.7040   21.1170 C.3   144  TRP144      0.1771
     48  C          5.4790  -10.6200   20.3340 C.2   144  TRP144      0.2620
     49  O          5.6250  -10.4710   19.1150 O.2   144  TRP144     -0.2715
     50  CB         4.6110   -8.2820   20.5960 C.3   144  TRP144      0.0590
     51  CG         3.4850   -7.3720   21.0890 C.ar  144  TRP144      0.0006
     52  CD1        2.3410   -7.7260   21.7700 C.ar  144  TRP144      0.0946
     53  CD2        3.4040   -5.9510   20.9170 C.ar  144  TRP144      0.0152
     54  NE1        1.5790   -6.6040   22.0290 N.ar  144  TRP144     -0.2442
     55  CE2        2.1970   -5.5060   21.5030 C.ar  144  TRP144      0.0810
     56  CE3        4.2460   -4.9930   20.3130 C.ar  144  TRP144      0.0012
     57  CZ2        1.8160   -4.1590   21.5020 C.ar  144  TRP144      0.0191
     58  CZ3        3.8820   -3.6550   20.3300 C.ar  144  TRP144      0.0001
     59  CH2        2.6890   -3.2400   20.9330 C.ar  144  TRP144      0.0015
     60  N          6.1160  -11.5690   21.0140 N.am  145  GLY145     -0.1954
     61  CA         6.8520  -12.6230   20.3330 C.3   145  GLY145      0.1869
     62  C          8.3540  -12.5140   20.2300 C.2   145  GLY145      0.2309
     63  O          8.9980  -13.3930   19.6810 O.2   145  GLY145     -0.2863
     64  N          6.7390    4.8510   24.9840 N.3   210  HIS210     -0.1226
     65  CA         6.1430    4.5720   23.6600 C.3   210  HIS210      0.1752
     66  C          4.6250    4.6770   23.7620 C.2   210  HIS210      0.2596
     67  O          4.1030    5.2250   24.6940 O.2   210  HIS210     -0.2718
     68  CB         6.6320    3.2260   23.1460 C.3   210  HIS210      0.0759
     69  CG         6.7040    3.1120   21.6540 C.ar  210  HIS210      0.0818
     70  ND1        7.6510    3.7540   20.8920 N.ar  210  HIS210     -0.2268
     71  CD2        5.9740    2.3630   20.7880 C.ar  210  HIS210      0.1154
     72  CE1        7.5110    3.3990   19.6290 C.ar  210  HIS210      0.1986
     73  NE2        6.4890    2.5590   19.5420 N.ar  210  HIS210     -0.2212
     74  N          3.9390    4.1190   22.7860 N.am  211  TRP211     -0.1976
     75  CA         2.4830    4.2310   22.6560 C.3   211  TRP211      0.1640
     76  C          1.7490    3.6650   23.8890 C.2   211  TRP211      0.2290
     77  O          0.8870    4.3350   24.4760 O.2   211  TRP211     -0.2864
     78  CB         2.0720    3.4920   21.3710 C.3   211  TRP211      0.0576
     79  CG         0.5940    3.3140   21.1960 C.ar  211  TRP211      0.0006
     80  CD1       -0.3220    4.2890   20.8870 C.ar  211  TRP211      0.0946
     81  CD2       -0.1440    2.0770   21.3280 C.ar  211  TRP211      0.0152
     82  NE1       -1.5960    3.7170   20.8340 N.ar  211  TRP211     -0.2442
     83  CE2       -1.5110    2.3770   21.0950 C.ar  211  TRP211      0.0810
     84  CE3        0.2160    0.7620   21.6430 C.ar  211  TRP211      0.0012
     85  CZ2       -2.5240    1.3920   21.1600 C.ar  211  TRP211      0.0191
     86  CZ3       -0.7820   -0.2190   21.6860 C.ar  211  TRP211      0.0001
     87  CH2       -2.1460    0.1160   21.4520 C.ar  211  TRP211      0.0015
     88  N          6.3330    9.2280   21.8260 N.3   255  ASN255     -0.1225
     89  CA         6.3960    8.5880   20.5360 C.3   255  ASN255      0.1785
     90  C          5.5760    9.4230   19.5230 C.2   255  ASN255      0.2597
     91  O          6.0030   10.5280   19.1530 O.2   255  ASN255     -0.2718
     92  CB         6.0040    7.1140   20.6510 C.3   255  ASN255      0.1169
     93  CG         6.1890    6.3720   19.3660 C.2   255  ASN255      0.2627
     94  OD1        7.2080    6.5400   18.6950 O.2   255  ASN255     -0.2716
     95  ND2        5.1860    5.5840   18.9850 N.am  255  ASN255     -0.0877
     96  N          4.4160    8.9110   19.0850 N.am  256  GLU256     -0.1979
     97  CA         3.5940    9.5330   18.0350 C.3   256  GLU256      0.1602
     98  C          2.2990   10.0860   18.6560 C.2   256  GLU256      0.2287
     99  O          1.2420    9.4070   18.6830 O.2   256  GLU256     -0.2864
    100  CB         3.2860    8.5500   16.9020 C.3   256  GLU256      0.0415
    101  CG         4.5430    8.0450   16.1920 C.3   256  GLU256      0.1163
    102  CD         4.2570    7.0420   15.0990 C.2   256  GLU256      0.3649
    103  OE1        3.0680    6.6100   14.9800 O.co2 256  GLU256     -0.2457
    104  OE2        5.2100    6.6950   14.3510 O.co2 256  GLU256     -0.2457
    105  N          7.5670    7.0920    6.9130 N.3   332  TYR332     -0.1241
    106  CA         7.0330    5.8640    6.3370 C.3   332  TYR332      0.1605
    107  C          6.3810    6.1110    4.9520 C.2   332  TYR332      0.2264
    108  O          5.6860    5.2500    4.4070 O.2   332  TYR332     -0.2867
    109  CB         6.0550    5.2180    7.2850 C.3   332  TYR332      0.0534
    110  CG         6.7010    4.5490    8.4740 C.ar  332  TYR332     -0.0201
    111  CD1        7.3980    3.3810    8.3190 C.ar  332  TYR332     -0.0009
    112  CD2        6.5480    5.0490    9.7670 C.ar  332  TYR332     -0.0009
    113  CE1        7.9340    2.7080    9.4070 C.ar  332  TYR332      0.0417
    114  CE2        7.0880    4.3980   10.8620 C.ar  332  TYR332      0.0417
    115  CZ         7.7580    3.2010   10.6840 C.ar  332  TYR332      0.1957
    116  OH         8.2320    2.4770   11.7570 O.3   332  TYR332     -0.2866
    117  N          2.9370    5.3080    2.5820 N.3   335  TYR335     -0.1241
    118  CA         2.3410    4.3750    3.5000 C.3   335  TYR335      0.1605
    119  C          1.8700    3.0780    2.8180 C.2   335  TYR335      0.2264
    120  O          2.0140    1.9770    3.3640 O.2   335  TYR335     -0.2867
    121  CB         1.1940    5.0890    4.2170 C.3   335  TYR335      0.0534
    122  CG         0.3930    4.2040    5.1140 C.ar  335  TYR335     -0.0201
    123  CD1        0.7710    3.9790    6.4280 C.ar  335  TYR335     -0.0009
    124  CD2       -0.7450    3.5830    4.6460 C.ar  335  TYR335     -0.0009
    125  CE1        0.0240    3.1570    7.2490 C.ar  335  TYR335      0.0417
    126  CE2       -1.4930    2.7510    5.4620 C.ar  335  TYR335      0.0417
    127  CZ        -1.0920    2.5400    6.7570 C.ar  335  TYR335      0.1957
    128  OH        -1.8260    1.7410    7.5880 O.3   335  TYR335     -0.2866
    129  N          3.9210    0.2000    5.0570 N.3   339  ILE339     -0.1245
    130  CA         3.3060   -0.3970    6.2420 C.3   339  ILE339      0.1561
    131  C          1.8040   -0.6630    6.1610 C.2   339  ILE339      0.2260
    132  O          1.2050   -1.1860    7.0970 O.2   339  ILE339     -0.2867
    133  CB         3.6370    0.4050    7.5210 C.3   339  ILE339      0.0252
    134  CG1        3.2180    1.8580    7.4090 C.3   339  ILE339      0.0019
    135  CG2        5.1210    0.2520    7.8620 C.3   339  ILE339      0.0019
    136  CD1        3.3130    2.6260    8.7310 C.3   339  ILE339      0.0001
    137  N         12.1890    6.2770   13.1760 N.3   389  GLU389     -0.1245
    138  CA        11.7230    5.0430   12.5450 C.3   389  GLU389      0.1567
    139  C         11.5640    5.2960   11.0510 C.2   389  GLU389      0.2260
    140  O         11.0540    6.3380   10.6590 O.2   389  GLU389     -0.2867
    141  CB        10.3420    4.5730   13.0740 C.3   389  GLU389      0.0388
    142  CG        10.2200    4.3750   14.5780 C.3   389  GLU389      0.1160
    143  CD         8.8340    3.9720   15.0260 C.2   389  GLU389      0.3649
    144  OE1        7.9850    3.5690   14.1940 O.co2 389  GLU389     -0.2457
    145  OE2        8.5850    4.0660   16.2500 O.co2 389  GLU389     -0.2457
    146  N         13.2650    0.4750   11.4000 N.3   431  TRP431     -0.1241
    147  CA        12.2480   -0.2070   12.1810 C.3   431  TRP431      0.1605
    148  C         12.3570   -1.7240   12.0410 C.2   431  TRP431      0.2264
    149  O         11.9120   -2.3260   11.0650 O.2   431  TRP431     -0.2867
    150  CB        10.8320    0.2620   11.7980 C.3   431  TRP431      0.0550
    151  CG         9.8070   -0.3810   12.6970 C.ar  431  TRP431      0.0003
    152  CD1        8.8820   -1.3350   12.3400 C.ar  431  TRP431      0.0946
    153  CD2        9.6290   -0.1740   14.1200 C.ar  431  TRP431      0.0152
    154  NE1        8.1470   -1.7100   13.4430 N.ar  431  TRP431     -0.2442
    155  CE2        8.5930   -1.0390   14.5530 C.ar  431  TRP431      0.0810
    156  CE3       10.2470    0.6340   15.0570 C.ar  431  TRP431      0.0012
    157  CZ2        8.1700   -1.1010   15.8930 C.ar  431  TRP431      0.0191
    158  CZ3        9.8220    0.5960   16.3810 C.ar  431  TRP431      0.0001
    159  CH2        8.7810   -0.2600   16.7860 C.ar  431  TRP431      0.0015
    160  N         11.0990   -4.9610   14.0290 N.3   433  ALA433     -0.1245
    161  CA        10.1360   -5.4110   15.0350 C.3   433  ALA433      0.1562
    162  C         10.2780   -6.9160   15.2950 C.2   433  ALA433      0.2260
    163  O          9.4310   -7.5130   15.9450 O.2   433  ALA433     -0.2867
    164  CB         8.7240   -5.0940   14.5640 C.3   433  ALA433      0.0290
    165  N          9.9650   -9.2860   13.2110 N.3   435  TYR435     -0.1241
    166  CA         9.0880  -10.0460   12.3140 C.3   435  TYR435      0.1605
    167  C          9.7460  -10.0960   10.9220 C.2   435  TYR435      0.2264
    168  O         10.9720  -10.1390   10.8220 O.2   435  TYR435     -0.2867
    169  CB         7.6730   -9.4590   12.3650 C.3   435  TYR435      0.0534
    170  CG         6.6180  -10.2540   11.6610 C.ar  435  TYR435     -0.0201
    171  CD1        6.3550  -11.5710   11.9890 C.ar  435  TYR435     -0.0009
    172  CD2        5.8670   -9.6650   10.6250 C.ar  435  TYR435     -0.0009
    173  CE1        5.3580  -12.2870   11.3120 C.ar  435  TYR435      0.0417
    174  CE2        4.8910  -10.3790    9.9570 C.ar  435  TYR435      0.0417
    175  CZ         4.6490  -11.6790   10.2950 C.ar  435  TYR435      0.1957
    176  OH         3.6750  -12.3780    9.6160 O.3   435  TYR435     -0.2866
    177  N         10.3460   -8.1200    8.5500 N.3   437  GLU437     -0.1245
    178  CA        11.1800   -6.9640    8.2020 C.3   437  GLU437      0.1567
    179  C         12.4990   -6.9120    8.9960 C.2   437  GLU437      0.2260
    180  O         13.2880   -6.0060    8.8480 O.2   437  GLU437     -0.2867
    181  CB        10.4180   -5.6690    8.5100 C.3   437  GLU437      0.0388
    182  CG        10.3340   -5.2640    9.9950 C.3   437  GLU437      0.1160
    183  CD         9.7340   -6.3470   10.8900 C.2   437  GLU437      0.3649
    184  OE1        8.6460   -6.8730   10.5340 O.co2 437  GLU437     -0.2457
    185  OE2       10.3030   -6.6310   11.9570 O.co2 437  GLU437     -0.2457
@<TRIPOS>BOND
     1   117   118    1
     2   119   120    2
     3   119   118    1
     4   118   121    1
     5   121   122    1
     6   108   107    2
     7   124   122   ar
     8   124   126   ar
     9   107   106    1
    10   129   130    1
    11   122   123   ar
    12   126   127   ar
    13   131   130    1
    14   131   132    2
    15   130   133    1
    16   106   105    1
    17   106   109    1
    18   123   125   ar
    19   127   125   ar
    20   127   128    1
    21   109   110    1
    22   134   133    1
    23   134   136    1
    24   133   135    1
    25   178   181    1
    26   178   177    1
    27   178   179    1
    28   111   110   ar
    29   111   113   ar
    30   110   112   ar
    31   181   182    1
    32   180   179    2
    33   113   115   ar
    34   176   175    1
    35   112   114   ar
    36   174   175   ar
    37   174   172   ar
    38   182   183    1
    39   175   173   ar
    40   184   183   ar
    41   172   170   ar
    42   140   139    2
    43   115   114   ar
    44   115   116    1
    45   168   167    2
    46   183   185   ar
    47   167   166    1
    48   139   138    1
    49   149   148    2
    50   173   171   ar
    51   146   147    1
    52   170   171   ar
    53   170   169    1
    54   150   147    1
    55   150   151    1
    56   148   147    1
    57   166   169    1
    58   166   165    1
    59   152   151   ar
    60   152   154   ar
    61   138   141    1
    62   138   137    1
    63   151   153   ar
    64   141   142    1
    65   154   155   ar
    66   160   161    1
    67   153   155   ar
    68   153   156   ar
    69   144   143   ar
    70   104   102   ar
    71   155   157   ar
    72   164   161    1
    73   142   143    1
    74   103   102   ar
    75   143   145   ar
    76   161   162    1
    77   156   158   ar
    78   102   101    1
    79   162   163    2
    80   157   159   ar
    81   101   100    1
    82   158   159   ar
    83     8     6   am
    84   100    97    1
    85     6     7    2
    86     6     5    1
    87    97    98    1
    88    97    96    1
    89     5     2    1
    90    98    99    2
    91    94    93    2
    92    95    93   am
    93     1     2    1
    94    96    90   am
    95    49    48    2
    96    91    90    2
    97    93    92    1
    98     2     3    1
    99    90    89    1
   100    73    72   ar
   101    73    71   ar
   102    72    70   ar
   103    63    62    2
   104    17    15   ar
   105    62    61    1
   106    56    58   ar
   107    56    53   ar
   108    58    59   ar
   109    61    60    1
   110    48    60   am
   111    48    47    1
   112    89    92    1
   113    89    88    1
   114     3     4    2
   115    50    51    1
   116    50    47    1
   117    71    69   ar
   118    82    80   ar
   119    82    83   ar
   120    80    79   ar
   121    70    69   ar
   122    53    51   ar
   123    53    55   ar
   124    59    57   ar
   125    51    52   ar
   126    83    85   ar
   127    83    81   ar
   128    47    46    1
   129    85    87   ar
   130    79    81   ar
   131    79    78    1
   132    15    16   ar
   133    15    14    1
   134    81    84   ar
   135    78    75    1
   136    87    86   ar
   137    57    55   ar
   138    55    54   ar
   139    84    86   ar
   140    69    68    1
   141    52    54   ar
   142    14    13    1
   143    46    42   am
   144    75    74    1
   145    75    76    1
   146    74    66   am
   147    43    42    2
   148    68    65    1
   149    42    41    1
   150    13    10    1
   151    65    66    1
   152    65    64    1
   153    66    67    2
   154    76    77    2
   155    21    20    2
   156    12    11    2
   157    11    10    1
   158    10     9    1
   159    39    37    1
   160    32    30    1
   161    37    38    1
   162    37    34    1
   163    41    40    1
   164    41    44    1
   165    18    19    1
   166    36    35    2
   167    24    22    1
   168    20    19    1
   169    20    25   am
   170    33    34    1
   171    33    27   am
   172    45    44    1
   173    34    35    1
   174    19    22    1
   175    26    25    1
   176    26    27    1
   177    26    29    1
   178    30    29    1
   179    22    23    1
   180    31    29    1
   181    27    28    2
