@<TRIPOS>MOLECULE
tmp/3zmrA01.pdb
 143 141 0 0 0
SMALL
GASTEIGER

@<TRIPOS>ATOM
      1  N        -20.7750   27.2500  -25.0880 N.3   124  ASN124     -0.1240
      2  CA       -22.2440   27.4060  -25.1050 C.3   124  ASN124      0.1653
      3  C        -22.9580   26.2260  -24.4670 C.2   124  ASN124      0.2266
      4  O        -24.0200   25.7580  -24.9170 O.2   124  ASN124     -0.2867
      5  CB       -22.7680   27.6630  -26.5100 C.3   124  ASN124      0.1155
      6  CG       -22.5590   29.0920  -26.9710 C.2   124  ASN124      0.2627
      7  OD1      -21.8760   29.9040  -26.3450 O.2   124  ASN124     -0.2716
      8  ND2      -23.1450   29.4000  -28.1390 N.am  124  ASN124     -0.0877
      9  N        -26.9170   30.4960  -20.1960 N.3   129  VAL129     -0.1231
     10  CA       -27.8850   31.1070  -19.2870 C.3   129  VAL129      0.1692
     11  C        -28.9640   31.8150  -20.1350 C.2   129  VAL129      0.2592
     12  O        -28.6680   32.3860  -21.1720 O.2   129  VAL129     -0.2718
     13  CB       -27.2300   32.1100  -18.3010 C.3   129  VAL129      0.0266
     14  CG1      -26.4120   31.3660  -17.2550 C.3   129  VAL129      0.0020
     15  CG2      -26.4080   33.1730  -19.0430 C.3   129  VAL129      0.0020
     16  N        -30.2020   31.7510  -19.6590 N.am  130  ILE130     -0.1966
     17  CA       -31.2710   32.5800  -20.2000 C.3   130  ILE130      0.1727
     18  C        -31.2550   33.8500  -19.3410 C.2   130  ILE130      0.2616
     19  O        -31.3510   33.7920  -18.1090 O.2   130  ILE130     -0.2715
     20  CB       -32.6220   31.8560  -20.1630 C.3   130  ILE130      0.0290
     21  CG1      -32.5670   30.5220  -20.9350 C.3   130  ILE130      0.0022
     22  CG2      -33.7340   32.7760  -20.6450 C.3   130  ILE130      0.0023
     23  CD1      -32.1250   30.5910  -22.3690 C.3   130  ILE130      0.0001
     24  N        -31.0920   34.9870  -20.0040 N.am  131  VAL131     -0.1977
     25  CA       -30.9440   36.2680  -19.3170 C.3   131  VAL131      0.1596
     26  C        -32.1690   37.1400  -19.5640 C.2   131  VAL131      0.2287
     27  O        -32.4840   37.4850  -20.6970 O.2   131  VAL131     -0.2864
     28  CB       -29.6870   37.0400  -19.7760 C.3   131  VAL131      0.0276
     29  CG1      -29.4960   38.2890  -18.9280 C.3   131  VAL131      0.0022
     30  CG2      -28.4580   36.1700  -19.6800 C.3   131  VAL131      0.0022
     31  N        -29.5540   24.9800  -22.4490 N.3   143  CYS143     -0.1221
     32  CA       -30.4840   26.0580  -22.8320 C.3   143  CYS143      0.1808
     33  C        -30.0630   26.8610  -24.0630 C.2   143  CYS143      0.2601
     34  O        -30.8410   27.6710  -24.5870 O.2   143  CYS143     -0.2717
     35  CB       -30.8380   26.9830  -21.6690 C.3   143  CYS143      0.0970
     36  SG       -29.6040   28.1540  -21.1310 S.3   143  CYS143     -0.0800
     37  N        -28.8200   26.6640  -24.5040 N.am  144  TRP144     -0.1962
     38  CA       -28.3520   27.2460  -25.7830 C.3   144  TRP144      0.1771
     39  C        -28.2020   26.1970  -26.8770 C.2   144  TRP144      0.2620
     40  O        -27.5470   26.4450  -27.8810 O.2   144  TRP144     -0.2715
     41  CB       -27.0620   28.0340  -25.5750 C.3   144  TRP144      0.0590
     42  CG       -27.2160   29.3110  -24.7800 C.ar  144  TRP144      0.0006
     43  CD1      -28.3940   29.9030  -24.3340 C.ar  144  TRP144      0.0946
     44  CD2      -26.1560   30.1860  -24.3540 C.ar  144  TRP144      0.0152
     45  NE1      -28.1170   31.0680  -23.6570 N.ar  144  TRP144     -0.2442
     46  CE2      -26.7510   31.2630  -23.6500 C.ar  144  TRP144      0.0810
     47  CE3      -24.7510   30.1480  -24.4810 C.ar  144  TRP144      0.0012
     48  CZ2      -25.9980   32.2670  -23.0870 C.ar  144  TRP144      0.0191
     49  CZ3      -24.0140   31.1620  -23.9040 C.ar  144  TRP144      0.0001
     50  CH2      -24.6270   32.1950  -23.2320 C.ar  144  TRP144      0.0015
     51  N        -28.7900   25.0230  -26.6690 N.am  145  GLY145     -0.1954
     52  CA       -28.9430   24.0430  -27.7380 C.3   145  GLY145      0.1869
     53  C        -27.9800   22.8780  -27.7640 C.2   145  GLY145      0.2309
     54  O        -28.0660   22.0290  -28.6560 O.2   145  GLY145     -0.2863
     55  N        -17.8190   32.0120  -15.9620 N.3   210  HIS210     -0.1226
     56  CA       -17.8610   32.6830  -17.2500 C.3   210  HIS210      0.1752
     57  C        -18.7070   33.9580  -17.1190 C.2   210  HIS210      0.2596
     58  O        -18.9850   34.4200  -16.0050 O.2   210  HIS210     -0.2718
     59  CB       -18.4220   31.7250  -18.3110 C.3   210  HIS210      0.0759
     60  CG       -17.9470   31.9800  -19.7120 C.ar  210  HIS210      0.0818
     61  ND1      -16.6580   31.7300  -20.0970 N.ar  210  HIS210     -0.2268
     62  CD2      -18.5990   32.4260  -20.8250 C.ar  210  HIS210      0.1154
     63  CE1      -16.5230   31.9930  -21.3900 C.ar  210  HIS210      0.1986
     64  NE2      -17.7000   32.4030  -21.8630 N.ar  210  HIS210     -0.2212
     65  N        -19.1410   34.5040  -18.2450 N.am  211  TRP211     -0.1976
     66  CA       -19.8860   35.7660  -18.3020 C.3   211  TRP211      0.1640
     67  C        -21.1570   35.7510  -17.4400 C.2   211  TRP211      0.2290
     68  O        -21.3880   36.6390  -16.6350 O.2   211  TRP211     -0.2864
     69  CB       -20.2650   36.0180  -19.7670 C.3   211  TRP211      0.0576
     70  CG       -21.1830   37.1880  -19.9910 C.ar  211  TRP211      0.0006
     71  CD1      -20.8980   38.5370  -19.8590 C.ar  211  TRP211      0.0946
     72  CD2      -22.5680   37.1110  -20.3800 C.ar  211  TRP211      0.0152
     73  NE1      -22.0270   39.2910  -20.1380 N.ar  211  TRP211     -0.2442
     74  CE2      -23.0460   38.4430  -20.4850 C.ar  211  TRP211      0.0810
     75  CE3      -23.4290   36.0500  -20.7040 C.ar  211  TRP211      0.0012
     76  CZ2      -24.3370   38.7310  -20.8920 C.ar  211  TRP211      0.0191
     77  CZ3      -24.7280   36.3530  -21.0950 C.ar  211  TRP211      0.0001
     78  CH2      -25.1600   37.6590  -21.1780 C.ar  211  TRP211      0.0015
     79  N        -13.6930   35.4230  -16.8440 N.3   255  ASN255     -0.1225
     80  CA       -13.6740   35.3560  -18.2890 C.3   255  ASN255      0.1785
     81  C        -13.2030   36.7140  -18.8440 C.2   255  ASN255      0.2597
     82  O        -12.0380   37.0630  -18.6640 O.2   255  ASN255     -0.2718
     83  CB       -15.0280   34.9020  -18.8190 C.3   255  ASN255      0.1169
     84  CG       -15.0130   34.6470  -20.3110 C.2   255  ASN255      0.2627
     85  OD1      -14.0890   34.0290  -20.8270 O.2   255  ASN255     -0.2716
     86  ND2      -16.0450   35.1120  -21.0130 N.am  255  ASN255     -0.0877
     87  N        -14.1070   37.4830  -19.4770 N.am  256  GLU256     -0.1979
     88  CA       -13.7730   38.7430  -20.1620 C.3   256  GLU256      0.1602
     89  C        -14.3190   39.9350  -19.3670 C.2   256  GLU256      0.2287
     90  O        -15.4200   40.4210  -19.6360 O.2   256  GLU256     -0.2864
     91  CB       -14.2820   38.7690  -21.6210 C.3   256  GLU256      0.0415
     92  CG       -13.6920   37.7060  -22.5160 C.3   256  GLU256      0.1163
     93  CD       -14.1830   37.7650  -23.9420 C.2   256  GLU256      0.3649
     94  OE1      -15.1020   38.6080  -24.2070 O.co2 256  GLU256     -0.2457
     95  OE2      -13.6690   36.9410  -24.7600 O.co2 256  GLU256     -0.2457
     96  N        -15.9300   36.6800  -36.0570 N.3   339  ILE339     -0.1245
     97  CA       -17.1370   36.5510  -35.2370 C.3   339  ILE339      0.1561
     98  C        -18.1860   37.6610  -35.4190 C.2   339  ILE339      0.2260
     99  O        -19.2540   37.6220  -34.8040 O.2   339  ILE339     -0.2867
    100  CB       -16.7990   36.3510  -33.7410 C.3   339  ILE339      0.0252
    101  CG1      -16.0000   37.5100  -33.2050 C.3   339  ILE339      0.0019
    102  CG2      -16.0490   35.0280  -33.4940 C.3   339  ILE339      0.0019
    103  CD1      -15.9030   37.4670  -31.6850 C.3   339  ILE339      0.0001
    104  N         -9.5370   31.2220  -26.0590 N.3   389  GLU389     -0.1245
    105  CA       -10.4730   31.1290  -27.1580 C.3   389  GLU389      0.1567
    106  C         -9.8610   31.7600  -28.4000 C.2   389  GLU389      0.2260
    107  O         -9.2700   32.8270  -28.3190 O.2   389  GLU389     -0.2867
    108  CB       -11.7860   31.8650  -26.8670 C.3   389  GLU389      0.0388
    109  CG       -12.5240   31.4490  -25.6190 C.3   389  GLU389      0.1160
    110  CD       -13.7860   32.2510  -25.3690 C.2   389  GLU389      0.3649
    111  OE1      -14.2870   32.9220  -26.3080 O.co2 389  GLU389     -0.2457
    112  OE2      -14.2740   32.2290  -24.1970 O.co2 389  GLU389     -0.2457
    113  N        -12.4990   27.7330  -30.1530 N.3   431  TRP431     -0.1241
    114  CA       -13.8670   28.0240  -29.7180 C.3   431  TRP431      0.1605
    115  C        -14.8690   27.1640  -30.4790 C.2   431  TRP431      0.2264
    116  O        -15.2220   27.4550  -31.6190 O.2   431  TRP431     -0.2867
    117  CB       -14.2160   29.5150  -29.8580 C.3   431  TRP431      0.0550
    118  CG       -15.5760   29.7890  -29.3040 C.ar  431  TRP431      0.0003
    119  CD1      -16.6940   30.1320  -30.0200 C.ar  431  TRP431      0.0946
    120  CD2      -16.0060   29.7020  -27.9280 C.ar  431  TRP431      0.0152
    121  NE1      -17.7540   30.2750  -29.1780 N.ar  431  TRP431     -0.2442
    122  CE2      -17.3880   30.0030  -27.8980 C.ar  431  TRP431      0.0810
    123  CE3      -15.3740   29.3890  -26.7470 C.ar  431  TRP431      0.0012
    124  CZ2      -18.1520   30.0160  -26.7040 C.ar  431  TRP431      0.0191
    125  CZ3      -16.1230   29.4000  -25.5620 C.ar  431  TRP431      0.0001
    126  CH2      -17.4900   29.7170  -25.5470 C.ar  431  TRP431      0.0015
    127  N        -18.6440   25.9780  -30.1330 N.3   433  ALA433     -0.1245
    128  CA       -19.9000   26.3200  -29.4260 C.3   433  ALA433      0.1562
    129  C        -21.0270   25.3680  -29.8100 C.2   433  ALA433      0.2260
    130  O        -22.1880   25.5970  -29.4580 O.2   433  ALA433     -0.2867
    131  CB       -20.3120   27.7550  -29.7050 C.3   433  ALA433      0.0290
    132  N        -22.2200   24.8080  -32.7540 N.3   435  TYR435     -0.1241
    133  CA       -22.9970   25.3560  -33.8820 C.3   435  TYR435      0.1605
    134  C        -22.1630   25.1160  -35.1610 C.2   435  TYR435      0.2264
    135  O        -21.4320   24.1110  -35.2520 O.2   435  TYR435     -0.2867
    136  CB       -23.3940   26.8270  -33.6090 C.3   435  TYR435      0.0534
    137  CG       -24.3360   27.4420  -34.6200 C.ar  435  TYR435     -0.0201
    138  CD1      -25.5280   26.8260  -34.9300 C.ar  435  TYR435     -0.0009
    139  CD2      -24.0130   28.6390  -35.2670 C.ar  435  TYR435     -0.0009
    140  CE1      -26.4090   27.3800  -35.8660 C.ar  435  TYR435      0.0417
    141  CE2      -24.8560   29.1800  -36.2210 C.ar  435  TYR435      0.0417
    142  CZ       -26.0610   28.5530  -36.5040 C.ar  435  TYR435      0.1957
    143  OH       -26.8780   29.0870  -37.4680 O.3   435  TYR435     -0.2866
@<TRIPOS>BOND
     1   143   142    1
     2   142   141   ar
     3   142   140   ar
     4   141   139   ar
     5    96    97    1
     6   140   138   ar
     7    98    97    1
     8    98    99    2
     9   139   137   ar
    10   135   134    2
    11    97   100    1
    12   134   133    1
    13   138   137   ar
    14   137   136    1
    15   133   136    1
    16   133   132    1
    17   100   102    1
    18   100   101    1
    19   101   103    1
    20   116   115    2
    21   115   114    1
    22   113   114    1
    23   127   128    1
    24   119   118   ar
    25   119   121   ar
    26   117   114    1
    27   117   118    1
    28   129   130    2
    29   129   128    1
    30   131   128    1
    31   118   120   ar
    32   121   122   ar
    33    54    53    2
    34   106   107    2
    35   106   105    1
    36     8     6   am
    37   120   122   ar
    38   120   123   ar
    39   122   124   ar
    40    40    39    2
    41    53    52    1
    42    52    51    1
    43   105   108    1
    44   105   104    1
    45     6     5    1
    46     6     7    2
    47    39    51   am
    48    39    38    1
    49   108   109    1
    50   123   125   ar
    51   124   126   ar
    52     5     2    1
    53   111   110   ar
    54    38    41    1
    55    38    37    1
    56   109   110    1
    57    41    42    1
    58   125   126   ar
    59   110   112   ar
    60     2     1    1
    61     2     3    1
    62     4     3    2
    63    42    44   ar
    64    42    43   ar
    65    95    93   ar
    66    34    33    2
    67    37    33   am
    68    47    44   ar
    69    47    49   ar
    70    44    46   ar
    71    43    45   ar
    72    94    93   ar
    73    33    32    1
    74    93    92    1
    75    49    50   ar
    76    45    46   ar
    77    46    48   ar
    78    50    48   ar
    79    32    31    1
    80    32    35    1
    81    92    91    1
    82    23    21    1
    83    64    63   ar
    84    64    62   ar
    85    35    36    1
    86    91    88    1
    87    63    61   ar
    88    78    77   ar
    89    78    76   ar
    90    12    11    2
    91    77    75   ar
    92    86    84   am
    93    21    20    1
    94    76    74   ar
    95    85    84    2
    96    62    60   ar
    97    75    72   ar
    98    27    26    2
    99    22    20    1
   100    74    72   ar
   101    74    73   ar
   102    72    70   ar
   103    84    83    1
   104    17    20    1
   105    17    16    1
   106    17    18    1
   107     9    10    1
   108    88    87    1
   109    88    89    1
   110    73    71   ar
   111    11    16   am
   112    11    10    1
   113    61    60   ar
   114    24    18   am
   115    24    25    1
   116    70    71   ar
   117    70    69    1
   118    28    30    1
   119    28    25    1
   120    28    29    1
   121    69    66    1
   122    60    59    1
   123    90    89    2
   124    26    25    1
   125    87    81   am
   126    18    19    2
   127    10    13    1
   128    15    13    1
   129    81    82    2
   130    81    80    1
   131    83    80    1
   132    59    56    1
   133    66    65    1
   134    66    67    1
   135    13    14    1
   136    80    79    1
   137    65    57   am
   138    67    68    2
   139    56    57    1
   140    56    55    1
   141    57    58    2
