@<TRIPOS>MOLECULE
tmp/3zmvA00.pdb
 252 245 0 0 0
SMALL
GASTEIGER

@<TRIPOS>ATOM
      1  N        -13.0600   53.4520  -34.8570 N.3   162  VAL162     -0.1245
      2  CA       -13.3100   52.0980  -34.3960 C.3   162  VAL162      0.1561
      3  C        -13.3190   51.9970  -32.8730 C.2   162  VAL162      0.2260
      4  O        -12.5960   52.7190  -32.1840 O.2   162  VAL162     -0.2867
      5  CB       -12.2750   51.1130  -34.9900 C.3   162  VAL162      0.0252
      6  CG1      -12.5060   49.6970  -34.4870 C.3   162  VAL162      0.0019
      7  CG2      -12.3180   51.1380  -36.5120 C.3   162  VAL162      0.0019
      8  N        -12.3120   49.2410  -30.3320 N.3   164  THR164     -0.1218
      9  CA       -11.5150   48.0170  -30.4580 C.3   164  THR164      0.1862
     10  C        -11.8890   46.9270  -29.4490 C.2   164  THR164      0.2287
     11  O        -11.0510   46.4860  -28.6480 O.2   164  THR164     -0.2866
     12  CB        -9.9900   48.2940  -30.4350 C.3   164  THR164      0.1770
     13  OG1       -9.6000   48.7880  -29.1490 O.3   164  THR164     -0.2211
     14  CG2       -9.5960   49.3000  -31.5180 C.3   164  THR164      0.0375
     15  N        -14.1660   41.3590  -40.9180 N.3   187  GLN187     -0.1245
     16  CA       -12.7280   41.4870  -41.1560 C.3   187  GLN187      0.1566
     17  C        -12.2750   40.9220  -42.5110 C.2   187  GLN187      0.2260
     18  O        -11.0790   40.9030  -42.8100 O.2   187  GLN187     -0.2867
     19  CB       -11.9290   40.8670  -39.9970 C.3   187  GLN187      0.0367
     20  CG       -12.1560   41.5230  -38.6330 C.3   187  GLN187      0.0905
     21  CD       -11.4750   42.8810  -38.4720 C.2   187  GLN187      0.2608
     22  OE1      -12.1260   43.8830  -38.1680 O.2   187  GLN187     -0.2717
     23  NE2      -10.1580   42.9160  -38.6630 N.am  187  GLN187     -0.0878
     24  N        -11.2720   41.1650  -45.9540 N.3   189  CYS189     -0.1235
     25  CA       -10.7250   42.2710  -46.7320 C.3   189  CYS189      0.1677
     26  C        -10.0380   41.8060  -48.0200 C.2   189  CYS189      0.2270
     27  O         -8.8640   41.4240  -47.9950 O.2   189  CYS189     -0.2867
     28  CB        -9.7550   43.0870  -45.8750 C.3   189  CYS189      0.0956
     29  SG        -9.2430   44.6320  -46.6520 S.3   189  CYS189     -0.0801
     30  N          3.7820   37.4160  -44.1190 N.3   211  PHE211     -0.1227
     31  CA         3.7770   38.6610  -43.3460 C.3   211  PHE211      0.1736
     32  C          3.8990   38.3730  -41.8480 C.2   211  PHE211      0.2595
     33  O          4.8270   38.8520  -41.1880 O.2   211  PHE211     -0.2718
     34  CB         2.5160   39.4850  -43.6480 C.3   211  PHE211      0.0547
     35  CG         2.2990   40.6400  -42.7060 C.ar  211  PHE211     -0.0202
     36  CD1        2.9490   41.8520  -42.9050 C.ar  211  PHE211     -0.0042
     37  CD2        1.4360   40.5190  -41.6190 C.ar  211  PHE211     -0.0042
     38  CE1        2.7470   42.9170  -42.0390 C.ar  211  PHE211     -0.0003
     39  CE2        1.2330   41.5800  -40.7480 C.ar  211  PHE211     -0.0003
     40  CZ         1.8890   42.7800  -40.9580 C.ar  211  PHE211     -0.0000
     41  N          2.9640   37.5770  -41.3300 N.am  212  ASN212     -0.1974
     42  CA         2.9390   37.2060  -39.9180 C.3   212  ASN212      0.1688
     43  C          4.1930   36.4580  -39.5080 C.2   212  ASN212      0.2292
     44  O          4.6770   36.6070  -38.3830 O.2   212  ASN212     -0.2864
     45  CB         1.7030   36.3630  -39.6140 C.3   212  ASN212      0.1181
     46  CG         0.4270   37.1710  -39.6730 C.2   212  ASN212      0.2629
     47  OD1        0.0920   37.8890  -38.7330 O.2   212  ASN212     -0.2716
     48  ND2       -0.2910   37.0620  -40.7820 N.am  212  ASN212     -0.0877
     49  N          7.0740   38.9250  -39.0380 N.3   215  LEU215     -0.1245
     50  CA         6.9380   39.6250  -37.7580 C.3   215  LEU215      0.1561
     51  C          7.4660   38.8310  -36.5690 C.2   215  LEU215      0.2260
     52  O          8.2070   39.3680  -35.7450 O.2   215  LEU215     -0.2867
     53  CB         5.4900   40.0420  -37.5090 C.3   215  LEU215      0.0270
     54  CG         5.0640   41.3610  -38.1460 C.3   215  LEU215      0.0019
     55  CD1        3.5960   41.6360  -37.8590 C.3   215  LEU215      0.0001
     56  CD2        5.9330   42.5030  -37.6420 C.3   215  LEU215      0.0001
     57  N          1.6030   46.0020  -49.1450 N.3   360  TRP360     -0.1227
     58  CA         0.2700   46.3690  -48.6870 C.3   360  TRP360      0.1737
     59  C          0.0990   46.0200  -47.2380 C.2   360  TRP360      0.2595
     60  O         -0.3580   46.8450  -46.4440 O.2   360  TRP360     -0.2718
     61  CB        -0.8100   45.6850  -49.5060 C.3   360  TRP360      0.0564
     62  CG        -2.1910   46.1150  -49.0790 C.ar  360  TRP360      0.0003
     63  CD1       -2.9500   47.1570  -49.6000 C.ar  360  TRP360      0.0946
     64  CD2       -3.0090   45.5520  -47.9960 C.ar  360  TRP360      0.0152
     65  NE1       -4.1490   47.2620  -48.9460 N.ar  360  TRP360     -0.2442
     66  CE2       -4.2500   46.3360  -47.9710 C.ar  360  TRP360      0.0810
     67  CE3       -2.8480   44.5130  -47.0840 C.ar  360  TRP360      0.0012
     68  CZ2       -5.2720   46.0720  -47.0690 C.ar  360  TRP360      0.0191
     69  CZ3       -3.8810   44.2590  -46.1730 C.ar  360  TRP360      0.0001
     70  CH2       -5.0670   45.0200  -46.1700 C.ar  360  TRP360      0.0015
     71  N          0.4600   44.7920  -46.8800 N.am  361  HIS361     -0.1975
     72  CA         0.4150   44.3610  -45.4860 C.3   361  HIS361      0.1656
     73  C          1.2290   45.2310  -44.5710 C.2   361  HIS361      0.2291
     74  O          0.8400   45.4630  -43.4260 O.2   361  HIS361     -0.2864
     75  CB         0.8450   42.9120  -45.3590 C.3   361  HIS361      0.0771
     76  CG        -0.2240   41.9340  -45.7460 C.ar  361  HIS361      0.0820
     77  ND1       -1.1740   41.5310  -44.8890 N.ar  361  HIS361     -0.2267
     78  CD2       -0.4750   41.2820  -46.9500 C.ar  361  HIS361      0.1154
     79  CE1       -1.9940   40.6610  -45.5070 C.ar  361  HIS361      0.1986
     80  NE2       -1.5630   40.5070  -46.7680 N.ar  361  HIS361     -0.2212
     81  N         -0.7350   48.4150  -44.0620 N.3   364  ASN364     -0.1225
     82  CA        -1.6520   48.1420  -42.9700 C.3   364  ASN364      0.1785
     83  C         -1.0110   48.4300  -41.6120 C.2   364  ASN364      0.2597
     84  O         -1.5310   49.2330  -40.8390 O.2   364  ASN364     -0.2718
     85  CB        -2.1710   46.7070  -43.0340 C.3   364  ASN364      0.1169
     86  CG        -3.4610   46.5200  -42.2550 C.2   364  ASN364      0.2627
     87  OD1       -4.1670   47.4840  -41.9520 O.2   364  ASN364     -0.2716
     88  ND2       -3.7740   45.2760  -41.9260 N.am  364  ASN364     -0.0877
     89  N          0.1350   47.8020  -41.3450 N.am  365  LEU365     -0.1980
     90  CA         0.8870   48.0220  -40.1000 C.3   365  LEU365      0.1596
     91  C          1.3920   49.4580  -39.9260 C.2   365  LEU365      0.2287
     92  O          1.4880   49.9490  -38.8000 O.2   365  LEU365     -0.2864
     93  CB         2.0450   47.0330  -39.9950 C.3   365  LEU365      0.0297
     94  CG         2.6710   46.8210  -38.6150 C.3   365  LEU365      0.0022
     95  CD1        1.6230   46.4440  -37.5750 C.3   365  LEU365      0.0001
     96  CD2        3.7640   45.7670  -38.6890 C.3   365  LEU365      0.0001
     97  N         -0.3320   52.0170  -41.1070 N.3   367  PHE367     -0.1227
     98  CA        -1.5850   52.6600  -40.6880 C.3   367  PHE367      0.1736
     99  C         -1.9170   52.3670  -39.2230 C.2   367  PHE367      0.2595
    100  O         -2.2880   53.2670  -38.4680 O.2   367  PHE367     -0.2718
    101  CB        -2.7600   52.2430  -41.5830 C.3   367  PHE367      0.0547
    102  CG        -4.0330   51.9870  -40.8230 C.ar  367  PHE367     -0.0202
    103  CD1       -4.7880   53.0390  -40.3290 C.ar  367  PHE367     -0.0042
    104  CD2       -4.4580   50.6880  -40.5810 C.ar  367  PHE367     -0.0042
    105  CE1       -5.9430   52.7980  -39.6080 C.ar  367  PHE367     -0.0003
    106  CE2       -5.6120   50.4410  -39.8660 C.ar  367  PHE367     -0.0003
    107  CZ        -6.3580   51.4980  -39.3810 C.ar  367  PHE367     -0.0000
    108  N         -1.7940   51.1020  -38.8370 N.am  368  ALA368     -0.1966
    109  CA        -2.0980   50.6780  -37.4800 C.3   368  ALA368      0.1728
    110  C         -1.3830   51.5490  -36.4550 C.2   368  ALA368      0.2616
    111  O         -1.9560   51.9020  -35.4200 O.2   368  ALA368     -0.2715
    112  CB        -1.7340   49.2130  -37.2890 C.3   368  ALA368      0.0334
    113  N         -0.1410   51.9160  -36.7690 N.am  369  ASN369     -0.1972
    114  CA         0.6900   52.6880  -35.8610 C.3   369  ASN369      0.1688
    115  C          0.7960   54.1430  -36.2640 C.2   369  ASN369      0.2292
    116  O          1.3790   54.9450  -35.5440 O.2   369  ASN369     -0.2864
    117  CB         2.0700   52.0570  -35.7630 C.3   369  ASN369      0.1181
    118  CG         2.0080   50.6230  -35.3020 C.2   369  ASN369      0.2629
    119  OD1        2.1610   50.3410  -34.1150 O.2   369  ASN369     -0.2716
    120  ND2        1.7500   49.7060  -36.2310 N.am  369  ASN369     -0.0877
    121  N          7.4380   48.5160  -29.8720 N.3   381  TRP381     -0.1227
    122  CA         6.3470   49.0020  -30.7220 C.3   381  TRP381      0.1737
    123  C          5.0140   48.3920  -30.3830 C.2   381  TRP381      0.2595
    124  O          3.9770   49.0000  -30.6220 O.2   381  TRP381     -0.2718
    125  CB         6.6600   48.7950  -32.1990 C.3   381  TRP381      0.0564
    126  CG         6.5180   47.3680  -32.6570 C.ar  381  TRP381      0.0003
    127  CD1        7.4540   46.3460  -32.5570 C.ar  381  TRP381      0.0946
    128  CD2        5.3530   46.7530  -33.3050 C.ar  381  TRP381      0.0152
    129  NE1        6.9640   45.1780  -33.0840 N.ar  381  TRP381     -0.2442
    130  CE2        5.7120   45.3530  -33.5500 C.ar  381  TRP381      0.0810
    131  CE3        4.0990   47.2040  -33.6900 C.ar  381  TRP381      0.0012
    132  CZ2        4.8370   44.4660  -34.1550 C.ar  381  TRP381      0.0191
    133  CZ3        3.2280   46.2990  -34.3020 C.ar  381  TRP381      0.0001
    134  CH2        3.5900   44.9630  -34.5280 C.ar  381  TRP381      0.0015
    135  N          5.0350   47.1890  -29.8140 N.am  382  ASP382     -0.1974
    136  CA         3.8150   46.4410  -29.5220 C.3   382  ASP382      0.1709
    137  C          3.5770   46.2230  -28.0220 C.2   382  ASP382      0.2293
    138  O          2.6950   45.4490  -27.6370 O.2   382  ASP382     -0.2864
    139  CB         3.8210   45.0970  -30.2730 C.3   382  ASP382      0.1436
    140  CG         4.9180   44.1460  -29.7920 C.2   382  ASP382      0.3671
    141  OD1        5.8490   44.5900  -29.0840 O.co2 382  ASP382     -0.2456
    142  OD2        4.8470   42.9430  -30.1280 O.co2 382  ASP382     -0.2456
    143  N          1.9790   47.5000  -25.7690 N.3   384  ASP384     -0.1225
    144  CA         0.6140   47.6770  -25.2800 C.3   384  ASP384      0.1805
    145  C         -0.3540   46.5850  -25.7450 C.2   384  ASP384      0.2597
    146  O         -1.5720   46.7570  -25.6590 O.2   384  ASP384     -0.2718
    147  CB         0.0890   49.0400  -25.7310 C.3   384  ASP384      0.1424
    148  CG         0.0390   49.1730  -27.2440 C.2   384  ASP384      0.3668
    149  OD1        1.1160   49.3080  -27.8680 O.co2 384  ASP384     -0.2456
    150  OD2       -1.0780   49.1460  -27.8060 O.co2 384  ASP384     -0.2456
    151  N          0.1870   45.4660  -26.2260 N.am  385  ASP385     -0.1974
    152  CA        -0.6220   44.4160  -26.8470 C.3   385  ASP385      0.1709
    153  C         -1.3910   43.5530  -25.8520 C.2   385  ASP385      0.2293
    154  O         -2.5330   43.1750  -26.1150 O.2   385  ASP385     -0.2864
    155  CB         0.2370   43.5250  -27.7470 C.3   385  ASP385      0.1436
    156  CG        -0.5920   42.7300  -28.7440 C.2   385  ASP385      0.3671
    157  OD1       -1.4670   43.3260  -29.4150 O.co2 385  ASP385     -0.2456
    158  OD2       -0.3620   41.5070  -28.8610 O.co2 385  ASP385     -0.2456
    159  N         -5.0530   44.5250  -24.9080 N.3   388  GLU388     -0.1245
    160  CA        -6.0870   44.5380  -25.9410 C.3   388  GLU388      0.1567
    161  C         -7.4100   43.9930  -25.4020 C.2   388  GLU388      0.2260
    162  O         -7.4270   43.0260  -24.6370 O.2   388  GLU388     -0.2867
    163  CB        -5.6220   43.7130  -27.1440 C.3   388  GLU388      0.0388
    164  CG        -6.3350   44.0220  -28.4520 C.3   388  GLU388      0.1160
    165  CD        -5.6540   43.4060  -29.6670 C.2   388  GLU388      0.3649
    166  OE1       -4.4740   42.9930  -29.5650 O.co2 388  GLU388     -0.2457
    167  OE2       -6.3020   43.3440  -30.7350 O.co2 388  GLU388     -0.2457
    168  N        -14.3150   44.1100  -33.2640 N.3   393  HIS393     -0.1241
    169  CA       -14.2420   45.5550  -33.4170 C.3   393  HIS393      0.1621
    170  C        -15.5190   46.0950  -33.9880 C.2   393  HIS393      0.2264
    171  O        -16.2480   45.3840  -34.6820 O.2   393  HIS393     -0.2867
    172  CB       -13.0420   45.9220  -34.2860 C.3   393  HIS393      0.0745
    173  CG       -11.7070   45.7050  -33.6050 C.ar  393  HIS393      0.0817
    174  ND1      -11.5840   45.0430  -32.4330 N.ar  393  HIS393     -0.2268
    175  CD2      -10.4170   46.0690  -33.9860 C.ar  393  HIS393      0.1154
    176  CE1      -10.2870   45.0000  -32.0730 C.ar  393  HIS393      0.1986
    177  NE2       -9.5730   45.6270  -33.0230 N.ar  393  HIS393     -0.2212
    178  N         -1.7640   60.0850  -39.9600 N.3   488  LEU488     -0.1245
    179  CA        -2.6790   59.2190  -40.6950 C.3   488  LEU488      0.1561
    180  C         -3.8230   60.0840  -41.1860 C.2   488  LEU488      0.2260
    181  O         -4.4020   60.8350  -40.4010 O.2   488  LEU488     -0.2867
    182  CB        -3.2130   58.1210  -39.7710 C.3   488  LEU488      0.0270
    183  CG        -4.4700   57.3140  -40.1150 C.3   488  LEU488      0.0019
    184  CD1       -4.3550   56.5970  -41.4510 C.3   488  LEU488      0.0001
    185  CD2       -4.7400   56.3120  -39.0070 C.3   488  LEU488      0.0001
    186  N        -14.6750   46.4760  -45.9240 N.3   506  LEU506     -0.1245
    187  CA       -13.4370   47.1190  -46.3600 C.3   506  LEU506      0.1561
    188  C        -12.7070   46.3210  -47.4340 C.2   506  LEU506      0.2260
    189  O        -12.6900   45.0870  -47.4040 O.2   506  LEU506     -0.2867
    190  CB       -12.5170   47.3940  -45.1630 C.3   506  LEU506      0.0270
    191  CG       -11.8810   46.2910  -44.3120 C.3   506  LEU506      0.0019
    192  CD1      -11.3230   46.9140  -43.0430 C.3   506  LEU506      0.0001
    193  CD2      -12.8480   45.1760  -43.9530 C.3   506  LEU506      0.0001
    194  N         -6.4630   51.4950  -48.5980 N.3   522  LEU522     -0.1245
    195  CA        -7.5680   50.8530  -47.9070 C.3   522  LEU522      0.1561
    196  C         -8.8320   51.7060  -47.9760 C.2   522  LEU522      0.2260
    197  O         -8.7670   52.9320  -47.8410 O.2   522  LEU522     -0.2867
    198  CB        -7.1570   50.5450  -46.4640 C.3   522  LEU522      0.0270
    199  CG        -8.1120   49.8420  -45.4980 C.3   522  LEU522      0.0019
    200  CD1       -8.8040   48.6330  -46.1160 C.3   522  LEU522      0.0001
    201  CD2       -7.3430   49.4380  -44.2540 C.3   522  LEU522      0.0001
    202  N        -13.0430   52.0260  -46.7120 N.3   524  TRP524     -0.1241
    203  CA       -14.0430   51.5830  -45.7410 C.3   524  TRP524      0.1605
    204  C        -15.4390   51.8470  -46.2030 C.2   524  TRP524      0.2264
    205  O        -15.7820   52.9720  -46.5770 O.2   524  TRP524     -0.2867
    206  CB       -13.8390   52.2610  -44.3950 C.3   524  TRP524      0.0550
    207  CG       -12.5300   51.9450  -43.7140 C.ar  524  TRP524      0.0003
    208  CD1      -11.2560   52.3840  -44.0700 C.ar  524  TRP524      0.0946
    209  CD2      -12.3280   51.1340  -42.5080 C.ar  524  TRP524      0.0152
    210  NE1      -10.3130   51.9040  -43.2020 N.ar  524  TRP524     -0.2442
    211  CE2      -10.8840   51.1490  -42.2430 C.ar  524  TRP524      0.0810
    212  CE3      -13.1630   50.4180  -41.6600 C.ar  524  TRP524      0.0012
    213  CZ2      -10.3270   50.4730  -41.1670 C.ar  524  TRP524      0.0191
    214  CZ3      -12.5890   49.7410  -40.5760 C.ar  524  TRP524      0.0001
    215  CH2      -11.2060   49.7680  -40.3380 C.ar  524  TRP524      0.0015
    216  N         -1.8130   60.2960  -33.9290 N.3   590  TYR590     -0.1227
    217  CA        -1.7100   59.7570  -32.5750 C.3   590  TYR590      0.1736
    218  C         -0.3030   59.2370  -32.3390 C.2   590  TYR590      0.2596
    219  O          0.4550   59.0410  -33.2880 O.2   590  TYR590     -0.2718
    220  CB        -2.7640   58.6700  -32.3010 C.3   590  TYR590      0.0548
    221  CG        -2.9260   57.6110  -33.3770 C.ar  590  TYR590     -0.0200
    222  CD1       -2.1480   56.4560  -33.3670 C.ar  590  TYR590     -0.0009
    223  CD2       -3.8820   57.7530  -34.3910 C.ar  590  TYR590     -0.0009
    224  CE1       -2.3000   55.4780  -34.3370 C.ar  590  TYR590      0.0417
    225  CE2       -4.0370   56.7820  -35.3720 C.ar  590  TYR590      0.0417
    226  CZ        -3.2390   55.6480  -35.3390 C.ar  590  TYR590      0.1957
    227  OH        -3.3740   54.6740  -36.3010 O.3   590  TYR590     -0.2866
    228  N          0.0470   59.0220  -31.0760 N.am  591  SER591     -0.1952
    229  CA         1.4110   58.6560  -30.7250 C.3   591  SER591      0.1924
    230  C          1.7640   57.2390  -31.1500 C.2   591  SER591      0.2314
    231  O          0.8900   56.4350  -31.4840 O.2   591  SER591     -0.2863
    232  CB         1.6380   58.8010  -29.2230 C.3   591  SER591      0.2116
    233  OG         1.2020   57.6410  -28.5370 O.3   591  SER591     -0.2180
    234  N         -2.2300   53.4920  -25.1960 N.3   637  PRO637     -0.2102
    235  CA        -1.9140   54.6800  -25.9910 C.3   637  PRO637      0.1504
    236  C         -2.6770   54.7110  -27.3090 C.2   637  PRO637      0.2576
    237  O         -3.1660   53.6770  -27.7720 O.2   637  PRO637     -0.2718
    238  CB        -0.4090   54.5400  -26.2560 C.3   637  PRO637      0.0282
    239  CG        -0.1320   53.0820  -26.1200 C.3   637  PRO637      0.0208
    240  CD        -1.0540   52.6140  -25.0330 C.3   637  PRO637      0.0893
    241  N         -2.7800   55.9020  -27.8850 N.am  638  ALA638     -0.1966
    242  CA        -3.3240   56.1030  -29.2260 C.3   638  ALA638      0.1728
    243  C         -4.8070   55.7320  -29.4120 C.2   638  ALA638      0.2616
    244  O         -5.2760   55.5340  -30.5340 O.2   638  ALA638     -0.2715
    245  CB        -2.4380   55.4220  -30.2610 C.3   638  ALA638      0.0334
    246  N         -5.5550   55.6510  -28.3210 N.am  639  THR639     -0.1951
    247  CA        -6.9640   55.2620  -28.4250 C.3   639  THR639      0.1897
    248  C         -7.9060   56.2220  -27.6990 C.2   639  THR639      0.2313
    249  O         -7.5180   56.8400  -26.7030 O.2   639  THR639     -0.2863
    250  CB        -7.2070   53.8300  -27.9000 C.3   639  THR639      0.1794
    251  OG1       -6.8320   53.7470  -26.5170 O.3   639  THR639     -0.2208
    252  CG2       -6.4300   52.7960  -28.7190 C.3   639  THR639      0.0378
@<TRIPOS>BOND
     1    63    62   ar
     2    63    65   ar
     3    61    62    1
     4    61    58    1
     5    57    58    1
     6    62    64   ar
     7    65    66   ar
     8    58    59    1
     9   194   195    1
    10    26    27    2
    11    26    25    1
    12    64    66   ar
    13    64    67   ar
    14   196   195    1
    15   196   197    2
    16    66    68   ar
    17   195   198    1
    18   188   189    2
    19   188   187    1
    20    59    71   am
    21    59    60    2
    22    67    69   ar
    23    68    70   ar
    24    78    80   ar
    25    78    76   ar
    26    71    72    1
    27    80    79   ar
    28    25    24    1
    29    25    28    1
    30   202   203    1
    31    29    28    1
    32   205   204    2
    33   198   199    1
    34   187   186    1
    35   187   190    1
    36   204   203    1
    37    69    70   ar
    38   200   199    1
    39    76    75    1
    40    76    77   ar
    41   203   206    1
    42    79    77   ar
    43   199   201    1
    44    72    75    1
    45    72    73    1
    46   190   191    1
    47    73    74    2
    48   206   207    1
    49   191   193    1
    50   191   192    1
    51    30    31    1
    52   208   207   ar
    53   208   210   ar
    54    81    82    1
    55   207   209   ar
    56    34    31    1
    57    34    35    1
    58    31    32    1
    59   210   211   ar
    60    85    82    1
    61    85    86    1
    62    82    83    1
    63    36    35   ar
    64    36    38   ar
    65    18    17    2
    66    35    37   ar
    67    17    16    1
    68   209   211   ar
    69   209   212   ar
    70    86    87    2
    71    86    88   am
    72   211   213   ar
    73    38    40   ar
    74    32    41   am
    75    32    33    2
    76   212   214   ar
    77    37    39   ar
    78    83    89   am
    79    83    84    2
    80   101   102    1
    81   101    98    1
    82   184   183    1
    83    89    90    1
    84    41    42    1
    85   180   179    1
    86   180   181    2
    87   213   215   ar
    88    16    15    1
    89    16    19    1
    90    97    98    1
    91    40    39   ar
    92   102   104   ar
    93   102   103   ar
    94    48    46   am
    95   179   178    1
    96   179   182    1
    97    98    99    1
    98   104   106   ar
    99   214   215   ar
   100   103   105   ar
   101   183   182    1
   102   183   185    1
   103    90    93    1
   104    90    91    1
   105    19    20    1
   106    93    94    1
   107    91    92    2
   108    42    45    1
   109    42    43    1
   110   106   107   ar
   111    46    45    1
   112    46    47    2
   113   105   107   ar
   114    43    44    2
   115    99   108   am
   116    99   100    2
   117    49    50    1
   118   108   109    1
   119    96    94    1
   120    23    21   am
   121    20    21    1
   122    94    95    1
   123    21    22    2
   124    54    55    1
   125    54    56    1
   126    54    53    1
   127    50    53    1
   128    50    51    1
   129   109   112    1
   130   109   110    1
   131   113   110   am
   132   113   114    1
   133    51    52    2
   134     7     5    1
   135   110   111    2
   136   227   226    1
   137   115   114    1
   138   115   116    2
   139   120   118   am
   140   114   117    1
   141   117   118    1
   142   225   226   ar
   143   225   223   ar
   144   226   224   ar
   145   118   119    2
   146     5     6    1
   147     5     2    1
   148     1     2    1
   149   171   170    2
   150   134   133   ar
   151   134   132   ar
   152     2     3    1
   153   223   221   ar
   154   224   222   ar
   155   133   131   ar
   156   172   173    1
   157   172   169    1
   158   132   130   ar
   159   170   169    1
   160   175   173   ar
   161   175   177   ar
   162   216   217    1
   163   131   128   ar
   164   173   174   ar
   165   130   128   ar
   166   130   129   ar
   167   169   168    1
   168   221   222   ar
   169   221   220    1
   170   128   126   ar
   171   219   218    2
   172   129   127   ar
   173   177   176   ar
   174     3     4    2
   175   126   127   ar
   176   126   125    1
   177   217   218    1
   178   217   220    1
   179   174   176   ar
   180   218   228   am
   181   125   122    1
   182    14    12    1
   183   231   230    2
   184   230   229    1
   185   228   229    1
   186   167   165   ar
   187   229   232    1
   188   122   123    1
   189   122   121    1
   190   124   123    2
   191   244   243    2
   192     9    12    1
   193     9     8    1
   194     9    10    1
   195    12    13    1
   196   123   135   am
   197   139   140    1
   198   139   136    1
   199   245   242    1
   200   142   140   ar
   201   135   136    1
   202   140   141   ar
   203   165   166   ar
   204   165   164    1
   205   136   137    1
   206    10    11    2
   207   157   156   ar
   208   243   242    1
   209   243   246   am
   210   242   241    1
   211   232   233    1
   212   158   156   ar
   213   156   155    1
   214   252   250    1
   215   164   163    1
   216   247   246    1
   217   247   250    1
   218   247   248    1
   219   137   138    2
   220   250   251    1
   221   241   236   am
   222   149   148   ar
   223   150   148   ar
   224   237   236    2
   225   155   152    1
   226   248   249    2
   227   236   235    1
   228   148   147    1
   229   163   160    1
   230   152   151    1
   231   152   153    1
   232   238   239    1
   233   238   235    1
   234   151   145   am
   235   239   240    1
   236   154   153    2
   237   235   234    1
   238   160   161    1
   239   160   159    1
   240   143   144    1
   241   145   146    2
   242   145   144    1
   243   147   144    1
   244   161   162    2
   245   234   240    1
