@<TRIPOS>MOLECULE
tmp/3zmzA00.pdb
 223 215 0 0 0
SMALL
GASTEIGER

@<TRIPOS>ATOM
      1  N        -12.7050   55.7580   82.1030 N.3   163  VAL163     -0.1245
      2  CA       -12.9790   54.3930   82.5480 C.3   163  VAL163      0.1561
      3  C        -12.9760   54.2640   84.0710 C.2   163  VAL163      0.2260
      4  O        -12.0480   54.7230   84.7390 O.2   163  VAL163     -0.2867
      5  CB       -11.9480   53.3980   81.9590 C.3   163  VAL163      0.0252
      6  CG1      -12.2690   51.9680   82.3720 C.3   163  VAL163      0.0019
      7  CG2      -11.8920   53.5120   80.4440 C.3   163  VAL163      0.0019
      8  N        -12.2460   51.6990   86.6180 N.3   165  THR165     -0.1218
      9  CA       -11.4670   50.4630   86.5300 C.3   165  THR165      0.1862
     10  C        -11.8650   49.4020   87.5630 C.2   165  THR165      0.2287
     11  O        -11.0310   48.9380   88.3500 O.2   165  THR165     -0.2866
     12  CB        -9.9450   50.7360   86.5860 C.3   165  THR165      0.1770
     13  OG1       -9.5770   51.1990   87.8910 O.3   165  THR165     -0.2211
     14  CG2       -9.5460   51.7760   85.5460 C.3   165  THR165      0.0375
     15  N        -14.0670   43.3850   76.6230 N.3   188  GLN188     -0.1245
     16  CA       -12.6330   43.5670   76.3680 C.3   188  GLN188      0.1566
     17  C        -12.1340   42.9700   75.0440 C.2   188  GLN188      0.2260
     18  O        -10.9250   42.9480   74.7890 O.2   188  GLN188     -0.2867
     19  CB       -11.7910   43.0580   77.5540 C.3   188  GLN188      0.0367
     20  CG       -11.9050   43.8840   78.8390 C.3   188  GLN188      0.0905
     21  CD       -11.3290   45.2970   78.7330 C.2   188  GLN188      0.2608
     22  OE1      -10.2610   45.5150   78.1540 O.2   188  GLN188     -0.2717
     23  NE2      -12.0350   46.2630   79.3120 N.am  188  GLN188     -0.0878
     24  N        -10.9940   42.9370   71.4750 N.3   190  CYS190     -0.1235
     25  CA       -10.3740   43.9600   70.6400 C.3   190  CYS190      0.1677
     26  C         -9.7300   43.3610   69.3840 C.2   190  CYS190      0.2270
     27  O         -8.6160   42.8320   69.4460 O.2   190  CYS190     -0.2867
     28  CB        -9.3440   44.7520   71.4540 C.3   190  CYS190      0.0956
     29  SG        -8.6760   46.2110   70.6210 S.3   190  CYS190     -0.0801
     30  N          6.9730   40.2250   78.7790 N.3   216  LEU216     -0.1245
     31  CA         6.8230   41.0000   80.0120 C.3   216  LEU216      0.1561
     32  C          7.3030   40.2380   81.2430 C.2   216  LEU216      0.2260
     33  O          8.0830   40.7690   82.0330 O.2   216  LEU216     -0.2867
     34  CB         5.3830   41.4710   80.2050 C.3   216  LEU216      0.0270
     35  CG         5.0290   42.8400   79.6260 C.3   216  LEU216      0.0019
     36  CD1        3.5470   43.1140   79.8170 C.3   216  LEU216      0.0001
     37  CD2        5.8580   43.9470   80.2610 C.3   216  LEU216      0.0001
     38  N          1.9760   47.0860   68.6140 N.3   361  TRP361     -0.1241
     39  CA         0.6630   47.5250   69.0700 C.3   361  TRP361      0.1605
     40  C          0.5020   47.1920   70.5210 C.2   361  TRP361      0.2264
     41  O         -0.0130   47.9970   71.2960 O.2   361  TRP361     -0.2867
     42  CB        -0.4460   46.8860   68.2510 C.3   361  TRP361      0.0550
     43  CG        -1.8310   47.2780   68.7070 C.ar  361  TRP361      0.0003
     44  CD1       -2.6490   48.2760   68.1830 C.ar  361  TRP361      0.0946
     45  CD2       -2.6090   46.6850   69.8030 C.ar  361  TRP361      0.0152
     46  NE1       -3.8450   48.3370   68.8560 N.ar  361  TRP361     -0.2442
     47  CE2       -3.8850   47.4150   69.8420 C.ar  361  TRP361      0.0810
     48  CE3       -2.3870   45.6620   70.7200 C.ar  361  TRP361      0.0012
     49  CZ2       -4.8770   47.1150   70.7650 C.ar  361  TRP361      0.0191
     50  CZ3       -3.3930   45.3710   71.6490 C.ar  361  TRP361      0.0001
     51  CH2       -4.6100   46.0790   71.6680 C.ar  361  TRP361      0.0015
     52  N         -0.1600   49.7770   73.5950 N.3   365  ASN365     -0.1225
     53  CA        -1.1590   49.6110   74.6430 C.3   365  ASN365      0.1785
     54  C         -0.5910   49.9780   76.0130 C.2   365  ASN365      0.2597
     55  O         -1.1660   50.8010   76.7240 O.2   365  ASN365     -0.2718
     56  CB        -1.7070   48.1800   74.6440 C.3   365  ASN365      0.1169
     57  CG        -3.0740   48.0790   75.2990 C.2   365  ASN365      0.2627
     58  OD1       -3.3870   47.0860   75.9510 O.2   365  ASN365     -0.2716
     59  ND2       -3.8940   49.1100   75.1290 N.am  365  ASN365     -0.0877
     60  N          0.5460   49.3730   76.3590 N.am  366  LEU366     -0.1980
     61  CA         1.2990   49.7080   77.5670 C.3   366  LEU366      0.1596
     62  C          1.6860   51.1840   77.6470 C.2   366  LEU366      0.2287
     63  O          1.6450   51.7840   78.7240 O.2   366  LEU366     -0.2864
     64  CB         2.5590   48.8460   77.6550 C.3   366  LEU366      0.0297
     65  CG         2.6760   47.8030   78.7680 C.3   366  LEU366      0.0022
     66  CD1        1.5380   46.7940   78.7410 C.3   366  LEU366      0.0001
     67  CD2        4.0210   47.1010   78.6690 C.3   366  LEU366      0.0001
     68  N          0.0520   53.5850   76.2640 N.3   368  PHE368     -0.1227
     69  CA        -1.2020   54.2700   76.5540 C.3   368  PHE368      0.1736
     70  C         -1.5360   54.1640   78.0380 C.2   368  PHE368      0.2595
     71  O         -1.8880   55.1570   78.6680 O.2   368  PHE368     -0.2718
     72  CB        -2.3310   53.7210   75.6760 C.3   368  PHE368      0.0547
     73  CG        -3.6350   53.5280   76.3960 C.ar  368  PHE368     -0.0202
     74  CD1       -4.4220   54.6150   76.7570 C.ar  368  PHE368     -0.0042
     75  CD2       -4.0850   52.2480   76.6970 C.ar  368  PHE368     -0.0042
     76  CE1       -5.6250   54.4280   77.4180 C.ar  368  PHE368     -0.0003
     77  CE2       -5.2880   52.0550   77.3540 C.ar  368  PHE368     -0.0003
     78  CZ        -6.0600   53.1470   77.7130 C.ar  368  PHE368     -0.0000
     79  N         -1.4120   52.9580   78.5860 N.am  369  ALA369     -0.1966
     80  CA        -1.7000   52.6930   79.9930 C.3   369  ALA369      0.1728
     81  C         -0.8870   53.5740   80.9450 C.2   369  ALA369      0.2616
     82  O         -1.4150   54.0780   81.9390 O.2   369  ALA369     -0.2715
     83  CB        -1.4660   51.2260   80.3040 C.3   369  ALA369      0.0334
     84  N          0.3910   53.7600   80.6310 N.am  370  ASN370     -0.1972
     85  CA         1.2760   54.5540   81.4650 C.3   370  ASN370      0.1688
     86  C          1.4730   55.9580   80.9240 C.2   370  ASN370      0.2292
     87  O          2.2670   56.7330   81.4670 O.2   370  ASN370     -0.2864
     88  CB         2.6190   53.8540   81.6110 C.3   370  ASN370      0.1181
     89  CG         2.5030   52.5380   82.3400 C.2   370  ASN370      0.2629
     90  OD1        2.5520   52.4910   83.5670 O.2   370  ASN370     -0.2716
     91  ND2        2.3420   51.4580   81.5870 N.am  370  ASN370     -0.0877
     92  N          7.4740   50.1890   87.5730 N.3   382  TRP382     -0.1227
     93  CA         6.4240   50.7040   86.6890 C.3   382  TRP382      0.1737
     94  C          5.0410   50.2090   87.0240 C.2   382  TRP382      0.2595
     95  O          4.0590   50.9000   86.7800 O.2   382  TRP382     -0.2718
     96  CB         6.7510   50.4330   85.2230 C.3   382  TRP382      0.0564
     97  CG         6.4810   49.0190   84.7700 C.ar  382  TRP382      0.0003
     98  CD1        7.3140   47.9130   84.8930 C.ar  382  TRP382      0.0946
     99  CD2        5.2760   48.5150   84.0950 C.ar  382  TRP382      0.0152
    100  NE1        6.7240   46.7950   84.3590 N.ar  382  TRP382     -0.2442
    101  CE2        5.5040   47.0860   83.8630 C.ar  382  TRP382      0.0810
    102  CE3        4.0780   49.0840   83.6750 C.ar  382  TRP382      0.0012
    103  CZ2        4.5620   46.2830   83.2390 C.ar  382  TRP382      0.0191
    104  CZ3        3.1340   48.2620   83.0450 C.ar  382  TRP382      0.0001
    105  CH2        3.3740   46.8960   82.8340 C.ar  382  TRP382      0.0015
    106  N          4.9590   49.0100   87.5940 N.am  383  ASP383     -0.1974
    107  CA         3.6770   48.3710   87.8940 C.3   383  ASP383      0.1709
    108  C          3.4790   48.0850   89.3850 C.2   383  ASP383      0.2293
    109  O          2.6310   47.2720   89.7490 O.2   383  ASP383     -0.2864
    110  CB         3.5100   47.0800   87.0650 C.3   383  ASP383      0.1436
    111  CG         4.5350   45.9920   87.4260 C.2   383  ASP383      0.3671
    112  OD1        5.6040   46.3020   88.0010 O.co2 383  ASP383     -0.2456
    113  OD2        4.2690   44.8110   87.1210 O.co2 383  ASP383     -0.2456
    114  N          1.9070   49.3750   91.6490 N.3   385  ASP385     -0.1225
    115  CA         0.5380   49.5270   92.1190 C.3   385  ASP385      0.1805
    116  C         -0.3860   48.4070   91.6370 C.2   385  ASP385      0.2597
    117  O         -1.6100   48.5380   91.7200 O.2   385  ASP385     -0.2718
    118  CB        -0.0140   50.8860   91.6830 C.3   385  ASP385      0.1424
    119  CG        -0.1080   51.0230   90.1750 C.2   385  ASP385      0.3668
    120  OD1        0.9140   50.8240   89.4820 O.co2 385  ASP385     -0.2456
    121  OD2       -1.2090   51.3380   89.6860 O.co2 385  ASP385     -0.2456
    122  N          0.1960   47.3150   91.1370 N.am  386  ASP386     -0.1974
    123  CA        -0.5850   46.1850   90.6170 C.3   386  ASP386      0.1709
    124  C         -1.3900   45.4730   91.6910 C.2   386  ASP386      0.2293
    125  O         -2.5420   45.1050   91.4590 O.2   386  ASP386     -0.2864
    126  CB         0.3030   45.1710   89.8840 C.3   386  ASP386      0.1436
    127  CG        -0.0340   45.0520   88.3980 C.2   386  ASP386      0.3671
    128  OD1       -1.1670   45.4010   87.9940 O.co2 386  ASP386     -0.2456
    129  OD2        0.8380   44.5890   87.6320 O.co2 386  ASP386     -0.2456
    130  N         -4.9850   46.7650   92.5870 N.3   389  GLU389     -0.1245
    131  CA        -5.9410   46.8980   91.4870 C.3   389  GLU389      0.1567
    132  C         -7.3160   46.3990   91.9220 C.2   389  GLU389      0.2260
    133  O         -7.4130   45.4610   92.7100 O.2   389  GLU389     -0.2867
    134  CB        -5.4400   46.1090   90.2760 C.3   389  GLU389      0.0388
    135  CG        -6.1120   46.4400   88.9500 C.3   389  GLU389      0.1160
    136  CD        -5.4820   45.7070   87.7690 C.2   389  GLU389      0.3649
    137  OE1       -4.2320   45.7070   87.6510 O.co2 389  GLU389     -0.2457
    138  OE2       -6.2390   45.1360   86.9490 O.co2 389  GLU389     -0.2457
    139  N        -14.4010   46.6050   83.8660 N.3   394  HIS394     -0.1241
    140  CA       -14.1860   48.0310   83.6810 C.3   394  HIS394      0.1621
    141  C        -15.4080   48.6400   83.0600 C.2   394  HIS394      0.2264
    142  O        -16.0620   48.0140   82.2220 O.2   394  HIS394     -0.2867
    143  CB       -12.9510   48.2680   82.8270 C.3   394  HIS394      0.0745
    144  CG       -11.6550   47.9940   83.5510 C.ar  394  HIS394      0.0817
    145  ND1      -10.4770   48.4880   83.1340 N.ar  394  HIS394     -0.2268
    146  CD2      -11.3880   47.2650   84.7130 C.ar  394  HIS394      0.1154
    147  CE1       -9.5010   48.0860   83.9750 C.ar  394  HIS394      0.1986
    148  NE2      -10.0620   47.3410   84.9410 N.ar  394  HIS394     -0.2212
    149  N         -0.9850   61.6370   77.0840 N.3   489  LEU489     -0.1245
    150  CA        -1.7910   60.8280   76.1710 C.3   489  LEU489      0.1561
    151  C         -2.9710   61.6740   75.7140 C.2   489  LEU489      0.2260
    152  O         -3.5500   62.4120   76.5110 O.2   489  LEU489     -0.2867
    153  CB        -2.2630   59.5250   76.8390 C.3   489  LEU489      0.0270
    154  CG        -3.7460   59.2010   77.0750 C.3   489  LEU489      0.0019
    155  CD1       -4.3730   58.6090   75.8240 C.3   489  LEU489      0.0001
    156  CD2       -3.9150   58.2240   78.2240 C.3   489  LEU489      0.0001
    157  N        -14.2240   48.1570   71.3160 N.3   507  LEU507     -0.1245
    158  CA       -12.9230   48.7060   70.9440 C.3   507  LEU507      0.1561
    159  C        -12.1740   47.8660   69.9120 C.2   507  LEU507      0.2260
    160  O        -12.1450   46.6390   69.9970 O.2   507  LEU507     -0.2867
    161  CB       -12.0520   48.9470   72.1890 C.3   507  LEU507      0.0270
    162  CG       -11.5960   47.8190   73.1220 C.3   507  LEU507      0.0019
    163  CD1      -10.6060   48.3920   74.1130 C.3   507  LEU507      0.0001
    164  CD2      -12.7400   47.1600   73.8730 C.3   507  LEU507      0.0001
    165  N         -5.7360   52.9020   68.6340 N.3   523  LEU523     -0.1245
    166  CA        -6.9030   52.2840   69.2570 C.3   523  LEU523      0.1561
    167  C         -8.1500   53.1580   69.1520 C.2   523  LEU523      0.2260
    168  O         -8.0680   54.3860   69.2180 O.2   523  LEU523     -0.2867
    169  CB        -6.5880   51.9300   70.7150 C.3   523  LEU523      0.0270
    170  CG        -7.6570   51.3540   71.6470 C.3   523  LEU523      0.0019
    171  CD1       -8.3410   50.1190   71.0760 C.3   523  LEU523      0.0001
    172  CD2       -7.0120   51.0340   72.9820 C.3   523  LEU523      0.0001
    173  N        -12.4260   53.5990   70.3620 N.3   525  TRP525     -0.1241
    174  CA       -13.4250   53.2520   71.3720 C.3   525  TRP525      0.1605
    175  C        -14.8220   53.5370   70.8950 C.2   525  TRP525      0.2264
    176  O        -15.1200   54.6370   70.4110 O.2   525  TRP525     -0.2867
    177  CB       -13.1690   54.0050   72.6770 C.3   525  TRP525      0.0550
    178  CG       -11.8470   53.7130   73.3550 C.ar  525  TRP525      0.0003
    179  CD1      -10.5750   54.1160   72.9520 C.ar  525  TRP525      0.0946
    180  CD2      -11.6250   52.9760   74.6100 C.ar  525  TRP525      0.0152
    181  NE1       -9.6160   53.6760   73.8280 N.ar  525  TRP525     -0.2442
    182  CE2      -10.1740   52.9910   74.8440 C.ar  525  TRP525      0.0810
    183  CE3      -12.4470   52.3210   75.5190 C.ar  525  TRP525      0.0012
    184  CZ2       -9.5990   52.3730   75.9460 C.ar  525  TRP525      0.0191
    185  CZ3      -11.8540   51.7000   76.6280 C.ar  525  TRP525      0.0001
    186  CH2      -10.4640   51.7260   76.8340 C.ar  525  TRP525      0.0015
    187  N         -1.1670   62.2670   83.1010 N.3   591  TYR591     -0.1227
    188  CA        -1.0810   61.7610   84.4710 C.3   591  TYR591      0.1736
    189  C          0.2960   61.1760   84.7410 C.2   591  TYR591      0.2596
    190  O          1.0450   60.8810   83.8090 O.2   591  TYR591     -0.2718
    191  CB        -2.1750   60.7320   84.7780 C.3   591  TYR591      0.0548
    192  CG        -2.3750   59.6430   83.7420 C.ar  591  TYR591     -0.0200
    193  CD1       -1.5050   58.5520   83.6610 C.ar  591  TYR591     -0.0009
    194  CD2       -3.4610   59.6870   82.8650 C.ar  591  TYR591     -0.0009
    195  CE1       -1.7030   57.5480   82.7260 C.ar  591  TYR591      0.0417
    196  CE2       -3.6680   58.6900   81.9250 C.ar  591  TYR591      0.0417
    197  CZ        -2.7850   57.6260   81.8590 C.ar  591  TYR591      0.1957
    198  OH        -2.9880   56.6360   80.9290 O.3   591  TYR591     -0.2866
    199  N          0.6240   61.0050   86.0170 N.am  592  SER592     -0.1952
    200  CA         1.9590   60.5810   86.4100 C.3   592  SER592      0.1924
    201  C          2.2310   59.1080   86.1160 C.2   592  SER592      0.2314
    202  O          1.3140   58.3220   85.8820 O.2   592  SER592     -0.2863
    203  CB         2.2000   60.8660   87.8910 C.3   592  SER592      0.2116
    204  OG         1.6560   59.8340   88.6960 O.3   592  SER592     -0.2180
    205  N         -2.0970   55.6510   91.9850 N.3   638  PRO638     -0.2102
    206  CA        -1.7280   56.8380   91.2130 C.3   638  PRO638      0.1504
    207  C         -2.4130   56.8900   89.8510 C.2   638  PRO638      0.2576
    208  O         -2.9900   55.8970   89.4040 O.2   638  PRO638     -0.2718
    209  CB        -0.2130   56.7030   91.0500 C.3   638  PRO638      0.0282
    210  CG         0.0450   55.2440   91.1300 C.3   638  PRO638      0.0208
    211  CD        -0.9880   54.6800   92.0640 C.3   638  PRO638      0.0893
    212  N         -2.3560   58.0610   89.2270 N.am  639  ALA639     -0.1966
    213  CA        -2.8620   58.2850   87.8770 C.3   639  ALA639      0.1728
    214  C         -4.3280   57.8860   87.6420 C.2   639  ALA639      0.2616
    215  O         -4.6930   57.4680   86.5420 O.2   639  ALA639     -0.2715
    216  CB        -1.9370   57.6370   86.8580 C.3   639  ALA639      0.0334
    217  N         -5.1680   58.0210   88.6640 N.am  640  THR640     -0.1951
    218  CA        -6.5870   57.6610   88.5330 C.3   640  THR640      0.1897
    219  C         -7.5230   58.6820   89.1730 C.2   640  THR640      0.2313
    220  O         -7.0780   59.5510   89.9190 O.2   640  THR640     -0.2863
    221  CB        -6.8910   56.2800   89.1480 C.3   640  THR640      0.1794
    222  OG1       -6.5820   56.2960   90.5470 O.3   640  THR640     -0.2208
    223  CG2       -6.0940   55.1750   88.4550 C.3   640  THR640      0.0378
@<TRIPOS>BOND
     1    44    43   ar
     2    44    46   ar
     3    42    43    1
     4    42    39    1
     5    38    39    1
     6   165   166    1
     7    43    45   ar
     8    46    47   ar
     9    39    40    1
    10   167   168    2
    11   167   166    1
    12   166   169    1
    13    26    27    2
    14    26    25    1
    15    45    47   ar
    16    45    48   ar
    17    47    49   ar
    18   159   160    2
    19   159   158    1
    20   173   174    1
    21   176   175    2
    22    40    41    2
    23    29    28    1
    24    25    28    1
    25    25    24    1
    26   169   170    1
    27    48    50   ar
    28    49    51   ar
    29   175   174    1
    30   158   157    1
    31   158   161    1
    32   171   170    1
    33   174   177    1
    34   170   172    1
    35    50    51   ar
    36   161   162    1
    37   177   178    1
    38   179   178   ar
    39   179   181   ar
    40   162   164    1
    41   162   163    1
    42   178   180   ar
    43    52    53    1
    44   181   182   ar
    45   180   182   ar
    46   180   183   ar
    47    53    56    1
    48    53    54    1
    49    56    57    1
    50    18    17    2
    51   182   184   ar
    52    17    16    1
    53    59    57   am
    54    57    58    2
    55   183   185   ar
    56    72    73    1
    57    72    69    1
    58   151   150    1
    59   151   152    2
    60   155   154    1
    61   184   186   ar
    62    54    60   am
    63    54    55    2
    64   150   153    1
    65   150   149    1
    66    68    69    1
    67    60    61    1
    68    16    15    1
    69    16    19    1
    70    73    75   ar
    71    73    74   ar
    72    69    70    1
    73   185   186   ar
    74    75    77   ar
    75    74    76   ar
    76   153   154    1
    77   154   156    1
    78    77    78   ar
    79    76    78   ar
    80    19    20    1
    81    61    62    1
    82    61    64    1
    83    62    63    2
    84    64    65    1
    85    70    79   am
    86    70    71    2
    87    22    21    2
    88    79    80    1
    89    67    65    1
    90    21    20    1
    91    21    23   am
    92    66    65    1
    93    30    31    1
    94    35    36    1
    95    35    34    1
    96    35    37    1
    97    80    83    1
    98    80    81    1
    99    31    34    1
   100    31    32    1
   101     7     5    1
   102    84    81   am
   103    84    85    1
   104    86    85    1
   105    86    87    2
   106   198   197    1
   107    81    82    2
   108    32    33    2
   109    85    88    1
   110    91    89   am
   111    88    89    1
   112   197   196   ar
   113   197   195   ar
   114   196   194   ar
   115     5     6    1
   116     5     2    1
   117     1     2    1
   118   142   141    2
   119    89    90    2
   120     2     3    1
   121   195   193   ar
   122   143   144    1
   123   143   140    1
   124   105   104   ar
   125   105   103   ar
   126   194   192   ar
   127   104   102   ar
   128   141   140    1
   129   187   188    1
   130   145   144   ar
   131   145   147   ar
   132   103   101   ar
   133   144   146   ar
   134   193   192   ar
   135   102    99   ar
   136   140   139    1
   137   192   191    1
   138   190   189    2
   139   101    99   ar
   140   101   100   ar
   141   147   148   ar
   142     3     4    2
   143    99    97   ar
   144   100    98   ar
   145   188   189    1
   146   188   191    1
   147   146   148   ar
   148   189   199   am
   149    97    98   ar
   150    97    96    1
   151    96    93    1
   152    14    12    1
   153   202   201    2
   154   199   200    1
   155   201   200    1
   156   200   203    1
   157     9    12    1
   158     9     8    1
   159     9    10    1
   160   215   214    2
   161    12    13    1
   162    93    94    1
   163    93    92    1
   164    95    94    2
   165   216   213    1
   166   138   136   ar
   167    94   106   am
   168   110   111    1
   169   110   107    1
   170   113   111   ar
   171   111   112   ar
   172    10    11    2
   173   106   107    1
   174   129   127   ar
   175   214   213    1
   176   214   217   am
   177   137   136   ar
   178   136   135    1
   179   213   212    1
   180   203   204    1
   181   107   108    1
   182   128   127   ar
   183   127   126    1
   184   223   221    1
   185   218   217    1
   186   218   221    1
   187   218   219    1
   188   135   134    1
   189   221   222    1
   190   219   220    2
   191   212   207   am
   192   108   109    2
   193   208   207    2
   194   120   119   ar
   195   121   119   ar
   196   207   206    1
   197   126   123    1
   198   119   118    1
   199   134   131    1
   200   123   122    1
   201   123   124    1
   202   209   210    1
   203   209   206    1
   204   210   211    1
   205   122   116   am
   206   206   205    1
   207   125   124    2
   208   131   132    1
   209   131   130    1
   210   116   117    2
   211   116   115    1
   212   114   115    1
   213   118   115    1
   214   132   133    2
   215   205   211    1
