@<TRIPOS>MOLECULE
tmp/3zncA00.pdb
 188 183 0 0 0
SMALL
GASTEIGER

@<TRIPOS>ATOM
      1  N         -6.8540   33.3690   10.9360 N.3     1  TRP1       -0.1241
      2  CA        -5.7330   33.8080   10.0500 C.3     1  TRP1        0.1605
      3  C         -4.8350   32.6020    9.8040 C.2     1  TRP1        0.2264
      4  O         -4.8610   31.6440   10.5830 O.2     1  TRP1       -0.2867
      5  CB        -4.9050   34.9790   10.7180 C.3     1  TRP1        0.0550
      6  CG        -4.0890   34.5900   11.9390 C.ar    1  TRP1        0.0003
      7  CD1       -4.4410   34.7610   13.2510 C.ar    1  TRP1        0.0946
      8  CD2       -2.7740   34.0140   11.9500 C.ar    1  TRP1        0.0152
      9  NE1       -3.4240   34.3340   14.0750 N.ar    1  TRP1       -0.2442
     10  CE2       -2.3920   33.8690   13.3060 C.ar    1  TRP1        0.0810
     11  CE3       -1.8810   33.6070   10.9470 C.ar    1  TRP1        0.0012
     12  CZ2       -1.1550   33.3340   13.6830 C.ar    1  TRP1        0.0191
     13  CZ3       -0.6500   33.0730   11.3220 C.ar    1  TRP1        0.0001
     14  CH2       -0.3000   32.9420   12.6800 C.ar    1  TRP1        0.0015
     15  N          0.6890   24.8000   18.7900 N.3    64  ASN64      -0.1240
     16  CA        -0.3270   25.8400   18.9110 C.3    64  ASN64       0.1653
     17  C         -1.0960   26.1140   17.6260 C.2    64  ASN64       0.2266
     18  O         -1.8410   27.0890   17.5450 O.2    64  ASN64      -0.2867
     19  CB         0.2940   27.1770   19.4740 C.3    64  ASN64       0.1155
     20  CG         1.3230   27.7930   18.5430 C.2    64  ASN64       0.2627
     21  OD1        1.4340   27.4240   17.3690 O.2    64  ASN64      -0.2716
     22  ND2        2.0810   28.7480   19.0620 N.am   64  ASN64      -0.0877
     23  N          0.2880   26.8190   14.8080 N.3    66  HIS66      -0.1226
     24  CA         1.1050   27.6660   13.9380 C.3    66  HIS66       0.1752
     25  C          2.5830   27.3130   14.0470 C.2    66  HIS66       0.2596
     26  O          3.3700   27.6250   13.1520 O.2    66  HIS66      -0.2718
     27  CB         0.8960   29.1840   14.2770 C.3    66  HIS66       0.0759
     28  CG        -0.5390   29.6190   14.2480 C.ar   66  HIS66       0.0818
     29  ND1       -1.2980   29.6110   13.0960 N.ar   66  HIS66      -0.2268
     30  CD2       -1.3550   30.0660   15.2320 C.ar   66  HIS66       0.1154
     31  CE1       -2.5170   30.0380   13.3720 C.ar   66  HIS66       0.1986
     32  NE2       -2.5770   30.3190   14.6610 N.ar   66  HIS66      -0.2212
     33  N          2.9520   26.6380   15.1280 N.am   67  THR67      -0.1953
     34  CA         4.3350   26.2550   15.3550 C.3    67  THR67       0.1897
     35  C          4.4070   25.3770   16.6040 C.2    67  THR67       0.2313
     36  O          3.3750   25.0440   17.2040 O.2    67  THR67      -0.2863
     37  CB         5.2120   27.5250   15.5340 C.3    67  THR67       0.1794
     38  OG1        6.5810   27.1610   15.7250 O.3    67  THR67      -0.2208
     39  CG2        4.7280   28.3500   16.7170 C.3    67  THR67       0.0378
     40  N          5.3920   25.3120   20.1970 N.3    69  GLU69      -0.1245
     41  CA         5.6430   26.2310   21.2960 C.3    69  GLU69       0.1567
     42  C          6.2230   25.5130   22.5160 C.2    69  GLU69       0.2260
     43  O          5.7360   24.4580   22.9230 O.2    69  GLU69      -0.2867
     44  CB         4.3010   26.9590   21.6700 C.3    69  GLU69       0.0388
     45  CG         4.4500   28.1540   22.5980 C.3    69  GLU69       0.1160
     46  CD         3.1180   28.8220   22.9120 C.2    69  GLU69       0.3649
     47  OE1        2.1220   28.5580   22.2030 O.co2  69  GLU69      -0.2457
     48  OE2        3.0600   29.6150   23.8750 O.co2  69  GLU69      -0.2457
     49  N          9.8750   33.7690   28.0180 N.3    90  VAL90      -0.1231
     50  CA         8.4760   33.3500   28.1020 C.3    90  VAL90       0.1692
     51  C          8.2080   32.0700   27.2950 C.2    90  VAL90       0.2591
     52  O          7.7070   31.0890   27.8390 O.2    90  VAL90      -0.2718
     53  CB         7.5200   34.4920   27.6560 C.3    90  VAL90       0.0266
     54  CG1        6.2250   33.9320   27.0750 C.3    90  VAL90       0.0020
     55  CG2        7.1970   35.3860   28.8410 C.3    90  VAL90       0.0020
     56  N          8.5710   32.0730   26.0140 N.am   91  GLN91      -0.1979
     57  CA         8.3540   30.9220   25.1440 C.3    91  GLN91       0.1601
     58  C          9.4480   30.7980   24.0910 C.2    91  GLN91       0.2287
     59  O         10.2620   31.7030   23.9120 O.2    91  GLN91      -0.2864
     60  CB         6.9830   31.0460   24.4090 C.3    91  GLN91       0.0394
     61  CG         7.0060   32.0340   23.2570 C.3    91  GLN91       0.0908
     62  CD         5.8580   31.8350   22.3020 C.2    91  GLN91       0.2608
     63  OE1        6.0560   31.6060   21.1090 O.2    91  GLN91      -0.2717
     64  NE2        4.6470   31.8990   22.8220 N.am   91  GLN91      -0.0878
     65  N          9.8480   29.0440   19.9560 N.3    93  HIS93      -0.1241
     66  CA         9.2280   28.3530   18.8390 C.3    93  HIS93       0.1621
     67  C         10.1270   28.4520   17.6190 C.2    93  HIS93       0.2264
     68  O         11.1950   29.0650   17.6860 O.2    93  HIS93      -0.2867
     69  CB         7.8030   28.9310   18.5400 C.3    93  HIS93       0.0745
     70  CG         7.8050   30.3590   18.0910 C.ar   93  HIS93       0.0817
     71  ND1        7.4830   31.4230   18.9020 N.ar   93  HIS93      -0.2268
     72  CD2        8.0730   30.8930   16.8760 C.ar   93  HIS93       0.1154
     73  CE1        7.5640   32.5380   18.1720 C.ar   93  HIS93       0.1986
     74  NE2        7.9220   32.2660   16.9330 N.ar   93  HIS93      -0.2212
     75  N         10.3080   28.4100   12.9270 N.3    95  HIS95      -0.1241
     76  CA         9.6790   28.6180   11.6060 C.3    95  HIS95       0.1621
     77  C         10.5090   27.8260   10.5910 C.2    95  HIS95       0.2264
     78  O         11.7330   27.9710   10.5450 O.2    95  HIS95      -0.2867
     79  CB         9.6790   30.1350   11.2040 C.3    95  HIS95       0.0745
     80  CG         8.9660   31.0130   12.1760 C.ar   95  HIS95       0.0817
     81  ND1        7.6680   31.4460   12.0210 N.ar   95  HIS95      -0.2268
     82  CD2        9.3860   31.5320   13.3570 C.ar   95  HIS95       0.1154
     83  CE1        7.3480   32.1930   13.0870 C.ar   95  HIS95       0.1986
     84  NE2        8.3630   32.2730   13.9260 N.ar   95  HIS95      -0.2212
     85  N         13.0070   31.2970   17.5700 N.3   118  HIS118     -0.1241
     86  CA        12.6530   32.5250   18.2520 C.3   118  HIS118      0.1621
     87  C         12.4020   32.3650   19.7390 C.2   118  HIS118      0.2264
     88  O         11.4260   31.7330   20.1470 O.2   118  HIS118     -0.2867
     89  CB        11.4040   33.1770   17.5650 C.3   118  HIS118      0.0745
     90  CG        11.6900   33.7460   16.2160 C.ar  118  HIS118      0.0817
     91  ND1       10.7220   33.8480   15.2490 N.ar  118  HIS118     -0.2268
     92  CD2       12.8490   34.2710   15.7440 C.ar  118  HIS118      0.1154
     93  CE1       11.3030   34.4290   14.2170 C.ar  118  HIS118      0.1986
     94  NE2       12.5940   34.7060   14.4740 N.ar  118  HIS118     -0.2212
     95  N         11.3310   34.2620   22.7810 N.3   120  VAL120     -0.1245
     96  CA        10.6300   35.4850   23.1660 C.3   120  VAL120      0.1561
     97  C         10.8090   35.8770   24.6320 C.2   120  VAL120      0.2260
     98  O         10.7000   35.0360   25.5250 O.2   120  VAL120     -0.2867
     99  CB         9.1160   35.3610   22.8710 C.3   120  VAL120      0.0252
    100  CG1        8.4280   36.7090   23.0190 C.3   120  VAL120      0.0019
    101  CG2        8.8960   34.8060   21.4760 C.3   120  VAL120      0.0019
    102  N          9.5650   38.8440   27.5410 N.3   122  LYS122     -0.1245
    103  CA         8.6540   39.9390   27.8710 C.3   122  LYS122      0.1561
    104  C          9.3880   40.9370   28.7680 C.2   122  LYS122      0.2260
    105  O         10.1640   40.5430   29.6440 O.2   122  LYS122     -0.2867
    106  CB         7.3830   39.3860   28.6180 C.3   122  LYS122      0.0271
    107  CG         6.4730   40.4550   29.2110 C.3   122  LYS122      0.0035
    108  CD         5.5620   39.8800   30.3090 C.3   122  LYS122      0.0206
    109  CE         4.4890   38.9430   29.7480 C.3   122  LYS122      0.1093
    110  NZ         3.4700   39.6540   28.9100 N.3   122  LYS122     -0.1314
    111  N          9.3160   46.0720   24.8110 N.3   126  LYS126     -0.1231
    112  CA         8.1990   45.3060   25.3690 C.3   126  LYS126      0.1693
    113  C          8.5700   43.8470   25.1710 C.2   126  LYS126      0.2592
    114  O          8.4900   43.0400   26.0930 O.2   126  LYS126     -0.2718
    115  CB         6.8400   45.6180   24.6370 C.3   126  LYS126      0.0285
    116  CG         5.6480   44.7880   25.0980 C.3   126  LYS126      0.0035
    117  CD         5.2720   45.0400   26.5500 C.3   126  LYS126      0.0206
    118  CE         4.0110   44.2560   26.9500 C.3   126  LYS126      0.1093
    119  NZ         4.1870   42.7780   26.8380 N.3   126  LYS126     -0.1314
    120  N          8.9720   43.5180   23.9520 N.am  127  PHE127     -0.1976
    121  CA         9.3920   42.1740   23.6240 C.3   127  PHE127      0.1639
    122  C         10.8160   42.2070   23.1000 C.2   127  PHE127      0.2290
    123  O         11.1850   43.0820   22.3220 O.2   127  PHE127     -0.2864
    124  CB         8.4650   41.5570   22.5340 C.3   127  PHE127      0.0560
    125  CG         7.1790   41.0280   23.0650 C.ar  127  PHE127     -0.0200
    126  CD1        7.1690   39.9360   23.9230 C.ar  127  PHE127     -0.0042
    127  CD2        5.9720   41.6050   22.6970 C.ar  127  PHE127     -0.0042
    128  CE1        5.9730   39.4180   24.4080 C.ar  127  PHE127     -0.0003
    129  CE2        4.7670   41.0960   23.1750 C.ar  127  PHE127     -0.0003
    130  CZ         4.7690   39.9960   24.0340 C.ar  127  PHE127     -0.0000
    131  N         13.1010   39.6610   21.2370 N.3   129  VAL129     -0.1245
    132  CA        13.1220   38.3630   20.5870 C.3   129  VAL129      0.1561
    133  C         14.5090   38.0710   20.0380 C.2   129  VAL129      0.2260
    134  O         15.0670   38.8690   19.2790 O.2   129  VAL129     -0.2867
    135  CB        12.0820   38.2860   19.4310 C.3   129  VAL129      0.0252
    136  CG1       12.1730   36.9340   18.7230 C.3   129  VAL129      0.0019
    137  CG2       10.6690   38.5110   19.9670 C.3   129  VAL129      0.0019
    138  N          5.9720   41.6370   15.8350 N.3   188  LEU188     -0.1231
    139  CA         5.7070   40.1990   15.8640 C.3   188  LEU188      0.1693
    140  C          5.5370   39.8290   14.3890 C.2   188  LEU188      0.2593
    141  O          4.9920   40.6150   13.6120 O.2   188  LEU188     -0.2718
    142  CB         4.3490   39.8950   16.5980 C.3   188  LEU188      0.0284
    143  CG         4.2070   39.7480   18.1540 C.3   188  LEU188      0.0019
    144  CD1        4.9640   40.8200   18.8930 C.3   188  LEU188      0.0001
    145  CD2        2.7350   39.7950   18.5130 C.3   188  LEU188      0.0001
    146  N          5.9740   38.6380   14.0030 N.am  189  THR189     -0.1939
    147  CA         5.8570   38.2120   12.6150 C.3   189  THR189      0.2028
    148  C          4.5260   37.5140   12.3040 C.2   189  THR189      0.2643
    149  O          4.3310   36.9890   11.2060 O.2   189  THR189     -0.2714
    150  CB         7.0520   37.3280   12.2170 C.3   189  THR189      0.1808
    151  OG1        7.1370   36.1870   13.0840 O.3   189  THR189     -0.2208
    152  CG2        8.3430   38.1300   12.3050 C.3   189  THR189      0.0379
    153  N          3.6240   37.4940   13.2830 N.am  190  THR190     -0.1937
    154  CA         2.3000   36.8890   13.1380 C.3   190  THR190      0.2013
    155  C          1.3070   37.9260   13.6650 C.2   190  THR190      0.2484
    156  O          1.7080   38.8630   14.3620 O.2   190  THR190     -0.2729
    157  CB         2.1600   35.5860   13.9750 C.3   190  THR190      0.1807
    158  OG1        2.3640   35.8760   15.3620 O.3   190  THR190     -0.2208
    159  CG2        3.1690   34.5480   13.5420 C.3   190  THR190      0.0379
    160  N          0.0100   37.8000   13.3180 N.am  191  PRO191     -0.2726
    161  CA        -0.9850   38.7690   13.8010 C.3   191  PRO191      0.1402
    162  C         -1.0030   38.8220   15.3320 C.2   191  PRO191      0.2269
    163  O         -0.6980   37.8230   15.9880 O.2   191  PRO191     -0.2865
    164  CB        -2.3270   38.2050   13.2250 C.3   191  PRO191      0.0296
    165  CG        -1.8820   37.5280   11.9830 C.3   191  PRO191      0.0237
    166  CD        -0.6220   36.8060   12.4330 C.3   191  PRO191      0.0939
    167  N          2.1210   43.4090   16.5220 N.3   194  ASP194     -0.1239
    168  CA         2.3590   44.5520   17.3990 C.3   194  ASP194      0.1674
    169  C          3.8120   45.0110   17.2360 C.2   194  ASP194      0.2266
    170  O          4.7350   44.2180   17.4210 O.2   194  ASP194     -0.2867
    171  CB         2.0570   44.1540   18.9010 C.3   194  ASP194      0.1410
    172  CG         0.6210   43.6370   19.1070 C.2   194  ASP194      0.3668
    173  OD1        0.0580   42.9740   18.2020 O.co2 194  ASP194     -0.2456
    174  OD2        0.0540   43.8860   20.1940 O.co2 194  ASP194     -0.2456
    175  N         14.4120   43.3790   18.0350 N.3   199  TRP199     -0.1241
    176  CA        15.0080   42.1710   17.4590 C.3   199  TRP199      0.1605
    177  C         16.5200   42.0730   17.5220 C.2   199  TRP199      0.2264
    178  O         17.2320   43.0480   17.2770 O.2   199  TRP199     -0.2867
    179  CB        14.5800   41.9900   15.9600 C.3   199  TRP199      0.0550
    180  CG        13.1680   41.5520   15.7650 C.ar  199  TRP199      0.0003
    181  CD1       12.0760   42.3550   15.6280 C.ar  199  TRP199      0.0946
    182  CD2       12.6940   40.2050   15.6730 C.ar  199  TRP199      0.0152
    183  NE1       10.9490   41.5930   15.4560 N.ar  199  TRP199     -0.2442
    184  CE2       11.2990   40.2690   15.4770 C.ar  199  TRP199      0.0810
    185  CE3       13.3130   38.9480   15.7350 C.ar  199  TRP199      0.0012
    186  CZ2       10.5070   39.1220   15.3440 C.ar  199  TRP199      0.0191
    187  CZ3       12.5270   37.8070   15.6020 C.ar  199  TRP199      0.0001
    188  CH2       11.1390   37.9040   15.4060 C.ar  199  TRP199      0.0015
@<TRIPOS>BOND
     1     3     2    1
     2     3     4    2
     3     2     5    1
     4     2     1    1
     5    78    77    2
     6    77    76    1
     7     5     6    1
     8    11    13   ar
     9    11     8   ar
    10    79    76    1
    11    79    80    1
    12   149   148    2
    13    13    14   ar
    14    76    75    1
    15     6     8   ar
    16     6     7   ar
    17     8    10   ar
    18   165   166    1
    19   165   164    1
    20    81    80   ar
    21    81    83   ar
    22    80    82   ar
    23   150   152    1
    24   150   147    1
    25   150   151    1
    26   148   147    1
    27   148   153   am
    28   166   160    1
    29   147   146    1
    30    14    12   ar
    31    83    84   ar
    32    29    31   ar
    33    29    28   ar
    34   154   153    1
    35   154   155    1
    36   154   157    1
    37    26    25    2
    38   164   161    1
    39     7     9   ar
    40    10    12   ar
    41    10     9   ar
    42   160   155   am
    43   160   161    1
    44    82    84   ar
    45    31    32   ar
    46   159   157    1
    47   141   140    2
    48   155   156    2
    49   161   162    1
    50    24    25    1
    51    24    27    1
    52    24    23    1
    53   157   158    1
    54   146   140   am
    55    25    33   am
    56    93    94   ar
    57    93    91   ar
    58    28    27    1
    59    28    30   ar
    60   140   139    1
    61    94    92   ar
    62    32    30   ar
    63    33    34    1
    64    91    90   ar
    65   162   163    2
    66   186   188   ar
    67   186   184   ar
    68    34    37    1
    69    34    35    1
    70   188   187   ar
    71   183   184   ar
    72   183   181   ar
    73   184   182   ar
    74    37    38    1
    75    37    39    1
    76   187   185   ar
    77   181   180   ar
    78   182   185   ar
    79   182   180   ar
    80    92    90   ar
    81   180   179    1
    82   138   139    1
    83   139   142    1
    84   179   176    1
    85    90    89    1
    86   167   168    1
    87   142   143    1
    88    35    36    2
    89    72    74   ar
    90    72    70   ar
    91    74    73   ar
    92   169   168    1
    93   169   170    2
    94   178   177    2
    95    21    20    2
    96   168   171    1
    97   176   177    1
    98   176   175    1
    99    18    17    2
   100    89    86    1
   101    85    86    1
   102    67    68    2
   103    67    66    1
   104    17    16    1
   105    70    69    1
   106    70    71   ar
   107   143   145    1
   108   143   144    1
   109    73    71   ar
   110   173   172   ar
   111    86    87    1
   112    69    66    1
   113    20    22   am
   114    20    19    1
   115   136   135    1
   116    15    16    1
   117    66    65    1
   118   171   172    1
   119    16    19    1
   120   172   174   ar
   121   134   133    2
   122   135   137    1
   123   135   132    1
   124    87    88    2
   125   133   132    1
   126    40    41    1
   127   132   131    1
   128    63    62    2
   129    41    44    1
   130    41    42    1
   131   101    99    1
   132    44    45    1
   133    47    46   ar
   134    62    64   am
   135    62    61    1
   136   123   122    2
   137    42    43    2
   138   124   125    1
   139   124   121    1
   140    45    46    1
   141   127   125   ar
   142   127   129   ar
   143    95    96    1
   144    99   100    1
   145    99    96    1
   146    46    48   ar
   147   125   126   ar
   148   122   121    1
   149    96    97    1
   150   129   130   ar
   151    61    60    1
   152   121   120    1
   153    59    58    2
   154   126   128   ar
   155   120   113   am
   156   130   128   ar
   157    58    57    1
   158    60    57    1
   159    97    98    2
   160   115   116    1
   161   115   112    1
   162   111   112    1
   163   116   117    1
   164    57    56    1
   165   113   112    1
   166   113   114    2
   167    56    51   am
   168   117   118    1
   169   119   118    1
   170    54    53    1
   171    51    52    2
   172    51    50    1
   173   102   103    1
   174    53    50    1
   175    53    55    1
   176   103   106    1
   177   103   104    1
   178    49    50    1
   179   106   107    1
   180   104   105    2
   181   110   109    1
   182   107   108    1
   183   109   108    1
