@<TRIPOS>MOLECULE
tmp/3zniI00.pdb
 184 179 0 0 0
SMALL
GASTEIGER

@<TRIPOS>ATOM
      1  N         28.9330   -2.3860   -6.9480 N.3    31  PRO31      -0.2116
      2  CA        30.2650   -1.7710   -6.9350 C.3    31  PRO31       0.1372
      3  C         30.7200   -1.3060   -8.3190 C.2    31  PRO31       0.2244
      4  O         30.5610   -2.0390   -9.2970 O.2    31  PRO31      -0.2868
      5  CB        31.1680   -2.9010   -6.4350 C.3    31  PRO31       0.0268
      6  CG        30.2440   -3.8350   -5.6940 C.3    31  PRO31       0.0207
      7  CD        28.9500   -3.7690   -6.4360 C.3    31  PRO31       0.0892
      8  N         31.5990   -3.1400  -13.7700 N.3   226  TYR226     -0.1241
      9  CA        30.8240   -4.3230  -14.1100 C.3   226  TYR226      0.1605
     10  C         29.6480   -3.9740  -15.0130 C.2   226  TYR226      0.2264
     11  O         29.4240   -4.6260  -16.0320 O.2   226  TYR226     -0.2867
     12  CB        30.3060   -4.9620  -12.8210 C.3   226  TYR226      0.0534
     13  CG        29.5930   -6.2820  -12.9880 C.ar  226  TYR226     -0.0201
     14  CD1       28.2530   -6.3310  -13.3520 C.ar  226  TYR226     -0.0009
     15  CD2       30.2530   -7.4850  -12.7480 C.ar  226  TYR226     -0.0009
     16  CE1       27.5960   -7.5390  -13.4960 C.ar  226  TYR226      0.0417
     17  CE2       29.6030   -8.6940  -12.8890 C.ar  226  TYR226      0.0417
     18  CZ        28.2740   -8.7160  -13.2620 C.ar  226  TYR226      0.1957
     19  OH        27.6190   -9.9170  -13.4030 O.3   226  TYR226     -0.2866
     20  N         39.0700   -6.3700  -17.9730 N.3   246  ARG246     -0.1245
     21  CA        39.3720   -5.1660  -17.2140 C.3   246  ARG246      0.1563
     22  C         39.7140   -5.5100  -15.7720 C.2   246  ARG246      0.2260
     23  O         39.5560   -6.6510  -15.3380 O.2   246  ARG246     -0.2867
     24  CB        38.1700   -4.2190  -17.2400 C.3   246  ARG246      0.0307
     25  CG        36.8370   -4.9250  -17.0210 C.3   246  ARG246      0.0489
     26  CD        36.1970   -4.5540  -15.7110 C.3   246  ARG246      0.2205
     27  NE        35.0980   -5.4470  -15.3500 N.pl3 246  ARG246     -0.0865
     28  CZ        34.6200   -5.5660  -14.1120 C.cat 246  ARG246      0.5346
     29  NH1       35.1480   -4.8500  -13.1340 N.pl3 246  ARG246      0.1354
     30  NH2       33.6210   -6.4010  -13.8450 N.pl3 246  ARG246      0.1354
     31  N         39.1240   -5.9530  -12.0350 N.3   248  SER248     -0.1202
     32  CA        38.0360   -6.1240  -11.0890 C.3   248  SER248      0.2020
     33  C         38.0900   -4.9900  -10.0680 C.2   248  SER248      0.2619
     34  O         39.1690   -4.5970   -9.6270 O.2   248  SER248     -0.2717
     35  CB        38.1540   -7.4720  -10.3780 C.3   248  SER248      0.2103
     36  OG        37.3680   -7.4990   -9.1970 O.3   248  SER248     -0.2182
     37  N         36.9210   -4.4730   -9.7050 N.am  249  CYS249     -0.1955
     38  CA        36.7970   -3.4070   -8.7200 C.3   249  CYS249      0.1843
     39  C         36.7770   -3.9370   -7.2810 C.2   249  CYS249      0.2626
     40  O         37.3350   -3.3160   -6.3760 O.2   249  CYS249     -0.2714
     41  CB        35.5190   -2.6090   -8.9920 C.3   249  CYS249      0.0997
     42  SG        35.1340   -1.3350   -7.7910 S.3   249  CYS249     -0.0797
     43  N         36.1320   -5.0810   -7.0710 N.am  250  THR250     -0.1936
     44  CA        36.0020   -5.6350   -5.7280 C.3   250  THR250      0.2028
     45  C         37.1950   -6.4820   -5.2980 C.2   250  THR250      0.2642
     46  O         37.4400   -6.6320   -4.1060 O.2   250  THR250     -0.2714
     47  CB        34.7190   -6.4600   -5.5640 C.3   250  THR250      0.1808
     48  OG1       34.7420   -7.5640   -6.4750 O.3   250  THR250     -0.2208
     49  CG2       33.4990   -5.5960   -5.8370 C.3   250  THR250      0.0379
     50  N         37.9240   -7.0350   -6.2640 N.am  251  ARG251     -0.1977
     51  CA        39.1250   -7.8210   -5.9710 C.3   251  ARG251      0.1597
     52  C         40.3200   -7.2270   -6.6990 C.2   251  ARG251      0.2287
     53  O         40.7420   -7.7350   -7.7420 O.2   251  ARG251     -0.2864
     54  CB        38.9450   -9.2740   -6.4050 C.3   251  ARG251      0.0334
     55  CG        37.6460   -9.9020   -5.9550 C.3   251  ARG251      0.0492
     56  CD        37.6330  -11.3810   -6.2670 C.3   251  ARG251      0.2205
     57  NE        36.2750  -11.8970   -6.3710 N.pl3 251  ARG251     -0.0865
     58  CZ        35.9760  -13.1250   -6.7820 C.cat 251  ARG251      0.5346
     59  NH1       36.9440  -13.9680   -7.1240 N.pl3 251  ARG251      0.1354
     60  NH2       34.7080  -13.5080   -6.8510 N.pl3 251  ARG251      0.1354
     61  N         38.8020   -9.1780  -14.4690 N.3   256  ALA256     -0.1231
     62  CA        37.4280   -9.5960  -14.7150 C.3   256  ALA256      0.1694
     63  C         37.2240   -9.6900  -16.2210 C.2   256  ALA256      0.2591
     64  O         37.4380   -8.7150  -16.9410 O.2   256  ALA256     -0.2718
     65  CB        36.4460   -8.6070  -14.1090 C.3   256  ALA256      0.0304
     66  N         36.8220  -10.8640  -16.6950 N.am  257  ILE257     -0.1980
     67  CA        36.5820  -11.0740  -18.1160 C.3   257  ILE257      0.1595
     68  C         35.0900  -11.2210  -18.3910 C.2   257  ILE257      0.2287
     69  O         34.4380  -12.1160  -17.8540 O.2   257  ILE257     -0.2864
     70  CB        37.2870  -12.3430  -18.6240 C.3   257  ILE257      0.0276
     71  CG1       38.7830  -12.3010  -18.3000 C.3   257  ILE257      0.0022
     72  CG2       37.0500  -12.5220  -20.1190 C.3   257  ILE257      0.0022
     73  CD1       39.5010  -13.6150  -18.5740 C.3   257  ILE257      0.0001
     74  N         32.0460  -11.8700  -21.2670 N.3   259  TYR259     -0.1241
     75  CA        31.9080  -12.5110  -22.5700 C.3   259  TYR259      0.1605
     76  C         30.4650  -12.8240  -22.9450 C.2   259  TYR259      0.2264
     77  O         29.6070  -12.9970  -22.0810 O.2   259  TYR259     -0.2867
     78  CB        32.7650  -13.7790  -22.6510 C.3   259  TYR259      0.0534
     79  CG        32.3630  -14.8740  -21.6900 C.ar  259  TYR259     -0.0201
     80  CD1       32.6990  -14.8010  -20.3470 C.ar  259  TYR259     -0.0009
     81  CD2       31.6680  -15.9930  -22.1320 C.ar  259  TYR259     -0.0009
     82  CE1       32.3410  -15.8030  -19.4640 C.ar  259  TYR259      0.0417
     83  CE2       31.3070  -17.0040  -21.2560 C.ar  259  TYR259      0.0417
     84  CZ        31.6470  -16.9010  -19.9220 C.ar  259  TYR259      0.1957
     85  OH        31.2980  -17.8980  -19.0390 O.3   259  TYR259     -0.2866
     86  N         28.1920  -13.0580  -19.4510 N.3   267  LEU267     -0.1231
     87  CA        28.7520  -13.5050  -18.1850 C.3   267  LEU267      0.1693
     88  C         30.0630  -12.7830  -17.9040 C.2   267  LEU267      0.2592
     89  O         30.7680  -12.3720  -18.8260 O.2   267  LEU267     -0.2718
     90  CB        28.9760  -15.0170  -18.1950 C.3   267  LEU267      0.0284
     91  CG        27.7210  -15.8840  -18.2770 C.3   267  LEU267      0.0019
     92  CD1       28.0940  -17.3500  -18.3790 C.3   267  LEU267      0.0001
     93  CD2       26.8370  -15.6370  -17.0700 C.3   267  LEU267      0.0001
     94  N         30.3810  -12.6210  -16.6250 N.am  268  GLN268     -0.1966
     95  CA        31.6770  -12.0930  -16.2320 C.3   268  GLN268      0.1733
     96  C         32.3280  -13.0420  -15.2390 C.2   268  GLN268      0.2617
     97  O         31.6780  -13.5330  -14.3150 O.2   268  GLN268     -0.2715
     98  CB        31.5470  -10.6800  -15.6530 C.3   268  GLN268      0.0408
     99  CG        30.9990   -9.6790  -16.6580 C.3   268  GLN268      0.0908
    100  CD        31.1370   -8.2490  -16.2000 C.2   268  GLN268      0.2608
    101  OE1       32.2320   -7.7930  -15.8630 O.2   268  GLN268     -0.2717
    102  NE2       30.0230   -7.5290  -16.1820 N.am  268  GLN268     -0.0878
    103  N         33.6130  -13.3070  -15.4430 N.am  269  THR269     -0.1937
    104  CA        34.3370  -14.2510  -14.6040 C.3   269  THR269      0.2028
    105  C         35.6650  -13.6710  -14.1380 C.2   269  THR269      0.2642
    106  O         36.2430  -12.8020  -14.7880 O.2   269  THR269     -0.2714
    107  CB        34.6070  -15.5670  -15.3570 C.3   269  THR269      0.1808
    108  OG1       35.2430  -16.5050  -14.4790 O.3   269  THR269     -0.2208
    109  CG2       35.5010  -15.3190  -16.5600 C.3   269  THR269      0.0379
    110  N         36.1410  -14.1530  -13.0010 N.am  270  ILE270     -0.1963
    111  CA        37.4520  -13.7760  -12.5040 C.3   270  ILE270      0.1712
    112  C         38.3180  -15.0220  -12.4110 C.2   270  ILE270      0.2458
    113  O         37.9630  -15.9680  -11.7180 O.2   270  ILE270     -0.2730
    114  CB        37.3480  -13.0990  -11.1200 C.3   270  ILE270      0.0289
    115  CG1       36.7240  -11.7080  -11.2540 C.3   270  ILE270      0.0022
    116  CG2       38.7130  -13.0140  -10.4510 C.3   270  ILE270      0.0023
    117  CD1       36.5220  -10.9920   -9.9260 C.3   270  ILE270      0.0001
    118  N         39.4400  -15.0450  -13.1460 N.am  271  PRO271     -0.2716
    119  CA        40.4260  -16.1180  -12.9670 C.3   271  PRO271      0.1536
    120  C         41.2730  -15.8640  -11.7180 C.2   271  PRO271      0.2598
    121  O         42.3540  -15.2820  -11.8050 O.2   271  PRO271     -0.2715
    122  CB        41.2820  -16.0180  -14.2310 C.3   271  PRO271      0.0310
    123  CG        41.1640  -14.5980  -14.6550 C.3   271  PRO271      0.0237
    124  CD        39.7770  -14.1610  -14.2750 C.3   271  PRO271      0.0939
    125  N         40.7690  -16.2940  -10.5670 N.am  272  HIS272     -0.1974
    126  CA        41.4130  -16.0240   -9.2810 C.3   272  HIS272      0.1656
    127  C         42.8850  -16.4390   -9.2360 C.2   272  HIS272      0.2291
    128  O         43.2070  -17.6290   -9.2670 O.2   272  HIS272     -0.2864
    129  CB        40.6450  -16.7150   -8.1540 C.3   272  HIS272      0.0771
    130  CG        41.2790  -16.5580   -6.8080 C.ar  272  HIS272      0.0820
    131  ND1       41.4300  -15.3320   -6.1970 N.ar  272  HIS272     -0.2267
    132  CD2       41.8020  -17.4710   -5.9560 C.ar  272  HIS272      0.1154
    133  CE1       42.0160  -15.4960   -5.0250 C.ar  272  HIS272      0.1986
    134  NE2       42.2540  -16.7850   -4.8540 N.ar  272  HIS272     -0.2212
    135  N         45.2870  -16.4040  -11.4060 N.3   274  LYS274     -0.1245
    136  CA        45.8000  -17.1420  -12.5550 C.3   274  LYS274      0.1561
    137  C         46.2590  -16.1390  -13.6080 C.2   274  LYS274      0.2260
    138  O         45.7280  -15.0320  -13.6740 O.2   274  LYS274     -0.2867
    139  CB        44.7170  -18.0580  -13.1260 C.3   274  LYS274      0.0271
    140  CG        44.1360  -19.0300  -12.1130 C.3   274  LYS274      0.0035
    141  CD        42.9550  -19.7910  -12.6960 C.3   274  LYS274      0.0206
    142  CE        42.3250  -20.7080  -11.6580 C.3   274  LYS274      0.1093
    143  NZ        41.1660  -21.4590  -12.2200 N.3   274  LYS274     -0.1314
    144  N         44.5590  -17.5290  -19.4890 N.3   279  ALA279     -0.1245
    145  CA        43.1060  -17.4470  -19.5420 C.3   279  ALA279      0.1562
    146  C         42.5940  -17.1400  -20.9540 C.2   279  ALA279      0.2260
    147  O         41.6640  -17.7890  -21.4350 O.2   279  ALA279     -0.2867
    148  CB        42.6030  -16.4140  -18.5540 C.3   279  ALA279      0.0290
    149  N         40.7330  -19.6200  -23.3760 N.3   283  GLY283     -0.1225
    150  CA        39.3970  -19.2010  -23.7600 C.3   283  GLY283      0.1811
    151  C         39.2440  -19.0320  -25.2600 C.2   283  GLY283      0.2280
    152  O         38.1650  -19.2380  -25.8150 O.2   283  GLY283     -0.2866
    153  N         38.7880  -22.7350  -26.7400 N.3   286  GLU286     -0.1245
    154  CA        37.5130  -23.3960  -26.4980 C.3   286  GLU286      0.1567
    155  C         36.3450  -22.6250  -27.1070 C.2   286  GLU286      0.2260
    156  O         35.2040  -23.0780  -27.0540 O.2   286  GLU286     -0.2867
    157  CB        37.2990  -23.6290  -25.0000 C.3   286  GLU286      0.0388
    158  CG        38.3250  -24.5570  -24.3760 C.3   286  GLU286      0.1160
    159  CD        37.9670  -24.9570  -22.9570 C.2   286  GLU286      0.3649
    160  OE1       36.9460  -25.6560  -22.7740 O.co2 286  GLU286     -0.2457
    161  OE2       38.7100  -24.5780  -22.0260 O.co2 286  GLU286     -0.2457
    162  N         35.3270  -19.3530  -26.4140 N.3   288  PHE288     -0.1227
    163  CA        34.6330  -18.3760  -25.5830 C.3   288  PHE288      0.1736
    164  C         35.1420  -16.9620  -25.8230 C.2   288  PHE288      0.2595
    165  O         34.3680  -16.0070  -25.8050 O.2   288  PHE288     -0.2718
    166  CB        34.7660  -18.7270  -24.1010 C.3   288  PHE288      0.0547
    167  CG        34.1810  -20.0570  -23.7420 C.ar  288  PHE288     -0.0202
    168  CD1       32.8140  -20.2050  -23.5790 C.ar  288  PHE288     -0.0042
    169  CD2       34.9980  -21.1610  -23.5620 C.ar  288  PHE288     -0.0042
    170  CE1       32.2720  -21.4290  -23.2470 C.ar  288  PHE288     -0.0003
    171  CE2       34.4610  -22.3850  -23.2320 C.ar  288  PHE288     -0.0003
    172  CZ        33.0940  -22.5190  -23.0740 C.ar  288  PHE288     -0.0000
    173  N         36.4470  -16.8330  -26.0380 N.am  289  TYR289     -0.1976
    174  CA        37.0690  -15.5270  -26.2130 C.3   289  TYR289      0.1639
    175  C         37.6300  -15.4050  -27.6250 C.2   289  TYR289      0.2290
    176  O         38.7940  -15.7260  -27.8670 O.2   289  TYR289     -0.2864
    177  CB        38.1910  -15.3180  -25.1840 C.3   289  TYR289      0.0560
    178  CG        37.7820  -15.5590  -23.7430 C.ar  289  TYR289     -0.0198
    179  CD1       36.4850  -15.3040  -23.3100 C.ar  289  TYR289     -0.0009
    180  CD2       38.6990  -16.0410  -22.8130 C.ar  289  TYR289     -0.0009
    181  CE1       36.1120  -15.5320  -21.9950 C.ar  289  TYR289      0.0417
    182  CE2       38.3340  -16.2740  -21.4970 C.ar  289  TYR289      0.0417
    183  CZ        37.0410  -16.0150  -21.0940 C.ar  289  TYR289      0.1957
    184  OH        36.6780  -16.2380  -19.7850 O.3   289  TYR289     -0.2866
@<TRIPOS>BOND
     1   176   175    2
     2   175   174    1
     3   155   156    2
     4   155   154    1
     5   153   154    1
     6   154   157    1
     7   162   163    1
     8   174   173    1
     9   174   177    1
    10   173   164   am
    11   164   165    2
    12   164   163    1
    13   152   151    2
    14   163   166    1
    15   151   150    1
    16   177   178    1
    17   157   158    1
    18   158   159    1
    19   166   167    1
    20   150   149    1
    21   178   179   ar
    22   178   180   ar
    23   167   168   ar
    24   167   169   ar
    25   168   170   ar
    26   169   171   ar
    27   179   181   ar
    28   170   172   ar
    29   171   172   ar
    30   159   160   ar
    31   159   161   ar
    32    76    75    1
    33    76    77    2
    34   180   182   ar
    35    78    75    1
    36    78    79    1
    37    75    74    1
    38    81    79   ar
    39    81    83   ar
    40   181   183   ar
    41    79    80   ar
    42   182   183   ar
    43   147   146    2
    44    83    84   ar
    45   183   184    1
    46   146   145    1
    47    80    82   ar
    48    72    70    1
    49    84    82   ar
    50    84    85    1
    51   145   144    1
    52   145   148    1
    53    86    87    1
    54    89    88    2
    55    70    71    1
    56    70    67    1
    57    73    71    1
    58    68    67    1
    59    68    69    2
    60    92    91    1
    61    91    90    1
    62    91    93    1
    63    90    87    1
    64    87    88    1
    65    67    66    1
    66    20    21    1
    67    88    94   am
    68    24    21    1
    69    24    25    1
    70    21    22    1
    71    25    26    1
    72    64    63    2
    73    66    63   am
    74    99   100    1
    75    99    98    1
    76    94    95    1
    77   109   107    1
    78    95    98    1
    79    95    96    1
    80    63    62    1
    81   100   102   am
    82   100   101    2
    83    11    10    2
    84    22    23    2
    85    26    27    1
    86   103    96   am
    87   103   104    1
    88   107   104    1
    89   107   108    1
    90    27    28    2
    91    96    97    2
    92    10     9    1
    93   106   105    2
    94    62    61    1
    95    62    65    1
    96   123   124    1
    97   123   122    1
    98   104   105    1
    99   124   118    1
   100   122   119    1
   101   105   110   am
   102    28    30    1
   103    28    29    1
   104     9     8    1
   105     9    12    1
   106   138   137    2
   107   137   136    1
   108    16    14   ar
   109    16    18   ar
   110    19    18    1
   111    14    13   ar
   112    18    17   ar
   113   118   119    1
   114   118   112   am
   115   139   136    1
   116   139   140    1
   117   110   111    1
   118    13    12    1
   119    13    15   ar
   120   119   120    1
   121    17    15   ar
   122   141   140    1
   123   141   142    1
   124   136   135    1
   125   111   112    1
   126   111   114    1
   127   112   113    2
   128   143   142    1
   129    31    32    1
   130   121   120    2
   131   120   125   am
   132   115   114    1
   133   115   117    1
   134   114   116    1
   135    32    35    1
   136    32    33    1
   137   125   126    1
   138    35    36    1
   139    33    37   am
   140    33    34    2
   141    37    38    1
   142     4     3    2
   143   126   127    1
   144   126   129    1
   145   128   127    2
   146    41    38    1
   147    41    42    1
   148    38    39    1
   149     3     2    1
   150   129   130    1
   151    53    52    2
   152    39    43   am
   153    39    40    2
   154    59    58    1
   155    43    44    1
   156     1     2    1
   157     1     7    1
   158     2     5    1
   159    60    58    1
   160   130   131   ar
   161   130   132   ar
   162    58    57    2
   163    52    51    1
   164    48    47    1
   165     7     6    1
   166     5     6    1
   167    54    51    1
   168    54    55    1
   169    57    56    1
   170    56    55    1
   171    50    51    1
   172    50    45   am
   173   131   133   ar
   174   132   134   ar
   175    49    47    1
   176    44    47    1
   177    44    45    1
   178    45    46    2
   179   133   134   ar
