@<TRIPOS>MOLECULE
tmp/3zniA00.pdb
 174 168 0 0 0
SMALL
GASTEIGER

@<TRIPOS>ATOM
      1  N         23.7200  -37.5580   17.8120 N.3    34  PRO34      -0.2116
      2  CA        22.3520  -37.7940   18.2890 C.3    34  PRO34       0.1372
      3  C         21.9850  -39.2690   18.1740 C.2    34  PRO34       0.2244
      4  O         22.3080  -39.8870   17.1630 O.2    34  PRO34      -0.2868
      5  CB        21.4940  -36.9590   17.3310 C.3    34  PRO34       0.0268
      6  CG        22.4280  -35.9350   16.7600 C.3    34  PRO34       0.0207
      7  CD        23.7620  -36.6180   16.6790 C.3    34  PRO34       0.0892
      8  N         21.7610  -43.6130   14.3510 N.3   229  TYR229     -0.1241
      9  CA        22.6530  -43.3800   13.2210 C.3   229  TYR229      0.1605
     10  C         23.9100  -44.2360   13.3300 C.2   229  TYR229      0.2264
     11  O         24.3330  -44.8500   12.3580 O.2   229  TYR229     -0.2867
     12  CB        23.0410  -41.8930   13.1590 C.3   229  TYR229      0.0534
     13  CG        23.8680  -41.5110   11.9480 C.ar  229  TYR229     -0.0201
     14  CD1       25.2390  -41.7560   11.9080 C.ar  229  TYR229     -0.0009
     15  CD2       23.2780  -40.8990   10.8460 C.ar  229  TYR229     -0.0009
     16  CE1       25.9970  -41.4140   10.8020 C.ar  229  TYR229      0.0417
     17  CE2       24.0290  -40.5510    9.7350 C.ar  229  TYR229      0.0417
     18  CZ        25.3870  -40.8110    9.7190 C.ar  229  TYR229      0.1957
     19  OH        26.1420  -40.4670    8.6220 O.3   229  TYR229     -0.2866
     20  N         15.0720  -46.8200    9.1450 N.3   249  ARG249     -0.1245
     21  CA        14.5510  -46.6270   10.4900 C.3   249  ARG249      0.1563
     22  C         14.0780  -45.1930   10.6760 C.2   249  ARG249      0.2260
     23  O         14.3140  -44.3320    9.8230 O.2   249  ARG249     -0.2867
     24  CB        15.6250  -46.9610   11.5310 C.3   249  ARG249      0.0307
     25  CG        17.0200  -46.4530   11.1800 C.3   249  ARG249      0.0489
     26  CD        17.3300  -45.1250   11.8410 C.3   249  ARG249      0.2205
     27  NE        18.5670  -44.5360   11.3320 N.pl3 249  ARG249     -0.0865
     28  CZ        19.0290  -43.3430   11.6960 C.cat 249  ARG249      0.5346
     29  NH1       18.3600  -42.6150   12.5840 N.pl3 249  ARG249      0.1354
     30  NH2       20.1580  -42.8760   11.1760 N.pl3 249  ARG249      0.1354
     31  N         14.2420  -41.5530   11.7590 N.3   251  SER251     -0.1202
     32  CA        15.2700  -40.5520   12.0340 C.3   251  SER251      0.2020
     33  C         15.0850  -39.9920   13.4340 C.2   251  SER251      0.2619
     34  O         13.9640  -39.7080   13.8570 O.2   251  SER251     -0.2717
     35  CB        15.1960  -39.4070   11.0250 C.3   251  SER251      0.2103
     36  OG        15.9510  -38.2900   11.4670 O.3   251  SER251     -0.2182
     37  N         16.1950  -39.8200   14.1400 N.am  252  CYS252     -0.1955
     38  CA        16.1880  -39.3140   15.5020 C.3   252  CYS252      0.1843
     39  C         16.0740  -37.7820   15.5640 C.2   252  CYS252      0.2626
     40  O         15.3730  -37.2390   16.4220 O.2   252  CYS252     -0.2714
     41  CB        17.4530  -39.7940   16.2150 C.3   252  CYS252      0.0997
     42  SG        17.7080  -39.1580   17.8690 S.3   252  CYS252     -0.0797
     43  N         16.7590  -37.0860   14.6580 N.am  253  THR253     -0.1936
     44  CA        16.7340  -35.6180   14.6460 C.3   253  THR253      0.2028
     45  C         15.5630  -35.0250   13.8570 C.2   253  THR253      0.2642
     46  O         15.2080  -33.8640   14.0500 O.2   253  THR253     -0.2714
     47  CB        18.0530  -35.0260   14.1100 C.3   253  THR253      0.1808
     48  OG1       18.2530  -35.4490   12.7560 O.3   253  THR253     -0.2208
     49  CG2       19.2290  -35.4920   14.9580 C.3   253  THR253      0.0379
     50  N         14.9600  -35.8140   12.9730 N.am  254  ARG254     -0.1977
     51  CA        13.8020  -35.3400   12.2150 C.3   254  ARG254      0.1597
     52  C         12.6360  -36.2970   12.3870 C.2   254  ARG254      0.2287
     53  O         12.3220  -37.0820   11.4890 O.2   254  ARG254     -0.2864
     54  CB        14.1350  -35.1850   10.7300 C.3   254  ARG254      0.0334
     55  CG        15.3400  -34.2970   10.4520 C.3   254  ARG254      0.0492
     56  CD        15.5330  -34.0970    8.9630 C.3   254  ARG254      0.2205
     57  NE        16.9340  -33.8810    8.6220 N.pl3 254  ARG254     -0.0865
     58  CZ        17.3970  -33.7750    7.3810 C.cat 254  ARG254      0.5346
     59  NH1       16.5680  -33.8590    6.3480 N.pl3 254  ARG254      0.1354
     60  NH2       18.6920  -33.5810    7.1720 N.pl3 254  ARG254      0.1354
     61  N         15.1000  -42.5410    7.7530 N.3   259  ALA259     -0.1231
     62  CA        16.5080  -42.5250    7.3900 C.3   259  ALA259      0.1694
     63  C         16.8740  -43.8640    6.7570 C.2   259  ALA259      0.2591
     64  O         16.6640  -44.9250    7.3530 O.2   259  ALA259     -0.2718
     65  CB        17.3670  -42.2660    8.6070 C.3   259  ALA259      0.0304
     66  N         17.4120  -43.8150    5.5440 N.am  260  ILE260     -0.1980
     67  CA        17.8360  -45.0290    4.8660 C.3   260  ILE260      0.1595
     68  C         19.3520  -45.1030    4.8430 C.2   260  ILE260      0.2287
     69  O         20.0180  -44.1870    4.3670 O.2   260  ILE260     -0.2864
     70  CB        17.3020  -45.0970    3.4190 C.3   260  ILE260      0.0276
     71  CG1       15.7930  -44.8450    3.3920 C.3   260  ILE260      0.0022
     72  CG2       17.6380  -46.4450    2.7850 C.3   260  ILE260      0.0022
     73  CD1       15.2170  -44.7960    1.9950 C.3   260  ILE260      0.0001
     74  N         22.6630  -47.2260    3.4760 N.3   262  TYR262     -0.1241
     75  CA        23.0140  -48.1800    2.4340 C.3   262  TYR262      0.1605
     76  C         24.5170  -48.2980    2.2210 C.2   262  TYR262      0.2264
     77  O         25.2820  -47.3930    2.5640 O.2   262  TYR262     -0.2867
     78  CB        22.3050  -47.8340    1.1200 C.3   262  TYR262      0.0534
     79  CG        22.6980  -46.5050    0.5160 C.ar  262  TYR262     -0.0201
     80  CD1       22.1530  -45.3160    0.9870 C.ar  262  TYR262     -0.0009
     81  CD2       23.6020  -46.4400   -0.5380 C.ar  262  TYR262     -0.0009
     82  CE1       22.5010  -44.1000    0.4310 C.ar  262  TYR262      0.0417
     83  CE2       23.9600  -45.2280   -1.0990 C.ar  262  TYR262      0.0417
     84  CZ        23.4050  -44.0610   -0.6110 C.ar  262  TYR262      0.1957
     85  OH        23.7590  -42.8550   -1.1710 O.3   262  TYR262     -0.2866
     86  N         26.4380  -44.8600    3.7300 N.3   270  LEU270     -0.1231
     87  CA        25.7900  -43.5530    3.6730 C.3   270  LEU270      0.1693
     88  C         24.3610  -43.6280    4.1820 C.2   270  LEU270      0.2592
     89  O         23.6940  -44.6490    4.0340 O.2   270  LEU270     -0.2718
     90  CB        25.7920  -43.0160    2.2420 C.3   270  LEU270      0.0284
     91  CG        27.1560  -42.6390    1.6660 C.3   270  LEU270      0.0019
     92  CD1       26.9940  -42.1130    0.2510 C.3   270  LEU270      0.0001
     93  CD2       27.8330  -41.6050    2.5490 C.3   270  LEU270      0.0001
     94  N         23.8930  -42.5380    4.7810 N.am  271  GLN271     -0.1966
     95  CA        22.5290  -42.4700    5.2830 C.3   271  GLN271      0.1733
     96  C         21.8250  -41.2440    4.7250 C.2   271  GLN271      0.2617
     97  O         22.3900  -40.1500    4.7010 O.2   271  GLN271     -0.2715
     98  CB        22.5150  -42.4560    6.8110 C.3   271  GLN271      0.0408
     99  CG        23.3560  -43.5630    7.4290 C.3   271  GLN271      0.0908
    100  CD        23.0100  -43.8270    8.8770 C.2   271  GLN271      0.2608
    101  OE1       21.8430  -43.7860    9.2640 O.2   271  GLN271     -0.2717
    102  NE2       24.0230  -44.1020    9.6860 N.am  271  GLN271     -0.0878
    103  N         20.5910  -41.4340    4.2690 N.am  272  THR272     -0.1937
    104  CA        19.8460  -40.3580    3.6290 C.3   272  THR272      0.2028
    105  C         18.4070  -40.2890    4.1160 C.2   272  THR272      0.2642
    106  O         17.8380  -41.2910    4.5510 O.2   272  THR272     -0.2714
    107  CB        19.8460  -40.5020    2.0890 C.3   272  THR272      0.1808
    108  OG1       19.1380  -39.4010    1.5050 O.3   272  THR272     -0.2208
    109  CG2       19.1850  -41.8070    1.6670 C.3   272  THR272      0.0379
    110  N         17.8290  -39.0950    4.0370 N.am  273  ILE273     -0.1963
    111  CA        16.4350  -38.8760    4.3940 C.3   273  ILE273      0.1712
    112  C         15.6540  -38.3950    3.1820 C.2   273  ILE273      0.2458
    113  O         15.9330  -37.3280    2.6470 O.2   273  ILE273     -0.2730
    114  CB        16.2930  -37.8210    5.5120 C.3   273  ILE273      0.0289
    115  CG1       16.8630  -38.3480    6.8340 C.3   273  ILE273      0.0022
    116  CG2       14.8290  -37.4100    5.6770 C.3   273  ILE273      0.0023
    117  CD1       16.8590  -37.3100    7.9550 C.3   273  ILE273      0.0001
    118  N         14.6830  -39.1960    2.7270 N.am  274  PRO274     -0.2727
    119  CA        13.7600  -38.6860    1.7140 C.3   274  PRO274      0.1402
    120  C         12.7820  -37.7490    2.3990 C.2   274  PRO274      0.2269
    121  O         11.8300  -38.2070    3.0250 O.2   274  PRO274     -0.2865
    122  CB        13.0520  -39.9480    1.2200 C.3   274  PRO274      0.0296
    123  CG        13.1480  -40.9080    2.3440 C.3   274  PRO274      0.0237
    124  CD        14.4180  -40.6030    3.0720 C.3   274  PRO274      0.0939
    125  N          8.8050  -37.3700    1.6580 N.3   277  LYS277     -0.1245
    126  CA         8.4350  -38.2000    0.5130 C.3   277  LYS277      0.1561
    127  C          8.1250  -39.6070    1.0190 C.2   277  LYS277      0.2260
    128  O          8.7940  -40.0990    1.9270 O.2   277  LYS277     -0.2867
    129  CB         9.5670  -38.2390   -0.5240 C.3   277  LYS277      0.0271
    130  CG         9.8960  -36.9000   -1.1190 C.3   277  LYS277      0.0035
    131  CD        10.9930  -36.9870   -2.1610 C.3   277  LYS277      0.0206
    132  CE        12.3270  -36.4880   -1.6490 C.3   277  LYS277      0.1093
    133  NZ        12.3020  -35.0640   -1.2950 N.3   277  LYS277     -0.1314
    134  N         10.4460  -44.3110   -2.4040 N.3   282  ALA282     -0.1245
    135  CA        11.8890  -44.1760   -2.2360 C.3   282  ALA282      0.1562
    136  C         12.5950  -45.5260   -2.2980 C.2   282  ALA282      0.2260
    137  O         13.6830  -45.6360   -2.8640 O.2   282  ALA282     -0.2867
    138  CB        12.2090  -43.4670   -0.9250 C.3   282  ALA282      0.0290
    139  N         14.9550  -46.6520   -5.2760 N.3   286  GLY286     -0.1225
    140  CA        16.2660  -47.0460   -4.7980 C.3   286  GLY286      0.1811
    141  C         16.6470  -48.4280   -5.2900 C.2   286  GLY286      0.2280
    142  O         17.8060  -48.6890   -5.6120 O.2   286  GLY286     -0.2866
    143  N         17.3650  -48.3350   -9.3250 N.3   289  GLU289     -0.1245
    144  CA        18.6540  -47.7890   -9.7270 C.3   289  GLU289      0.1567
    145  C         19.8000  -48.5230   -9.0400 C.2   289  GLU289      0.2260
    146  O         20.9460  -48.0750   -9.0740 O.2   289  GLU289     -0.2867
    147  CB        18.7120  -46.2930   -9.4260 C.3   289  GLU289      0.0388
    148  CG        17.5740  -45.5000  -10.0500 C.3   289  GLU289      0.1160
    149  CD        17.4720  -44.0930   -9.4930 C.2   289  GLU289      0.3649
    150  OE1       18.3700  -43.6880   -8.7260 O.co2 289  GLU289     -0.2457
    151  OE2       16.4890  -43.3930   -9.8150 O.co2 289  GLU289     -0.2457
    152  N         20.5340  -49.1830   -5.8370 N.3   291  PHE291     -0.1227
    153  CA        21.1200  -48.6790   -4.6000 C.3   291  PHE291      0.1736
    154  C         20.6670  -49.4950   -3.3960 C.2   291  PHE291      0.2595
    155  O         21.4760  -49.8560   -2.5400 O.2   291  PHE291     -0.2718
    156  CB        20.7710  -47.2050   -4.3900 C.3   291  PHE291      0.0547
    157  CG        21.3590  -46.2920   -5.4230 C.ar  291  PHE291     -0.0202
    158  CD1       22.7270  -46.0890   -5.4880 C.ar  291  PHE291     -0.0042
    159  CD2       20.5440  -45.6290   -6.3250 C.ar  291  PHE291     -0.0042
    160  CE1       23.2720  -45.2490   -6.4390 C.ar  291  PHE291     -0.0003
    161  CE2       21.0830  -44.7850   -7.2750 C.ar  291  PHE291     -0.0003
    162  CZ        22.4480  -44.5960   -7.3330 C.ar  291  PHE291     -0.0000
    163  N         19.3680  -49.7700   -3.3290 N.am  292  TYR292     -0.1976
    164  CA        18.8030  -50.5380   -2.2260 C.3   292  TYR292      0.1639
    165  C         18.4250  -51.9120   -2.7470 C.2   292  TYR292      0.2290
    166  O         17.3350  -52.0960   -3.2910 O.2   292  TYR292     -0.2864
    167  CB        17.5550  -49.8560   -1.6550 C.3   292  TYR292      0.0560
    168  CG        17.6850  -48.3680   -1.3860 C.ar  292  TYR292     -0.0198
    169  CD1       18.9120  -47.7870   -1.0920 C.ar  292  TYR292     -0.0009
    170  CD2       16.5670  -47.5460   -1.4220 C.ar  292  TYR292     -0.0009
    171  CE1       19.0180  -46.4270   -0.8500 C.ar  292  TYR292      0.0417
    172  CE2       16.6620  -46.1920   -1.1880 C.ar  292  TYR292      0.0417
    173  CZ        17.8860  -45.6360   -0.8990 C.ar  292  TYR292      0.1957
    174  OH        17.9700  -44.2810   -0.6580 O.3   292  TYR292     -0.2866
@<TRIPOS>BOND
     1   148   149    1
     2   148   147    1
     3   151   149   ar
     4   144   147    1
     5   144   143    1
     6   144   145    1
     7   149   150   ar
     8   146   145    2
     9   162   161   ar
    10   162   160   ar
    11   161   159   ar
    12   160   158   ar
    13   159   157   ar
    14   152   153    1
    15   142   141    2
    16   158   157   ar
    17   157   156    1
    18   141   140    1
    19   139   140    1
    20   153   156    1
    21   153   154    1
    22   154   163   am
    23   154   155    2
    24   163   164    1
    25   166   165    2
    26   137   136    2
    27   165   164    1
    28   134   135    1
    29   136   135    1
    30   135   138    1
    31   164   167    1
    32   131   132    1
    33   131   130    1
    34   167   168    1
    35   132   133    1
    36   170   168   ar
    37   170   172   ar
    38   168   169   ar
    39   172   173   ar
    40    85    84    1
    41   130   129    1
    42    83    84   ar
    43    83    81   ar
    44   169   171   ar
    45   173   171   ar
    46   173   174    1
    47    84    82   ar
    48    81    79   ar
    49   129   126    1
    50    92    91    1
    51    82    80   ar
    52   126   127    1
    53   126   125    1
    54    79    80   ar
    55    79    78    1
    56   127   128    2
    57    78    75    1
    58   122   119    1
    59   122   123    1
    60   108   107    1
    61    91    90    1
    62    91    93    1
    63   109   107    1
    64   119   120    1
    65   119   118    1
    66    73    71    1
    67   107   104    1
    68    76    75    1
    69    76    77    2
    70    90    87    1
    71   123   124    1
    72   120   121    2
    73    75    74    1
    74   113   112    2
    75   118   124    1
    76   118   112   am
    77    72    70    1
    78   112   111    1
    79    71    70    1
    80    70    67    1
    81   104   105    1
    82   104   103    1
    83    87    86    1
    84    87    88    1
    85    89    88    2
    86   110   105   am
    87   110   111    1
    88   105   106    2
    89    88    94   am
    90   103    96   am
    91    69    68    2
    92   111   114    1
    93    97    96    2
    94    96    95    1
    95    94    95    1
    96    68    67    1
    97    67    66    1
    98    95    98    1
    99   114   116    1
   100   114   115    1
   101    66    63   am
   102    59    58    1
   103    63    64    2
   104    63    62    1
   105    98    99    1
   106   115   117    1
   107    60    58    1
   108    58    57    2
   109    62    61    1
   110    62    65    1
   111    99   100    1
   112    19    18    1
   113    57    56    1
   114   100   101    2
   115   100   102   am
   116    56    55    1
   117    20    21    1
   118    18    17   ar
   119    18    16   ar
   120    17    15   ar
   121    23    22    2
   122    55    54    1
   123    21    22    1
   124    21    24    1
   125    54    51    1
   126    16    14   ar
   127    15    13   ar
   128    35    36    1
   129    35    32    1
   130    30    28    1
   131    25    24    1
   132    25    26    1
   133    27    28    2
   134    27    26    1
   135    53    52    2
   136    28    29    1
   137    31    32    1
   138    14    13   ar
   139    13    12    1
   140    32    33    1
   141    51    52    1
   142    51    50    1
   143    11    10    2
   144    48    47    1
   145    50    45   am
   146    12     9    1
   147     9    10    1
   148     9     8    1
   149    33    34    2
   150    33    37   am
   151    45    46    2
   152    45    44    1
   153    47    44    1
   154    47    49    1
   155    37    38    1
   156    44    43    1
   157    43    39   am
   158    38    39    1
   159    38    41    1
   160    39    40    2
   161    41    42    1
   162     7     6    1
   163     7     1    1
   164     6     5    1
   165     4     3    2
   166     5     2    1
   167     1     2    1
   168     3     2    1
