@<TRIPOS>MOLECULE
tmp/3znkA01.pdb
 141 133 0 0 0
SMALL
GASTEIGER

@<TRIPOS>ATOM
      1  N          7.3450   61.6660   87.3360 N.3    91  TYR91      -0.1241
      2  CA         8.2940   61.8290   88.4320 C.3    91  TYR91       0.1605
      3  C          9.7020   61.8160   87.8390 C.2    91  TYR91       0.2264
      4  O         10.0810   60.8370   87.1940 O.2    91  TYR91      -0.2867
      5  CB         8.1430   60.7130   89.4730 C.3    91  TYR91       0.0534
      6  CG         8.7350   61.0650   90.8260 C.ar   91  TYR91      -0.0201
      7  CD1       10.0890   60.8690   91.0920 C.ar   91  TYR91      -0.0009
      8  CD2        7.9410   61.6110   91.8350 C.ar   91  TYR91      -0.0009
      9  CE1       10.6340   61.1980   92.3260 C.ar   91  TYR91       0.0417
     10  CE2        8.4760   61.9440   93.0730 C.ar   91  TYR91       0.0417
     11  CZ         9.8230   61.7370   93.3150 C.ar   91  TYR91       0.1957
     12  OH        10.3480   62.0690   94.5450 O.3    91  TYR91      -0.2866
     13  N         -0.3210   54.8990   99.7070 N.3   129  LEU129     -0.1231
     14  CA         0.1060   56.2970   99.7640 C.3   129  LEU129      0.1693
     15  C          1.4810   56.4540   99.1250 C.2   129  LEU129      0.2593
     16  O          2.3420   57.1700   99.6340 O.2   129  LEU129     -0.2718
     17  CB         0.1190   56.8120  101.2060 C.3   129  LEU129      0.0284
     18  CG        -1.1650   56.5810  102.0110 C.3   129  LEU129      0.0019
     19  CD1       -1.0500   55.3160  102.8440 C.3   129  LEU129      0.0001
     20  CD2       -1.4700   57.7690  102.9100 C.3   129  LEU129      0.0001
     21  N          1.6740   55.7680   98.0020 N.am  130  GLY130     -0.1942
     22  CA         2.9060   55.8580   97.2300 C.3   130  GLY130      0.2014
     23  C          2.7050   56.7250   96.0030 C.2   130  GLY130      0.2639
     24  O          2.8690   56.2610   94.8710 O.2   130  GLY130     -0.2714
     25  N          2.3470   57.9880   96.2370 N.am  131  VAL131     -0.1963
     26  CA         1.9970   58.9160   95.1600 C.3   131  VAL131      0.1727
     27  C          2.7800   60.2280   95.2400 C.2   131  VAL131      0.2617
     28  O          3.4690   60.5020   96.2230 O.2   131  VAL131     -0.2715
     29  CB         0.4800   59.2340   95.1570 C.3   131  VAL131      0.0290
     30  CG1       -0.3420   57.9570   95.2990 C.3   131  VAL131      0.0023
     31  CG2        0.1210   60.2280   96.2570 C.3   131  VAL131      0.0023
     32  N          2.6530   61.0290   94.1870 N.am  132  SER132     -0.1936
     33  CA         3.2700   62.3500   94.1100 C.3   132  SER132      0.2055
     34  C          2.4120   63.2610   93.2390 C.2   132  SER132      0.2643
     35  O          1.6600   62.7830   92.3880 O.2   132  SER132     -0.2714
     36  CB         4.6810   62.2460   93.5250 C.3   132  SER132      0.2130
     37  OG         5.1580   63.5100   93.0880 O.3   132  SER132     -0.2179
     38  N          2.5330   64.5690   93.4520 N.am  133  SER133     -0.1949
     39  CA         1.7840   65.5550   92.6680 C.3   133  SER133      0.1924
     40  C          2.3480   65.7260   91.2490 C.2   133  SER133      0.2314
     41  O          1.6860   66.3070   90.3860 O.2   133  SER133     -0.2863
     42  CB         1.7560   66.9030   93.3930 C.3   133  SER133      0.2116
     43  OG         3.0670   67.4020   93.5800 O.3   133  SER133     -0.2180
     44  N         -3.1750   63.4610   93.2710 N.3   141  SER141     -0.1217
     45  CA        -1.8010   62.9990   93.1150 C.3   141  SER141      0.1889
     46  C         -1.7560   61.4730   92.9760 C.2   141  SER141      0.2288
     47  O         -2.2420   60.7500   93.8460 O.2   141  SER141     -0.2866
     48  CB        -0.9670   63.4510   94.3160 C.3   141  SER141      0.2089
     49  OG        -0.8950   64.8680   94.3800 O.3   141  SER141     -0.2183
     50  N          4.9220   52.1340   94.8640 N.3   149  TRP149     -0.1241
     51  CA         5.8470   52.8780   95.7160 C.3   149  TRP149      0.1605
     52  C          5.5650   52.5340   97.1910 C.2   149  TRP149      0.2264
     53  O          4.6710   53.1100   97.8190 O.2   149  TRP149     -0.2867
     54  CB         5.7170   54.3850   95.4630 C.3   149  TRP149      0.0550
     55  CG         6.8080   55.2300   96.0810 C.ar  149  TRP149      0.0003
     56  CD1        7.8560   54.7990   96.8510 C.ar  149  TRP149      0.0946
     57  CD2        6.9340   56.6570   96.0020 C.ar  149  TRP149      0.0152
     58  NE1        8.6310   55.8650   97.2370 N.ar  149  TRP149     -0.2442
     59  CE2        8.0880   57.0170   96.7330 C.ar  149  TRP149      0.0810
     60  CE3        6.1900   57.6640   95.3780 C.ar  149  TRP149      0.0012
     61  CZ2        8.5150   58.3420   96.8560 C.ar  149  TRP149      0.0191
     62  CZ3        6.6150   58.9820   95.5030 C.ar  149  TRP149      0.0001
     63  CH2        7.7670   59.3070   96.2360 C.ar  149  TRP149      0.0015
     64  N          5.9390   52.2750  101.2120 N.3   151  ILE151     -0.1245
     65  CA         6.3780   53.0670  102.3730 C.3   151  ILE151      0.1561
     66  C          6.1590   52.2980  103.6900 C.2   151  ILE151      0.2260
     67  O          5.4620   51.2770  103.7280 O.2   151  ILE151     -0.2867
     68  CB         5.6620   54.4430  102.4360 C.3   151  ILE151      0.0252
     69  CG1        4.1730   54.2780  102.7820 C.3   151  ILE151      0.0019
     70  CG2        5.8350   55.1930  101.1200 C.3   151  ILE151      0.0019
     71  CD1        3.3780   55.5680  102.7830 C.3   151  ILE151      0.0001
     72  N         13.8810   54.6890   94.6470 N.3   179  HIS179     -0.1241
     73  CA        13.7180   56.1190   94.9100 C.3   179  HIS179      0.1621
     74  C         14.9910   56.7050   95.5280 C.2   179  HIS179      0.2264
     75  O         15.5640   56.1360   96.4610 O.2   179  HIS179     -0.2867
     76  CB        12.5120   56.3700   95.8190 C.3   179  HIS179      0.0745
     77  CG        12.3480   57.8030   96.2280 C.ar  179  HIS179      0.0817
     78  ND1       12.0280   58.1780   97.5150 N.ar  179  HIS179     -0.2268
     79  CD2       12.4780   58.9530   95.5250 C.ar  179  HIS179      0.1154
     80  CE1       11.9560   59.4950   97.5850 C.ar  179  HIS179      0.1986
     81  NE2       12.2270   59.9900   96.3910 N.ar  179  HIS179     -0.2212
     82  N         15.9150   63.2650   98.8510 N.3   182  ASN182     -0.1240
     83  CA        16.5990   64.5580   98.8170 C.3   182  ASN182      0.1653
     84  C         17.6820   64.6970   99.8820 C.2   182  ASN182      0.2266
     85  O         18.8080   65.0910   99.5730 O.2   182  ASN182     -0.2867
     86  CB        15.5810   65.6900   98.9530 C.3   182  ASN182      0.1155
     87  CG        14.6850   65.8040   97.7390 C.2   182  ASN182      0.2627
     88  OD1       14.9290   66.6260   96.8670 O.2   182  ASN182     -0.2716
     89  ND2       13.6620   64.9590   97.6610 N.am  182  ASN182     -0.0877
     90  N         14.6140   63.0570  104.8580 N.3   186  GLU186     -0.1245
     91  CA        13.5270   62.4770  104.0590 C.3   186  GLU186      0.1567
     92  C         13.6630   60.9530  103.9260 C.2   186  GLU186      0.2260
     93  O         12.6580   60.2410  103.8470 O.2   186  GLU186     -0.2867
     94  CB        13.4620   63.1290  102.6740 C.3   186  GLU186      0.0388
     95  CG        12.1210   62.9520  101.9760 C.3   186  GLU186      0.1160
     96  CD        12.0180   63.7490  100.6880 C.2   186  GLU186      0.3649
     97  OE1       12.8090   63.4790   99.7550 O.co2 186  GLU186     -0.2457
     98  OE2       11.1410   64.6400  100.6060 O.co2 186  GLU186     -0.2457
     99  N         12.2260   59.8020  107.0700 N.3   189  LYS189     -0.1231
    100  CA        10.7970   60.1230  107.0320 C.3   189  LYS189      0.1693
    101  C          9.9960   59.0670  106.2690 C.2   189  LYS189      0.2591
    102  O          8.9290   58.6530  106.7170 O.2   189  LYS189     -0.2718
    103  CB        10.5590   61.5040  106.4100 C.3   189  LYS189      0.0285
    104  CG         9.1030   61.9490  106.4500 C.3   189  LYS189      0.0035
    105  CD         8.8700   63.2340  105.6730 C.3   189  LYS189      0.0206
    106  CE         7.3820   63.5060  105.5110 C.3   189  LYS189      0.1093
    107  NZ         7.1150   64.7090  104.6760 N.3   189  LYS189     -0.1314
    108  N         10.5210   58.6340  105.1250 N.am  190  LEU190     -0.1980
    109  CA         9.8170   57.7010  104.2430 C.3   190  LEU190      0.1596
    110  C         10.0010   56.2400  104.6370 C.2   190  LEU190      0.2287
    111  O          9.0330   55.4800  104.6970 O.2   190  LEU190     -0.2864
    112  CB        10.2950   57.8820  102.8020 C.3   190  LEU190      0.0297
    113  CG         9.6400   59.0220  102.0230 C.3   190  LEU190      0.0022
    114  CD1       10.5640   59.5470  100.9320 C.3   190  LEU190      0.0001
    115  CD2        8.3210   58.5550  101.4280 C.3   190  LEU190      0.0001
    116  N         14.6160   71.1580   91.1340 N.3   218  LYS218     -0.1245
    117  CA        13.2260   70.7150   91.0540 C.3   218  LYS218      0.1561
    118  C         12.7960   70.5640   89.6060 C.2   218  LYS218      0.2260
    119  O         12.6630   71.5470   88.8840 O.2   218  LYS218     -0.2867
    120  CB        12.2740   71.6880   91.7610 C.3   218  LYS218      0.0271
    121  CG        12.0230   71.3730   93.2270 C.3   218  LYS218      0.0035
    122  CD        10.8440   72.1690   93.7660 C.3   218  LYS218      0.0206
    123  CE        10.7910   72.1510   95.2850 C.3   218  LYS218      0.1093
    124  NZ        11.7900   73.0700   95.8990 N.3   218  LYS218     -0.1314
    125  N          8.3610   69.9830   89.7920 N.3   221  GLY221     -0.1210
    126  CA         8.0530   70.2960   91.1830 C.3   221  GLY221      0.1956
    127  C          8.7060   69.4110   92.2310 C.2   221  GLY221      0.2611
    128  O          8.3850   69.5310   93.4120 O.2   221  GLY221     -0.2717
    129  N          9.6200   68.5320   91.8190 N.am  222  GLN222     -0.1979
    130  CA        10.2650   67.5930   92.7430 C.3   222  GLN222      0.1601
    131  C         11.7670   67.5100   92.5010 C.2   222  GLN222      0.2287
    132  O         12.2190   67.4540   91.3580 O.2   222  GLN222     -0.2864
    133  CB         9.6630   66.1910   92.6050 C.3   222  GLN222      0.0394
    134  CG         8.1450   66.1230   92.7300 C.3   222  GLN222      0.0908
    135  CD         7.6230   66.6350   94.0650 C.2   222  GLN222      0.2608
    136  OE1        8.3010   66.5510   95.0910 O.2   222  GLN222     -0.2717
    137  NE2        6.4020   67.1600   94.0550 N.am  222  GLN222     -0.0878
    138  N         13.4470   65.0350   94.1460 N.3   224  GLY224     -0.1225
    139  CA        13.6720   63.5950   94.2570 C.3   224  GLY224      0.1811
    140  C         13.7370   62.9340   92.8910 C.2   224  GLY224      0.2280
    141  O         13.2450   63.4900   91.9000 O.2   224  GLY224     -0.2866
@<TRIPOS>BOND
     1     4     3    2
     2     1     2    1
     3     3     2    1
     4     2     5    1
     5   119   118    2
     6     5     6    1
     7   118   117    1
     8   125   126    1
     9    41    40    2
    10     6     7   ar
    11     6     8   ar
    12   117   116    1
    13   117   120    1
    14     7     9   ar
    15   126   127    1
    16    40    39    1
    17   132   131    2
    18   120   121    1
    19   129   127   am
    20   129   130    1
    21     8    10   ar
    22   141   140    2
    23   127   128    2
    24     9    11   ar
    25    35    34    2
    26   131   130    1
    27   133   134    1
    28   133   130    1
    29    39    42    1
    30    39    38    1
    31   134   135    1
    32   140   139    1
    33    46    45    1
    34    46    47    2
    35    10    11   ar
    36    37    36    1
    37    45    44    1
    38    45    48    1
    39   121   122    1
    40    34    38   am
    41    34    33    1
    42    11    12    1
    43    42    43    1
    44    36    33    1
    45   122   123    1
    46   137   135   am
    47   135   136    2
    48    33    32    1
    49   138   139    1
    50    32    27   am
    51    48    49    1
    52    72    73    1
    53    50    51    1
    54    24    23    2
    55    73    74    1
    56    73    76    1
    57    29    26    1
    58    29    30    1
    59    29    31    1
    60    26    27    1
    61    26    25    1
    62    27    28    2
    63   123   124    1
    64    60    62   ar
    65    60    57   ar
    66    54    51    1
    67    54    55    1
    68    62    63   ar
    69    79    77   ar
    70    79    81   ar
    71    74    75    2
    72    51    52    1
    73    76    77    1
    74    57    55   ar
    75    57    59   ar
    76    23    25   am
    77    23    22    1
    78    55    56   ar
    79    77    78   ar
    80    63    61   ar
    81    81    80   ar
    82    59    61   ar
    83    59    58   ar
    84    56    58   ar
    85    88    87    2
    86    52    53    2
    87    22    21    1
    88    78    80   ar
    89    89    87   am
    90    87    86    1
    91    21    15   am
    92    83    82    1
    93    83    86    1
    94    83    84    1
    95    15    16    2
    96    15    14    1
    97    85    84    2
    98    13    14    1
    99    97    96   ar
   100    14    17    1
   101    98    96   ar
   102    96    95    1
   103   114   113    1
   104    70    68    1
   105    17    18    1
   106    64    65    1
   107   115   113    1
   108    95    94    1
   109    18    19    1
   110    18    20    1
   111   113   112    1
   112    65    68    1
   113    65    66    1
   114    68    69    1
   115    94    91    1
   116    69    71    1
   117   112   109    1
   118    66    67    2
   119    93    92    2
   120    92    91    1
   121    91    90    1
   122   109   110    1
   123   109   108    1
   124   110   111    2
   125   107   106    1
   126   108   101   am
   127   106   105    1
   128   105   104    1
   129   101   102    2
   130   101   100    1
   131   103   104    1
   132   103   100    1
   133   100    99    1
