@<TRIPOS>MOLECULE
tmp/3znlC01.pdb
 141 133 0 0 0
SMALL
GASTEIGER

@<TRIPOS>ATOM
      1  N         31.3620   27.3250   87.4670 N.3    91  TYR91      -0.1241
      2  CA        30.7300   28.0650   88.5550 C.3    91  TYR91       0.1605
      3  C         30.0630   29.3200   87.9770 C.2    91  TYR91       0.2264
      4  O         30.7370   30.1210   87.3270 O.2    91  TYR91      -0.2867
      5  CB        31.7540   28.4550   89.6240 C.3    91  TYR91       0.0534
      6  CG        31.1240   28.8410   90.9480 C.ar   91  TYR91      -0.0201
      7  CD1       30.6340   30.1290   91.1620 C.ar   91  TYR91      -0.0009
      8  CD2       31.0040   27.9140   91.9820 C.ar   91  TYR91      -0.0009
      9  CE1       30.0520   30.4830   92.3710 C.ar   91  TYR91       0.0417
     10  CE2       30.4230   28.2580   93.1940 C.ar   91  TYR91       0.0417
     11  CZ        29.9490   29.5440   93.3840 C.ar   91  TYR91       0.1957
     12  OH        29.3730   29.8860   94.5880 O.3    91  TYR91      -0.2866
     13  N         41.0280   24.1550   99.8750 N.3   129  LEU129     -0.1231
     14  CA        39.6220   23.7820  100.0340 C.3   129  LEU129      0.1693
     15  C         38.7030   24.7820   99.3260 C.2   129  LEU129      0.2593
     16  O         37.5360   24.9290   99.6870 O.2   129  LEU129     -0.2718
     17  CB        39.2610   23.6670  101.5210 C.3   129  LEU129      0.0284
     18  CG        39.8850   22.4910  102.2820 C.3   129  LEU129      0.0019
     19  CD1       41.2780   22.8260  102.7890 C.3   129  LEU129      0.0001
     20  CD2       38.9990   22.0900  103.4500 C.3   129  LEU129      0.0001
     21  N         39.2320   25.4580   98.3090 N.am  130  GLY130     -0.1942
     22  CA        38.4560   26.4050   97.5150 C.3   130  GLY130      0.2014
     23  C         37.8700   25.7640   96.2690 C.2   130  GLY130      0.2639
     24  O         38.2280   26.1290   95.1420 O.2   130  GLY130     -0.2714
     25  N         36.9600   24.8120   96.4770 N.am  131  VAL131     -0.1963
     26  CA        36.3560   24.0420   95.3830 C.3   131  VAL131      0.1727
     27  C         34.8270   24.0710   95.4390 C.2   131  VAL131      0.2617
     28  O         34.2360   24.5320   96.4160 O.2   131  VAL131     -0.2715
     29  CB        36.8360   22.5680   95.3880 C.3   131  VAL131      0.0290
     30  CG1       38.3590   22.5000   95.3590 C.3   131  VAL131      0.0023
     31  CG2       36.2850   21.8070   96.5910 C.3   131  VAL131      0.0023
     32  N         34.2010   23.5750   94.3740 N.am  132  SER132     -0.1936
     33  CA        32.7440   23.4730   94.2860 C.3   132  SER132      0.2055
     34  C         32.3420   22.2630   93.4510 C.2   132  SER132      0.2643
     35  O         33.1280   21.7680   92.6380 O.2   132  SER132     -0.2714
     36  CB        32.1510   24.7440   93.6670 C.3   132  SER132      0.2130
     37  OG        30.7920   24.5580   93.2930 O.3   132  SER132     -0.2179
     38  N         31.1100   21.8010   93.6500 N.am  133  SER133     -0.1949
     39  CA        30.5570   20.6960   92.8720 C.3   133  SER133      0.1924
     40  C         30.2360   21.1100   91.4300 C.2   133  SER133      0.2314
     41  O         30.0970   20.2530   90.5550 O.2   133  SER133     -0.2863
     42  CB        29.2940   20.1600   93.5450 C.3   133  SER133      0.2116
     43  OG        28.3130   21.1770   93.6510 O.3   133  SER133     -0.2180
     44  N         35.1190   17.3190   93.4660 N.3   141  SER141     -0.1217
     45  CA        34.8950   18.7550   93.3110 C.3   141  SER141      0.1889
     46  C         36.2230   19.4740   93.0700 C.2   141  SER141      0.2288
     47  O         37.2000   19.2430   93.7830 O.2   141  SER141     -0.2866
     48  CB        34.2030   19.3230   94.5540 C.3   141  SER141      0.2089
     49  OG        32.8820   18.8230   94.6740 O.3   141  SER141     -0.2183
     50  N         40.7910   29.9830   95.0190 N.3   149  TRP149     -0.1241
     51  CA        39.6770   30.4110   95.8670 C.3   149  TRP149      0.1605
     52  C         40.1150   30.3330   97.3390 C.2   149  TRP149      0.2264
     53  O         40.1690   29.2500   97.9280 O.2   149  TRP149     -0.2867
     54  CB        38.4340   29.5450   95.6090 C.3   149  TRP149      0.0550
     55  CG        37.1580   30.0410   96.2680 C.ar  149  TRP149      0.0003
     56  CD1       37.0260   31.0920   97.1380 C.ar  149  TRP149      0.0946
     57  CD2       35.8430   29.4810   96.1240 C.ar  149  TRP149      0.0152
     58  NE1       35.7150   31.2270   97.5260 N.ar  149  TRP149     -0.2442
     59  CE2       34.9680   30.2510   96.9220 C.ar  149  TRP149      0.0810
     60  CE3       35.3180   28.4080   95.3930 C.ar  149  TRP149      0.0012
     61  CZ2       33.5980   29.9840   97.0080 C.ar  149  TRP149      0.0191
     62  CZ3       33.9550   28.1420   95.4810 C.ar  149  TRP149      0.0001
     63  CH2       33.1130   28.9280   96.2840 C.ar  149  TRP149      0.0015
     64  N         40.1020   30.8660  101.4260 N.3   151  ILE151     -0.1245
     65  CA        39.2060   30.8670  102.5900 C.3   151  ILE151      0.1561
     66  C         39.9960   31.0510  103.8940 C.2   151  ILE151      0.2260
     67  O         41.2280   30.9770  103.9120 O.2   151  ILE151     -0.2867
     68  CB        38.3500   29.5750  102.6640 C.3   151  ILE151      0.0252
     69  CG1       39.2190   28.3580  103.0120 C.3   151  ILE151      0.0019
     70  CG2       37.5960   29.3660  101.3540 C.3   151  ILE151      0.0019
     71  CD1       38.5040   27.0250  102.9350 C.3   151  ILE151      0.0001
     72  N         34.0910   36.5930   94.7960 N.3   179  HIS179     -0.1241
     73  CA        32.9570   35.7080   95.0580 C.3   179  HIS179      0.1621
     74  C         31.7940   36.4650   95.6990 C.2   179  HIS179      0.2264
     75  O         31.9810   37.2330   96.6470 O.2   179  HIS179     -0.2867
     76  CB        33.3620   34.5380   95.9540 C.3   179  HIS179      0.0745
     77  CG        32.2150   33.6530   96.3340 C.ar  179  HIS179      0.0817
     78  ND1       31.9050   33.3540   97.6430 N.ar  179  HIS179     -0.2268
     79  CD2       31.2860   33.0250   95.5750 C.ar  179  HIS179      0.1154
     80  CE1       30.8460   32.5650   97.6740 C.ar  179  HIS179      0.1986
     81  NE2       30.4510   32.3500   96.4320 N.ar  179  HIS179     -0.2212
     82  N         25.6030   33.8520   98.9730 N.3   182  ASN182     -0.1240
     83  CA        24.1370   33.8510   98.9450 C.3   182  ASN182      0.1653
     84  C         23.5010   34.7390  100.0130 C.2   182  ASN182      0.2266
     85  O         22.5710   35.4940   99.7170 O.2   182  ASN182     -0.2867
     86  CB        23.6050   32.4230   99.0810 C.3   182  ASN182      0.1155
     87  CG        23.9080   31.5760   97.8640 C.2   182  ASN182      0.2627
     88  OD1       23.0560   31.4080   96.9990 O.2   182  ASN182     -0.2716
     89  ND2       25.1280   31.0570   97.7790 N.am  182  ASN182     -0.0877
     90  N         26.5180   32.8740  104.9790 N.3   186  GLU186     -0.1245
     91  CA        27.5610   32.2370  104.1710 C.3   186  GLU186      0.1567
     92  C         28.8160   33.1110  104.0760 C.2   186  GLU186      0.2260
     93  O         29.9350   32.5930  104.0510 O.2   186  GLU186     -0.2867
     94  CB        27.0430   31.9050  102.7690 C.3   186  GLU186      0.0388
     95  CG        27.9660   30.9820  101.9850 C.3   186  GLU186      0.1160
     96  CD        27.3500   30.4890  100.6910 C.2   186  GLU186      0.3649
     97  OE1       27.0250   31.3290   99.8240 O.co2 186  GLU186     -0.2457
     98  OE2       27.2020   29.2570  100.5370 O.co2 186  GLU186     -0.2457
     99  N         30.5380   32.4830  107.2330 N.3   189  LYS189     -0.1231
    100  CA        31.0090   31.0980  107.1960 C.3   189  LYS189      0.1693
    101  C         32.2960   30.9380  106.3800 C.2   189  LYS189      0.2591
    102  O         33.1770   30.1620  106.7490 O.2   189  LYS189     -0.2718
    103  CB        29.9320   30.1700  106.6260 C.3   189  LYS189      0.0285
    104  CG        30.4270   28.7480  106.4040 C.3   189  LYS189      0.0035
    105  CD        29.3400   27.8110  105.9130 C.3   189  LYS189      0.0206
    106  CE        29.8740   26.3910  105.8080 C.3   189  LYS189      0.1093
    107  NZ        29.2540   25.6490  104.6800 N.3   189  LYS189     -0.1314
    108  N         32.3860   31.6580  105.2660 N.am  190  LEU190     -0.1980
    109  CA        33.5240   31.5360  104.3570 C.3   190  LEU190      0.1596
    110  C         34.6940   32.4320  104.7420 C.2   190  LEU190      0.2287
    111  O         35.8430   31.9860  104.7640 O.2   190  LEU190     -0.2864
    112  CB        33.0940   31.8640  102.9250 C.3   190  LEU190      0.0297
    113  CG        32.4050   30.7290  102.1720 C.3   190  LEU190      0.0022
    114  CD1       31.6860   31.2490  100.9360 C.3   190  LEU190      0.0001
    115  CD2       33.4260   29.6700  101.7940 C.3   190  LEU190      0.0001
    116  N         19.4340   28.8410   91.1400 N.3   218  LYS218     -0.1245
    117  CA        20.5200   27.8780   91.0290 C.3   218  LYS218      0.1561
    118  C         20.9070   27.7000   89.5700 C.2   218  LYS218      0.2260
    119  O         20.0770   27.3480   88.7360 O.2   218  LYS218     -0.2867
    120  CB        20.1370   26.5240   91.6300 C.3   218  LYS218      0.0271
    121  CG        20.3980   26.4120   93.1230 C.3   218  LYS218      0.0035
    122  CD        20.1450   24.9930   93.6100 C.3   218  LYS218      0.0206
    123  CE        20.2820   24.8720   95.1210 C.3   218  LYS218      0.1093
    124  NZ        19.1100   25.4360   95.8460 N.3   218  LYS218     -0.1314
    125  N         23.6230   24.0310   89.8520 N.3   221  GLY221     -0.1210
    126  CA        23.4370   23.5810   91.2300 C.3   221  GLY221      0.1956
    127  C         23.9130   24.5430   92.3050 C.2   221  GLY221      0.2611
    128  O         23.9980   24.1650   93.4730 O.2   221  GLY221     -0.2717
    129  N         24.2160   25.7830   91.9240 N.am  222  GLN222     -0.1979
    130  CA        24.7020   26.7890   92.8700 C.3   222  GLN222      0.1601
    131  C         24.0540   28.1430   92.6130 C.2   222  GLN222      0.2287
    132  O         23.8780   28.5470   91.4640 O.2   222  GLN222     -0.2864
    133  CB        26.2270   26.9240   92.7800 C.3   222  GLN222      0.0394
    134  CG        27.0010   25.6580   93.1390 C.3   222  GLN222      0.0908
    135  CD        26.7210   25.1640   94.5520 C.2   222  GLN222      0.2608
    136  OE1       26.4800   25.9530   95.4640 O.2   222  GLN222     -0.2717
    137  NE2       26.7590   23.8490   94.7380 N.am  222  GLN222     -0.0878
    138  N         25.3540   30.8940   94.2630 N.3   224  GLY224     -0.1225
    139  CA        26.4590   31.8420   94.4080 C.3   224  GLY224      0.1811
    140  C         27.0120   32.2440   93.0520 C.2   224  GLY224      0.2280
    141  O         26.8130   31.5350   92.0580 O.2   224  GLY224     -0.2866
@<TRIPOS>BOND
     1     4     3    2
     2     1     2    1
     3     3     2    1
     4     2     5    1
     5   119   118    2
     6   118   117    1
     7     5     6    1
     8   125   126    1
     9    41    40    2
    10     6     7   ar
    11     6     8   ar
    12   117   116    1
    13   117   120    1
    14     7     9   ar
    15   126   127    1
    16    40    39    1
    17   132   131    2
    18   120   121    1
    19   129   127   am
    20   129   130    1
    21     8    10   ar
    22   141   140    2
    23   127   128    2
    24     9    11   ar
    25   131   130    1
    26    35    34    2
    27   133   130    1
    28   133   134    1
    29    39    42    1
    30    39    38    1
    31   140   139    1
    32    46    45    1
    33    46    47    2
    34   121   122    1
    35   134   135    1
    36    10    11   ar
    37    37    36    1
    38    45    44    1
    39    45    48    1
    40    11    12    1
    41    34    38   am
    42    34    33    1
    43    42    43    1
    44   122   123    1
    45    36    33    1
    46   138   139    1
    47    33    32    1
    48    32    27   am
    49   135   137   am
    50   135   136    2
    51    48    49    1
    52    72    73    1
    53    50    51    1
    54    73    74    1
    55    73    76    1
    56   123   124    1
    57    24    23    2
    58    30    29    1
    59    26    29    1
    60    26    27    1
    61    26    25    1
    62    29    31    1
    63    60    62   ar
    64    60    57   ar
    65    27    28    2
    66    62    63   ar
    67    79    77   ar
    68    79    81   ar
    69    54    51    1
    70    54    55    1
    71    74    75    2
    72    51    52    1
    73    76    77    1
    74    57    55   ar
    75    57    59   ar
    76    55    56   ar
    77    23    25   am
    78    23    22    1
    79    63    61   ar
    80    77    78   ar
    81    81    80   ar
    82    59    61   ar
    83    59    58   ar
    84    88    87    2
    85    56    58   ar
    86    52    53    2
    87    22    21    1
    88    78    80   ar
    89    89    87   am
    90    87    86    1
    91    21    15   am
    92    83    82    1
    93    83    86    1
    94    83    84    1
    95    15    16    2
    96    15    14    1
    97    85    84    2
    98    97    96   ar
    99    13    14    1
   100    14    17    1
   101    98    96   ar
   102    96    95    1
   103   114   113    1
   104    70    68    1
   105    64    65    1
   106    17    18    1
   107   115   113    1
   108    95    94    1
   109   113   112    1
   110    18    19    1
   111    18    20    1
   112    65    68    1
   113    65    66    1
   114    68    69    1
   115    94    91    1
   116   112   109    1
   117    71    69    1
   118    66    67    2
   119    93    92    2
   120    92    91    1
   121    91    90    1
   122   109   110    1
   123   109   108    1
   124   107   106    1
   125   110   111    2
   126   108   101   am
   127   106   105    1
   128   105   104    1
   129   101   102    2
   130   101   100    1
   131   104   103    1
   132   103   100    1
   133   100    99    1
