@<TRIPOS>MOLECULE
tmp/3znnB01.pdb
 84 76 0 0 0
SMALL
GASTEIGER

@<TRIPOS>ATOM
      1  N         14.3230    2.8520   71.2090 N.3    49  ALA49      -0.1245
      2  CA        13.9560    2.8140   69.8000 C.3    49  ALA49       0.1562
      3  C         12.4130    2.6620   69.7470 C.2    49  ALA49       0.2260
      4  O         11.7540    3.2390   68.8870 O.2    49  ALA49      -0.2867
      5  CB        14.6220    1.6170   69.1400 C.3    49  ALA49       0.0290
      6  N         11.0060   -0.5460   69.8080 N.3    51  LEU51      -0.1245
      7  CA        10.6010   -1.7800   69.1270 C.3    51  LEU51       0.1561
      8  C          9.9880   -2.7300   70.1560 C.2    51  LEU51       0.2260
      9  O         10.5330   -2.8770   71.2500 O.2    51  LEU51      -0.2867
     10  CB        11.7890   -2.4540   68.3670 C.3    51  LEU51       0.0270
     11  CG        11.5080   -3.7920   67.6550 C.3    51  LEU51       0.0019
     12  CD1       10.5550   -3.6190   66.4240 C.3    51  LEU51       0.0001
     13  CD2       12.7850   -4.4730   67.2040 C.3    51  LEU51       0.0001
     14  N          9.7030   -6.1380   71.4860 N.3    53  GLN53      -0.1245
     15  CA        10.3740   -7.4220   71.5160 C.3    53  GLN53       0.1566
     16  C         10.7700   -7.8060   72.9250 C.2    53  GLN53       0.2260
     17  O         11.7120   -7.2260   73.4750 O.2    53  GLN53      -0.2867
     18  CB        11.5410   -7.5610   70.5170 C.3    53  GLN53       0.0367
     19  CG        11.8610   -9.0250   70.2920 C.3    53  GLN53       0.0905
     20  CD        12.8910   -9.2380   69.2220 C.2    53  GLN53       0.2608
     21  OE1       12.6390   -8.9540   68.0690 O.2    53  GLN53      -0.2717
     22  NE2       14.0610   -9.7850   69.5760 N.am   53  GLN53      -0.0878
     23  N         18.4550   -7.2690   64.4250 N.3   215  LEU215     -0.1245
     24  CA        18.9280   -7.4870   65.8030 C.3   215  LEU215      0.1561
     25  C         19.8680   -8.6880   65.7790 C.2   215  LEU215      0.2260
     26  O         19.5220   -9.6760   65.1880 O.2   215  LEU215     -0.2867
     27  CB        17.7310   -7.7650   66.7540 C.3   215  LEU215      0.0270
     28  CG        16.5380   -6.7720   66.6990 C.3   215  LEU215      0.0019
     29  CD1       15.4470   -7.1470   67.7020 C.3   215  LEU215      0.0001
     30  CD2       16.9760   -5.3320   66.9530 C.3   215  LEU215      0.0001
     31  N         21.4570   -7.4870   74.8040 N.3   224  TYR224     -0.1241
     32  CA        21.5140   -6.0690   74.3710 C.3   224  TYR224      0.1605
     33  C         22.9270   -5.5180   74.1640 C.2   224  TYR224      0.2264
     34  O         23.1000   -4.3060   74.1690 O.2   224  TYR224     -0.2867
     35  CB        20.7700   -5.1740   75.3950 C.3   224  TYR224      0.0534
     36  CG        19.3730   -5.6280   75.7900 C.ar  224  TYR224     -0.0201
     37  CD1       18.3350   -5.6510   74.8570 C.ar  224  TYR224     -0.0009
     38  CD2       19.0540   -5.8830   77.1240 C.ar  224  TYR224     -0.0009
     39  CE1       17.0230   -5.9330   75.2390 C.ar  224  TYR224      0.0417
     40  CE2       17.7520   -6.2040   77.5120 C.ar  224  TYR224      0.0417
     41  CZ        16.7370   -6.2160   76.5680 C.ar  224  TYR224      0.1957
     42  OH        15.4650   -6.5630   76.9570 O.3   224  TYR224     -0.2866
     43  N         22.6360   -3.8650   66.8650 N.3   228  TYR228     -0.1241
     44  CA        21.2430   -3.7180   66.4850 C.3   228  TYR228      0.1605
     45  C         21.0230   -2.4640   65.6890 C.2   228  TYR228      0.2264
     46  O         21.6790   -1.4700   65.9640 O.2   228  TYR228     -0.2867
     47  CB        20.2310   -3.8850   67.6460 C.3   228  TYR228      0.0534
     48  CG        20.2120   -2.8700   68.7730 C.ar  228  TYR228     -0.0201
     49  CD1       19.5410   -1.6590   68.6320 C.ar  228  TYR228     -0.0009
     50  CD2       20.6800   -3.2060   70.0430 C.ar  228  TYR228     -0.0009
     51  CE1       19.3670   -0.7960   69.7140 C.ar  228  TYR228      0.0417
     52  CE2       20.5250   -2.3430   71.1270 C.ar  228  TYR228      0.0417
     53  CZ        19.8690   -1.1420   70.9590 C.ar  228  TYR228      0.1957
     54  OH        19.7610   -0.2850   72.0240 O.3   228  TYR228     -0.2866
     55  N         17.7500   -0.1710   64.2860 N.3   230  ILE230     -0.1245
     56  CA        16.3030   -0.0480   64.4040 C.3   230  ILE230      0.1561
     57  C         15.8090    1.2390   63.7210 C.2   230  ILE230      0.2260
     58  O         15.9410    2.3310   64.2720 O.2   230  ILE230     -0.2867
     59  CB        15.7450   -0.2170   65.8740 C.3   230  ILE230      0.0252
     60  CG1       16.1670   -1.5650   66.5290 C.3   230  ILE230      0.0019
     61  CG2       14.2070   -0.1150   65.8500 C.3   230  ILE230      0.0019
     62  CD1       15.9910   -1.6510   68.0380 C.3   230  ILE230      0.0001
     63  N         18.9180    1.2260   81.7150 N.3   283  ARG283     -0.1245
     64  CA        17.8160    0.2770   81.7680 C.3   283  ARG283      0.1563
     65  C         17.5610   -0.0980   83.2480 C.2   283  ARG283      0.2260
     66  O         18.5320   -0.3830   83.9740 O.2   283  ARG283     -0.2867
     67  CB        18.1460   -1.0020   80.9730 C.3   283  ARG283      0.0307
     68  CG        18.1990   -0.8170   79.4610 C.3   283  ARG283      0.0489
     69  CD        18.8490   -2.0210   78.7980 C.3   283  ARG283      0.2205
     70  NE        19.3110   -1.7450   77.4230 N.pl3 283  ARG283     -0.0865
     71  CZ        20.5430   -1.3570   77.0910 C.cat 283  ARG283      0.5346
     72  NH1       21.4470   -1.1070   78.0310 N.pl3 283  ARG283      0.1354
     73  NH2       20.8680   -1.1770   75.8210 N.pl3 283  ARG283      0.1354
     74  N         15.2770   -3.8200   79.5800 N.3   313  GLY313     -0.1225
     75  CA        15.3120   -3.3800   78.1860 C.3   313  GLY313      0.1811
     76  C         14.0350   -3.6160   77.4080 C.2   313  GLY313      0.2280
     77  O         14.0790   -3.6890   76.1720 O.2   313  GLY313     -0.2866
     78  N          7.6750   -2.4110   75.3000 N.3   317  THR317     -0.1218
     79  CA         7.1440   -3.7330   74.9480 C.3   317  THR317      0.1862
     80  C          6.0710   -4.2570   75.9250 C.2   317  THR317      0.2287
     81  O          5.1630   -4.9640   75.4850 O.2   317  THR317     -0.2866
     82  CB         8.3290   -4.6940   74.8660 C.3   317  THR317      0.1770
     83  OG1        9.2450   -4.2460   73.8840 O.3   317  THR317     -0.2211
     84  CG2        7.9460   -6.1340   74.6270 C.3   317  THR317      0.0375
@<TRIPOS>BOND
     1    57    58    2
     2    57    56    1
     3    55    56    1
     4    56    59    1
     5    23    24    1
     6    26    25    2
     7    45    46    2
     8    45    44    1
     9    25    24    1
    10    24    27    1
    11    61    59    1
    12    59    60    1
    13    12    11    1
    14    44    43    1
    15    44    47    1
    16    60    62    1
    17    28    27    1
    18    28    30    1
    19    28    29    1
    20    13    11    1
    21    47    48    1
    22    11    10    1
    23    21    20    2
    24    10     7    1
    25    49    48   ar
    26    49    51   ar
    27    48    50   ar
    28     4     3    2
    29     7     6    1
    30     7     8    1
    31     5     2    1
    32    20    22   am
    33    20    19    1
    34    51    53   ar
    35     3     2    1
    36     2     1    1
    37    50    52   ar
    38     8     9    2
    39    19    18    1
    40    18    15    1
    41    53    52   ar
    42    53    54    1
    43    14    15    1
    44    15    16    1
    45    16    17    2
    46    83    82    1
    47    33    34    2
    48    33    32    1
    49    32    31    1
    50    32    35    1
    51    84    82    1
    52    37    39   ar
    53    37    36   ar
    54    82    79    1
    55    79    78    1
    56    79    80    1
    57    39    41   ar
    58    35    36    1
    59    81    80    2
    60    36    38   ar
    61    73    71    1
    62    77    76    2
    63    41    42    1
    64    41    40   ar
    65    71    70    2
    66    71    72    1
    67    38    40   ar
    68    76    75    1
    69    70    69    1
    70    75    74    1
    71    69    68    1
    72    68    67    1
    73    67    64    1
    74    63    64    1
    75    64    65    1
    76    65    66    2
