@<TRIPOS>MOLECULE
tmp/3znoB01.pdb
 136 131 0 0 0
SMALL
GASTEIGER

@<TRIPOS>ATOM
      1  N          3.8650   -2.2720  -23.6640 N.3    49  ALA49      -0.1245
      2  CA         3.4230   -3.0730  -24.8080 C.3    49  ALA49       0.1562
      3  C          2.1560   -3.8410  -24.4230 C.2    49  ALA49       0.2260
      4  O          1.2190   -3.9350  -25.2130 O.2    49  ALA49      -0.2867
      5  CB         4.5150   -4.0390  -25.2300 C.3    49  ALA49       0.0290
      6  N          2.3420   -7.0830  -22.8920 N.3    51  LEU51      -0.1245
      7  CA         2.5930   -8.5160  -22.9220 C.3    51  LEU51       0.1561
      8  C          2.4990   -9.0680  -21.5020 C.2    51  LEU51       0.2260
      9  O          3.0380   -8.4740  -20.5610 O.2    51  LEU51      -0.2867
     10  CB         3.9810   -8.8180  -23.5150 C.3    51  LEU51       0.0270
     11  CG         4.4250  -10.3090  -23.5280 C.3    51  LEU51       0.0019
     12  CD1        3.6640  -11.1280  -24.5980 C.3    51  LEU51       0.0001
     13  CD2        5.9190  -10.4400  -23.7260 C.3    51  LEU51       0.0001
     14  N          3.7530  -11.4250  -18.9640 N.3    53  GLN53      -0.1231
     15  CA         4.9520  -12.1640  -18.5850 C.3    53  GLN53       0.1683
     16  C          5.5270  -11.7000  -17.2790 C.2    53  GLN53       0.2434
     17  O          6.0810  -10.6000  -17.2020 O.2    53  GLN53      -0.2733
     18  CB         6.0370  -12.2600  -19.6650 C.3    53  GLN53       0.0380
     19  CG         6.9670  -13.4390  -19.3710 C.3    53  GLN53       0.0905
     20  CD         7.8880  -13.7890  -20.4980 C.2    53  GLN53       0.2608
     21  OE1        7.4440  -14.1870  -21.5810 O.2    53  GLN53      -0.2717
     22  NE2        9.1970  -13.7320  -20.2290 N.am   53  GLN53      -0.0878
     23  N          5.4100  -12.5520  -16.2370 N.am   54  PRO54      -0.2718
     24  CA         5.9810  -12.2050  -14.9290 C.3    54  PRO54       0.1535
     25  C          7.4970  -12.3670  -14.9430 C.2    54  PRO54       0.2599
     26  O          8.0480  -12.8200  -15.9530 O.2    54  PRO54      -0.2715
     27  CB         5.3260  -13.2190  -13.9710 C.3    54  PRO54       0.0310
     28  CG         4.3140  -13.9790  -14.7840 C.3    54  PRO54       0.0237
     29  CD         4.7740  -13.8820  -16.1980 C.3    54  PRO54       0.0939
     30  N          8.1650  -12.0170  -13.8110 N.am   55  TYR55      -0.1960
     31  CA         9.6180  -12.1230  -13.5940 C.3    55  TYR55       0.1771
     32  C         10.1470  -13.5150  -13.9480 C.2    55  TYR55       0.2619
     33  O          9.4250  -14.5090  -13.8200 O.2    55  TYR55      -0.2715
     34  CB         9.9840  -11.8420  -12.1140 C.3    55  TYR55       0.0574
     35  CG        10.0800  -10.3920  -11.6750 C.ar   55  TYR55      -0.0198
     36  CD1       10.4330   -9.3890  -12.5730 C.ar   55  TYR55      -0.0009
     37  CD2        9.9230  -10.0390  -10.3360 C.ar   55  TYR55      -0.0009
     38  CE1       10.5450   -8.0590  -12.1680 C.ar   55  TYR55       0.0417
     39  CE2       10.0450   -8.7140   -9.9160 C.ar   55  TYR55       0.0417
     40  CZ        10.3450   -7.7250  -10.8390 C.ar   55  TYR55       0.1957
     41  OH        10.4560   -6.4140  -10.4410 O.3    55  TYR55      -0.2866
     42  N         11.4190  -13.5780  -14.3730 N.am   56  LEU56      -0.1977
     43  CA        12.1140  -14.8240  -14.7060 C.3    56  LEU56       0.1596
     44  C         12.4230  -15.5660  -13.3960 C.2    56  LEU56       0.2287
     45  O         12.2620  -16.7890  -13.3280 O.2    56  LEU56      -0.2864
     46  CB        13.4230  -14.5030  -15.4690 C.3    56  LEU56       0.0297
     47  CG        13.8330  -15.3960  -16.6540 C.3    56  LEU56       0.0022
     48  CD1       14.2410  -16.7950  -16.2150 C.3    56  LEU56       0.0001
     49  CD2       12.7840  -15.4150  -17.7470 C.3    56  LEU56       0.0001
     50  N         12.0960  -11.8850  -26.8500 N.3   215  LEU215     -0.1231
     51  CA        12.6510  -11.3990  -25.5750 C.3   215  LEU215      0.1693
     52  C         13.9680  -12.0960  -25.2360 C.2   215  LEU215      0.2593
     53  O         14.0330  -13.3160  -25.1230 O.2   215  LEU215     -0.2718
     54  CB        11.6710  -11.5960  -24.3920 C.3   215  LEU215      0.0284
     55  CG        10.1520  -11.6530  -24.6460 C.3   215  LEU215      0.0019
     56  CD1        9.4380  -12.1040  -23.3990 C.3   215  LEU215      0.0001
     57  CD2        9.5900  -10.3000  -25.0620 C.3   215  LEU215      0.0001
     58  N         15.0200  -11.3080  -25.0670 N.am  216  THR216     -0.1939
     59  CA        16.3430  -11.8070  -24.6840 C.3   216  THR216      0.2028
     60  C         16.5720  -11.4360  -23.2230 C.2   216  THR216      0.2642
     61  O         16.0470  -10.4310  -22.7540 O.2   216  THR216     -0.2714
     62  CB        17.3920  -11.1760  -25.5500 C.3   216  THR216      0.1808
     63  OG1       17.3540   -9.7530  -25.3430 O.3   216  THR216     -0.2208
     64  CG2       17.2040  -11.5240  -26.9950 C.3   216  THR216      0.0379
     65  N         17.3570  -12.2460  -22.5220 N.am  217  HIS217     -0.1973
     66  CA        17.6610  -12.0660  -21.1160 C.3   217  HIS217      0.1656
     67  C         19.1610  -12.1230  -20.8920 C.2   217  HIS217      0.2291
     68  O         19.8780  -12.8450  -21.6000 O.2   217  HIS217     -0.2864
     69  CB        16.9640  -13.1510  -20.2910 C.3   217  HIS217      0.0771
     70  CG        15.4840  -13.1980  -20.5130 C.ar  217  HIS217      0.0820
     71  ND1       14.6160  -12.4590  -19.7350 N.ar  217  HIS217     -0.2267
     72  CD2       14.7720  -13.8630  -21.4510 C.ar  217  HIS217      0.1154
     73  CE1       13.4090  -12.7140  -20.2040 C.ar  217  HIS217      0.1986
     74  NE2       13.4520  -13.5600  -21.2300 N.ar  217  HIS217     -0.2212
     75  N         17.0920   -7.5010  -15.2750 N.3   223  ILE223     -0.1231
     76  CA        15.7180   -7.6270  -15.7750 C.3   223  ILE223      0.1692
     77  C         15.0580   -6.3980  -16.4260 C.2   223  ILE223      0.2592
     78  O         15.0740   -5.3070  -15.8440 O.2   223  ILE223     -0.2718
     79  CB        14.7430   -8.0550  -14.6290 C.3   223  ILE223      0.0266
     80  CG1       13.5500   -8.8770  -15.1470 C.3   223  ILE223      0.0019
     81  CG2       14.3080   -6.9050  -13.7140 C.3   223  ILE223      0.0020
     82  CD1       13.4890  -10.3020  -14.5260 C.3   223  ILE223      0.0001
     83  N         14.5480   -6.5740  -17.6590 N.am  224  TYR224     -0.1976
     84  CA        14.0050   -5.5430  -18.5580 C.3   224  TYR224      0.1639
     85  C         15.0170   -4.5730  -19.1780 C.2   224  TYR224      0.2290
     86  O         14.6130   -3.6310  -19.8610 O.2   224  TYR224     -0.2864
     87  CB        12.9190   -4.7030  -17.8610 C.3   224  TYR224      0.0560
     88  CG        11.9120   -5.5190  -17.0830 C.ar  224  TYR224     -0.0198
     89  CD1       11.0540   -6.4030  -17.7290 C.ar  224  TYR224     -0.0009
     90  CD2       11.7590   -5.3470  -15.7120 C.ar  224  TYR224     -0.0009
     91  CE1       10.1040   -7.1350  -17.0220 C.ar  224  TYR224      0.0417
     92  CE2       10.8010   -6.0640  -14.9960 C.ar  224  TYR224      0.0417
     93  CZ         9.9840   -6.9670  -15.6550 C.ar  224  TYR224      0.1957
     94  OH         9.0430   -7.6900  -14.9600 O.3   224  TYR224     -0.2866
     95  N         14.1570   -6.5070  -26.4540 N.3   228  TYR228     -0.1241
     96  CA        12.8610   -7.1440  -26.6150 C.3   228  TYR228      0.1605
     97  C         12.0470   -6.5450  -27.7350 C.2   228  TYR228      0.2264
     98  O         12.0350   -5.3340  -27.9250 O.2   228  TYR228     -0.2867
     99  CB        12.0850   -7.3400  -25.2860 C.3   228  TYR228      0.0534
    100  CG        11.6290   -6.0810  -24.5650 C.ar  228  TYR228     -0.0201
    101  CD1       10.5560   -5.3310  -25.0430 C.ar  228  TYR228     -0.0009
    102  CD2       12.1480   -5.7420  -23.3210 C.ar  228  TYR228     -0.0009
    103  CE1       10.1180   -4.1920  -24.3830 C.ar  228  TYR228      0.0417
    104  CE2       11.7010   -4.6150  -22.6330 C.ar  228  TYR228      0.0417
    105  CZ        10.6840   -3.8390  -23.1730 C.ar  228  TYR228      0.1957
    106  OH        10.1900   -2.7420  -22.5170 O.3   228  TYR228     -0.2866
    107  N          8.2220   -6.6650  -29.3030 N.3   230  ILE230     -0.1245
    108  CA         6.8320   -7.0440  -28.9870 C.3   230  ILE230      0.1561
    109  C          5.8360   -6.4710  -30.0090 C.2   230  ILE230      0.2260
    110  O          5.4230   -5.3080  -29.8900 O.2   230  ILE230     -0.2867
    111  CB         6.4250   -6.7390  -27.5110 C.3   230  ILE230      0.0252
    112  CG1        7.4190   -7.3660  -26.4920 C.3   230  ILE230      0.0019
    113  CG2        4.9690   -7.2000  -27.2170 C.3   230  ILE230      0.0019
    114  CD1        7.2300   -6.8810  -25.0610 C.3   230  ILE230      0.0001
    115  N          8.7010    2.5330  -14.1990 N.3   283  ARG283     -0.1245
    116  CA         8.2060    1.3320  -13.5290 C.3   283  ARG283      0.1563
    117  C          8.2520    1.5760  -11.9950 C.2   283  ARG283      0.2260
    118  O          9.2940    2.0020  -11.4720 O.2   283  ARG283     -0.2867
    119  CB         9.0340    0.0880  -13.8970 C.3   283  ARG283      0.0307
    120  CG         9.1650   -0.2070  -15.3860 C.3   283  ARG283      0.0489
    121  CD        10.2720   -1.2210  -15.5950 C.3   283  ARG283      0.2205
    122  NE        10.6050   -1.4250  -17.0040 N.pl3 283  ARG283     -0.0865
    123  CZ        11.5590   -0.7660  -17.6560 C.cat 283  ARG283      0.5346
    124  NH1       12.2830    0.1570  -17.0340 N.pl3 283  ARG283      0.1354
    125  NH2       11.7940   -1.0210  -18.9330 N.pl3 283  ARG283      0.1354
    126  N          7.7740   -3.7750  -13.5580 N.3   313  GLY313     -0.1225
    127  CA         7.5730   -4.0550  -14.9830 C.3   313  GLY313      0.1811
    128  C          6.4330   -4.9980  -15.3270 C.2   313  GLY313      0.2280
    129  O          6.3210   -5.4510  -16.4690 O.2   313  GLY313     -0.2866
    130  N          0.5070   -7.5770  -16.3790 N.3   317  THR317     -0.1218
    131  CA         0.6200   -9.0080  -16.0810 C.3   317  THR317      0.1862
    132  C         -0.1050   -9.3900  -14.7820 C.2   317  THR317      0.2287
    133  O         -0.6500  -10.4910  -14.7130 O.2   317  THR317     -0.2866
    134  CB         2.1190   -9.3970  -15.9800 C.3   317  THR317      0.1770
    135  OG1        2.7760   -9.0830  -17.2060 O.3   317  THR317     -0.2211
    136  CG2        2.3300  -10.8720  -15.6670 C.3   317  THR317      0.0375
@<TRIPOS>BOND
     1   109   110    2
     2   109   108    1
     3   107   108    1
     4   108   111    1
     5    98    97    2
     6    97    96    1
     7   111   113    1
     8   111   112    1
     9    64    62    1
    10    50    51    1
    11    96    95    1
    12    96    99    1
    13   112   114    1
    14    51    52    1
    15    51    54    1
    16    62    63    1
    17    62    59    1
    18    99   100    1
    19    52    53    2
    20    52    58   am
    21     5     2    1
    22     4     3    2
    23    58    59    1
    24    57    55    1
    25   101   100   ar
    26   101   103   ar
    27     2     3    1
    28     2     1    1
    29    59    60    1
    30    55    54    1
    31    55    56    1
    32    12    11    1
    33   100   102   ar
    34   103   105   ar
    35    13    11    1
    36    11    10    1
    37    10     7    1
    38   102   104   ar
    39    60    61    2
    40    60    65   am
    41   105   104   ar
    42   105   106    1
    43     7     6    1
    44     7     8    1
    45    65    66    1
    46    68    67    2
    47    21    20    2
    48     8     9    2
    49    72    74   ar
    50    72    70   ar
    51    74    73   ar
    52    66    67    1
    53    66    69    1
    54    70    69    1
    55    70    71   ar
    56    20    22   am
    57    20    19    1
    58    73    71   ar
    59    86    85    2
    60    18    19    1
    61    18    15    1
    62    85    84    1
    63    14    15    1
    64   125   123    1
    65    15    16    1
    66    84    87    1
    67    84    83    1
    68    87    88    1
    69    49    47    1
    70    89    88   ar
    71    89    91   ar
    72    83    77   am
    73   123   124    1
    74   123   122    2
    75    16    17    2
    76    16    23   am
    77   135   134    1
    78    88    90   ar
    79    91    93   ar
    80   122   121    1
    81    47    48    1
    82    47    46    1
    83   129   128    2
    84    77    78    2
    85    77    76    1
    86   130   131    1
    87    23    29    1
    88    23    24    1
    89    29    28    1
    90   131   134    1
    91   131   132    1
    92   134   136    1
    93    26    25    2
    94    76    75    1
    95    76    79    1
    96    90    92   ar
    97    93    92   ar
    98    93    94    1
    99   121   120    1
   100    46    43    1
   101   120   119    1
   102   128   127    1
   103    80    79    1
   104    80    82    1
   105   127   126    1
   106    25    24    1
   107    25    30   am
   108    24    27    1
   109    28    27    1
   110   132   133    2
   111    43    42    1
   112    43    44    1
   113    79    81    1
   114    42    32   am
   115   115   116    1
   116    32    33    2
   117    32    31    1
   118   119   116    1
   119    30    31    1
   120    31    34    1
   121   116   117    1
   122    44    45    2
   123    36    38   ar
   124    36    35   ar
   125    38    40   ar
   126    34    35    1
   127   117   118    2
   128    35    37   ar
   129    40    41    1
   130    40    39   ar
   131    37    39   ar
