@<TRIPOS>MOLECULE
tmp/3znpA01.pdb
 84 76 0 0 0
SMALL
GASTEIGER

@<TRIPOS>ATOM
      1  N         -8.4700   -2.9690  -18.9400 N.3    49  ALA49      -0.1245
      2  CA        -7.8220   -2.7200  -20.2190 C.3    49  ALA49       0.1562
      3  C         -8.3740   -3.7310  -21.2420 C.2    49  ALA49       0.2260
      4  O         -8.7150   -3.3550  -22.3510 O.2    49  ALA49      -0.2867
      5  CB        -6.3160   -2.8280  -20.0840 C.3    49  ALA49       0.0290
      6  N         -6.9780   -7.0250  -21.7420 N.3    51  LEU51      -0.1245
      7  CA        -5.9980   -7.9620  -22.2830 C.3    51  LEU51       0.1561
      8  C         -6.3640   -9.3980  -21.9280 C.2    51  LEU51       0.2260
      9  O         -6.7320   -9.6950  -20.7840 O.2    51  LEU51      -0.2867
     10  CB        -4.5670   -7.6230  -21.8050 C.3    51  LEU51       0.0270
     11  CG        -3.4530   -8.5970  -22.2690 C.3    51  LEU51       0.0019
     12  CD1       -3.2080   -8.5070  -23.8110 C.3    51  LEU51       0.0001
     13  CD2       -2.2170   -8.4260  -21.4440 C.3    51  LEU51       0.0001
     14  N         -5.3170  -12.4830  -20.6950 N.3    53  GLN53      -0.1245
     15  CA        -4.2690  -13.1100  -19.9170 C.3    53  GLN53       0.1566
     16  C         -4.7440  -13.7460  -18.6100 C.2    53  GLN53       0.2260
     17  O         -4.9820  -13.0210  -17.6320 O.2    53  GLN53      -0.2867
     18  CB        -3.0270  -12.2450  -19.6710 C.3    53  GLN53       0.0367
     19  CG        -1.7920  -13.1470  -19.6090 C.3    53  GLN53       0.0905
     20  CD        -0.5130  -12.3960  -19.6490 C.2    53  GLN53       0.2608
     21  OE1       -0.1740  -11.7950  -20.6490 O.2    53  GLN53      -0.2717
     22  NE2        0.2210  -12.4120  -18.5620 N.am   53  GLN53      -0.0878
     23  N          3.8780   -6.3190  -19.1050 N.3   215  LEU215     -0.1245
     24  CA         3.4380   -6.7350  -17.7790 C.3   215  LEU215      0.1561
     25  C          4.6720   -7.2450  -17.0520 C.2   215  LEU215      0.2260
     26  O          5.4060   -8.0620  -17.6000 O.2   215  LEU215     -0.2867
     27  CB         2.3610   -7.8590  -17.8020 C.3   215  LEU215      0.0270
     28  CG         1.1260   -7.7830  -18.7150 C.3   215  LEU215      0.0019
     29  CD1        0.1230   -8.8710  -18.3210 C.3   215  LEU215      0.0001
     30  CD2        0.4460   -6.4200  -18.6800 C.3   215  LEU215      0.0001
     31  N         -0.5890   -8.3520   -9.8770 N.3   224  TYR224     -0.1241
     32  CA        -1.0060   -6.9920  -10.2640 C.3   224  TYR224      0.1605
     33  C         -0.5140   -5.8400   -9.3800 C.2   224  TYR224      0.2264
     34  O         -0.9820   -4.7240   -9.5670 O.2   224  TYR224     -0.2867
     35  CB        -2.5340   -6.8870  -10.5150 C.3   224  TYR224      0.0534
     36  CG        -3.1240   -7.9930  -11.3620 C.ar  224  TYR224     -0.0201
     37  CD1       -2.6610   -8.2330  -12.6550 C.ar  224  TYR224     -0.0009
     38  CD2       -4.1740   -8.7760  -10.8880 C.ar  224  TYR224     -0.0009
     39  CE1       -3.1790   -9.2720  -13.4280 C.ar  224  TYR224      0.0417
     40  CE2       -4.7240   -9.7980  -11.6660 C.ar  224  TYR224      0.0417
     41  CZ        -4.2190  -10.0450  -12.9320 C.ar  224  TYR224      0.1957
     42  OH        -4.7780  -11.0210  -13.7220 O.3   224  TYR224     -0.2866
     43  N          2.6080   -2.2920  -15.0690 N.3   228  TYR228     -0.1241
     44  CA         2.0800   -2.7670  -16.3440 C.3   228  TYR228      0.1605
     45  C          1.6160   -1.6190  -17.2140 C.2   228  TYR228      0.2264
     46  O          1.1550   -0.5870  -16.7080 O.2   228  TYR228     -0.2867
     47  CB         1.0340   -3.8830  -16.2200 C.3   228  TYR228      0.0534
     48  CG        -0.3080   -3.4880  -15.6480 C.ar  228  TYR228     -0.0201
     49  CD1       -1.2370   -2.7910  -16.4150 C.ar  228  TYR228     -0.0009
     50  CD2       -0.7050   -3.9290  -14.3860 C.ar  228  TYR228     -0.0009
     51  CE1       -2.4910   -2.4530  -15.9040 C.ar  228  TYR228      0.0417
     52  CE2       -1.9620   -3.6140  -13.8730 C.ar  228  TYR228      0.0417
     53  CZ        -2.8530   -2.8820  -14.6370 C.ar  228  TYR228      0.1957
     54  OH        -4.0960   -2.5720  -14.1430 O.3   228  TYR228     -0.2866
     55  N         -0.5330   -1.1510  -20.8120 N.3   230  ILE230     -0.1245
     56  CA        -1.4220   -1.8180  -21.7570 C.3   230  ILE230      0.1561
     57  C         -2.0100   -0.8470  -22.7620 C.2   230  ILE230      0.2260
     58  O         -2.9730   -0.1660  -22.4310 O.2   230  ILE230     -0.2867
     59  CB        -2.4860   -2.7280  -21.0630 C.3   230  ILE230      0.0252
     60  CG1       -1.8330   -3.7870  -20.1070 C.3   230  ILE230      0.0019
     61  CG2       -3.4400   -3.4120  -22.1110 C.3   230  ILE230      0.0019
     62  CD1       -2.8270   -4.5420  -19.2650 C.3   230  ILE230      0.0001
     63  N        -11.5950   -5.5910   -8.5520 N.3   283  ARG283     -0.1245
     64  CA       -11.5590   -6.9060   -9.1580 C.3   283  ARG283      0.1563
     65  C        -12.3540   -7.8420   -8.2300 C.2   283  ARG283      0.2260
     66  O        -12.0470   -7.8960   -7.0420 O.2   283  ARG283     -0.2867
     67  CB       -10.1130   -7.4100   -9.2690 C.3   283  ARG283      0.0307
     68  CG        -9.2070   -6.6140  -10.1950 C.3   283  ARG283      0.0489
     69  CD        -7.8170   -7.0490   -9.8360 C.3   283  ARG283      0.2205
     70  NE        -6.7620   -6.2890  -10.4880 N.pl3 283  ARG283     -0.0865
     71  CZ        -6.1750   -5.2140   -9.9760 C.cat 283  ARG283      0.5346
     72  NH1       -6.5960   -4.7020   -8.8340 N.pl3 283  ARG283      0.1354
     73  NH2       -5.1940   -4.6140  -10.6290 N.pl3 283  ARG283      0.1354
     74  N         -9.1540  -10.6740  -11.7910 N.3   313  GLY313     -0.1225
     75  CA        -8.5800   -9.8160  -12.8230 C.3   313  GLY313      0.1811
     76  C         -8.5530  -10.5180  -14.1520 C.2   313  GLY313      0.2280
     77  O         -7.7190  -10.2090  -14.9920 O.2   313  GLY313     -0.2866
     78  N        -11.0520  -12.1480  -20.0740 N.3   317  THR317     -0.1218
     79  CA       -10.2490  -13.3010  -20.5200 C.3   317  THR317      0.1862
     80  C        -11.0740  -14.6020  -20.5160 C.2   317  THR317      0.2287
     81  O        -10.8240  -15.4890  -21.3200 O.2   317  THR317     -0.2866
     82  CB        -9.0560  -13.4540  -19.5150 C.3   317  THR317      0.1770
     83  OG1       -8.2010  -12.3160  -19.6040 O.3   317  THR317     -0.2211
     84  CG2       -8.2610  -14.7150  -19.6930 C.3   317  THR317      0.0375
@<TRIPOS>BOND
     1    12    11    1
     2    57    58    2
     3    57    56    1
     4     4     3    2
     5     7     8    1
     6     7    10    1
     7     7     6    1
     8    11    10    1
     9    11    13    1
    10    61    59    1
    11     8     9    2
    12    56    59    1
    13    56    55    1
    14    81    80    2
    15     3     2    1
    16    59    60    1
    17    14    15    1
    18    21    20    2
    19    79    80    1
    20    79    78    1
    21    79    82    1
    22     2     5    1
    23     2     1    1
    24    60    62    1
    25    15    18    1
    26    15    16    1
    27    84    82    1
    28    18    19    1
    29    20    19    1
    30    20    22   am
    31    83    82    1
    32    23    24    1
    33    28    30    1
    34    28    29    1
    35    28    27    1
    36    16    17    2
    37    27    24    1
    38    24    25    1
    39    26    25    2
    40    45    46    2
    41    45    44    1
    42    49    51   ar
    43    49    48   ar
    44    44    47    1
    45    44    43    1
    46    47    48    1
    47    51    53   ar
    48    48    50   ar
    49    77    76    2
    50    53    54    1
    51    53    52   ar
    52    50    52   ar
    53    76    75    1
    54    42    41    1
    55    39    41   ar
    56    39    37   ar
    57    41    40   ar
    58    75    74    1
    59    37    36   ar
    60    40    38   ar
    61    36    38   ar
    62    36    35    1
    63    73    71    1
    64    35    32    1
    65    70    71    2
    66    70    69    1
    67    32    31    1
    68    32    33    1
    69    68    69    1
    70    68    67    1
    71    71    72    1
    72    34    33    2
    73    67    64    1
    74    64    63    1
    75    64    65    1
    76    65    66    2
