@<TRIPOS>MOLECULE
tmp/3znqA01.pdb
 148 144 0 0 0
SMALL
GASTEIGER

@<TRIPOS>ATOM
      1  N         -6.8870    6.0480   12.6250 N.3    49  ALA49      -0.1245
      2  CA        -6.3540    5.5810   11.3390 C.3    49  ALA49       0.1562
      3  C         -7.4420    5.4590   10.2840 C.2    49  ALA49       0.2260
      4  O         -7.1820    5.7080    9.1090 O.2    49  ALA49      -0.2867
      5  CB        -5.6240    4.2570   11.5070 C.3    49  ALA49       0.0290
      6  N         -9.5790    2.5500    9.8420 N.3    51  LEU51      -0.1245
      7  CA        -9.8870    1.2100    9.3480 C.3    51  LEU51       0.1561
      8  C        -11.3200    0.8140    9.6900 C.2    51  LEU51       0.2260
      9  O        -11.7550    1.0100   10.8230 O.2    51  LEU51      -0.2867
     10  CB        -8.8770    0.1370    9.8650 C.3    51  LEU51       0.0270
     11  CG        -9.1760   -1.3310    9.4490 C.3    51  LEU51       0.0019
     12  CD1       -8.9260   -1.5740    7.9560 C.3    51  LEU51       0.0001
     13  CD2       -8.4190   -2.3040   10.2840 C.3    51  LEU51       0.0001
     14  N        -13.6990   -1.7430   10.8080 N.3    53  GLN53      -0.1231
     15  CA       -13.7510   -3.0130   11.5080 C.3    53  GLN53       0.1683
     16  C        -14.5340   -2.9130   12.8160 C.2    53  GLN53       0.2434
     17  O        -14.0560   -2.2820   13.7590 O.2    53  GLN53      -0.2733
     18  CB       -12.3560   -3.5990   11.7500 C.3    53  GLN53       0.0380
     19  CG       -12.4070   -5.1040   11.8970 C.3    53  GLN53       0.0905
     20  CD       -11.0550   -5.7240   11.7920 C.2    53  GLN53       0.2608
     21  OE1      -10.3780   -5.6400   10.7610 O.2    53  GLN53      -0.2717
     22  NE2      -10.6710   -6.4130   12.8360 N.am   53  GLN53      -0.0878
     23  N        -15.6910   -3.5960   12.9380 N.am   54  PRO54      -0.2718
     24  CA       -16.4220   -3.5900   14.2130 C.3    54  PRO54       0.1535
     25  C        -15.6600   -4.3460   15.3130 C.2    54  PRO54       0.2599
     26  O        -14.6910   -5.0460   15.0040 O.2    54  PRO54      -0.2715
     27  CB       -17.7380   -4.2830   13.8470 C.3    54  PRO54       0.0310
     28  CG       -17.8260   -4.1860   12.3560 C.3    54  PRO54       0.0237
     29  CD       -16.4210   -4.3870   11.9370 C.3    54  PRO54       0.0939
     30  N        -16.0970   -4.2040   16.5950 N.am   55  TYR55      -0.1960
     31  CA       -15.4830   -4.8130   17.7940 C.3    55  TYR55       0.1771
     32  C        -15.2240   -6.3290   17.8450 C.2    55  TYR55       0.2619
     33  O        -14.5310   -6.7680   18.7660 O.2    55  TYR55      -0.2715
     34  CB       -16.2280   -4.4280   19.0960 C.3    55  TYR55       0.0574
     35  CG       -16.6470   -5.5740   20.0070 C.ar   55  TYR55      -0.0198
     36  CD1      -15.8010   -6.0370   21.0160 C.ar   55  TYR55      -0.0009
     37  CD2      -17.9210   -6.1350   19.9170 C.ar   55  TYR55      -0.0009
     38  CE1      -16.1870   -7.0750   21.8670 C.ar   55  TYR55       0.0417
     39  CE2      -18.3240   -7.1580   20.7790 C.ar   55  TYR55       0.0417
     40  CZ       -17.4510   -7.6270   21.7490 C.ar   55  TYR55       0.1957
     41  OH       -17.8340   -8.6290   22.6070 O.3    55  TYR55      -0.2866
     42  N        -15.7380   -7.1080   16.8490 N.am   56  LEU56      -0.1977
     43  CA       -15.4950   -8.5240   16.5560 C.3    56  LEU56       0.1596
     44  C        -16.0220   -9.8100   17.2420 C.2    56  LEU56       0.2287
     45  O        -15.7240  -10.9150   16.7810 O.2    56  LEU56      -0.2864
     46  CB       -14.1160   -9.0880   17.0440 C.3    56  LEU56       0.0297
     47  CG       -13.0520   -9.3960   15.9890 C.3    56  LEU56       0.0022
     48  CD1      -12.4400   -8.1250   15.4240 C.3    56  LEU56       0.0001
     49  CD2      -11.9540  -10.2440   16.5860 C.3    56  LEU56       0.0001
     50  N         -3.6110   -6.6490   12.3670 N.3   215  LEU215     -0.1231
     51  CA        -4.2030   -6.4460   13.6840 C.3   215  LEU215      0.1693
     52  C         -3.9740   -7.6900   14.5080 C.2   215  LEU215      0.2593
     53  O         -4.2190   -8.7910   14.0360 O.2   215  LEU215     -0.2718
     54  CB        -5.7060   -6.1440   13.6240 C.3   215  LEU215      0.0284
     55  CG        -6.2610   -4.9340   12.8480 C.3   215  LEU215      0.0019
     56  CD1       -7.6980   -4.7090   13.2340 C.3   215  LEU215      0.0001
     57  CD2       -5.4980   -3.6600   13.1070 C.3   215  LEU215      0.0001
     58  N         -3.4880   -7.5350   15.7230 N.am  216  THR216     -0.1939
     59  CA        -3.2690   -8.6930   16.5990 C.3   216  THR216      0.2028
     60  C         -4.3230   -8.7410   17.7170 C.2   216  THR216      0.2642
     61  O         -4.8590   -7.6950   18.0920 O.2   216  THR216     -0.2714
     62  CB        -1.8490   -8.7180   17.1510 C.3   216  THR216      0.1808
     63  OG1       -1.6790   -7.6450   18.0670 O.3   216  THR216     -0.2208
     64  CG2       -0.7810   -8.6990   16.0620 C.3   216  THR216      0.0379
     65  N         -4.6450   -9.9460   18.2170 N.am  217  HIS217     -0.1973
     66  CA        -5.6610  -10.1160   19.2660 C.3   217  HIS217      0.1656
     67  C         -5.2700  -11.1530   20.3050 C.2   217  HIS217      0.2291
     68  O         -4.7790  -12.2300   19.9560 O.2   217  HIS217     -0.2864
     69  CB        -7.0230  -10.5400   18.6700 C.3   217  HIS217      0.0771
     70  CG        -7.5150   -9.7170   17.5230 C.ar  217  HIS217      0.0820
     71  ND1       -8.3640   -8.6450   17.7160 N.ar  217  HIS217     -0.2267
     72  CD2       -7.2820   -9.8580   16.1970 C.ar  217  HIS217      0.1154
     73  CE1       -8.6110   -8.1600   16.5070 C.ar  217  HIS217      0.1986
     74  NE2       -7.9790   -8.8570   15.5630 N.ar  217  HIS217     -0.2212
     75  N         -9.0150   -5.7180   24.5880 N.3   223  ILE223     -0.1231
     76  CA        -9.3250   -4.9890   23.3550 C.3   223  ILE223      0.1692
     77  C         -8.4550   -3.7310   23.2160 C.2   223  ILE223      0.2592
     78  O         -8.1600   -3.0550   24.2080 O.2   223  ILE223     -0.2718
     79  CB       -10.8640   -4.7590   23.1460 C.3   223  ILE223      0.0266
     80  CG1      -11.2340   -4.2430   21.7210 C.3   223  ILE223      0.0019
     81  CG2      -11.4900   -3.8910   24.2480 C.3   223  ILE223      0.0020
     82  CD1      -11.3420   -5.2820   20.6260 C.3   223  ILE223      0.0001
     83  N         -7.9810   -3.4840   21.9810 N.am  224  TYR224     -0.1976
     84  CA        -7.1230   -2.3640   21.5510 C.3   224  TYR224      0.1639
     85  C         -5.7430   -2.2960   22.2320 C.2   224  TYR224      0.2290
     86  O         -4.9740   -1.3790   21.9380 O.2   224  TYR224     -0.2864
     87  CB        -7.8060   -0.9800   21.7280 C.3   224  TYR224      0.0560
     88  CG        -9.3000   -0.9210   21.4650 C.ar  224  TYR224     -0.0198
     89  CD1       -9.7990   -0.8510   20.1650 C.ar  224  TYR224     -0.0009
     90  CD2      -10.2090   -0.8390   22.5150 C.ar  224  TYR224     -0.0009
     91  CE1      -11.1700   -0.7530   19.9180 C.ar  224  TYR224      0.0417
     92  CE2      -11.5790   -0.7220   22.2820 C.ar  224  TYR224      0.0417
     93  CZ       -12.0590   -0.6920   20.9820 C.ar  224  TYR224      0.1957
     94  OH       -13.4170   -0.5950   20.7620 O.3   224  TYR224     -0.2866
     95  N         -0.7510   -3.2560   16.4930 N.3   228  TYR228     -0.1241
     96  CA        -1.3940   -3.0570   15.2080 C.3   228  TYR228      0.1605
     97  C         -0.5920   -2.1400   14.3390 C.2   228  TYR228      0.2264
     98  O          0.0730   -1.2320   14.8420 O.2   228  TYR228     -0.2867
     99  CB        -2.8840   -2.6660   15.2780 C.3   228  TYR228      0.0534
    100  CG        -3.2420   -1.3090   15.8500 C.ar  228  TYR228     -0.0201
    101  CD1       -3.0040   -0.1370   15.1290 C.ar  228  TYR228     -0.0009
    102  CD2       -3.9520   -1.2020   17.0430 C.ar  228  TYR228     -0.0009
    103  CE1       -3.4020    1.1090   15.6150 C.ar  228  TYR228      0.0417
    104  CE2       -4.3460    0.0380   17.5450 C.ar  228  TYR228      0.0417
    105  CZ        -4.0730    1.1910   16.8270 C.ar  228  TYR228      0.1957
    106  OH        -4.4940    2.4000   17.3240 O.3   228  TYR228     -0.2866
    107  N         -1.2630   -0.0410   10.6690 N.3   230  ILE230     -0.1245
    108  CA        -2.2970    0.3720    9.7160 C.3   230  ILE230      0.1561
    109  C         -1.7480    1.3760    8.6800 C.2   230  ILE230      0.2260
    110  O         -1.6350    2.5660    8.9910 O.2   230  ILE230     -0.2867
    111  CB        -3.6090    0.8690   10.4230 C.3   230  ILE230      0.0252
    112  CG1       -4.1210   -0.1150   11.5210 C.3   230  ILE230      0.0019
    113  CG2       -4.6910    1.1750    9.3960 C.3   230  ILE230      0.0019
    114  CD1       -5.3270    0.3720   12.3770 C.3   230  ILE230      0.0001
    115  N        -10.7490    7.3160   23.2380 N.3   283  ARG283     -0.1245
    116  CA       -11.9060    6.6730   22.6270 C.3   283  ARG283      0.1563
    117  C        -13.1050    6.9080   23.5340 C.2   283  ARG283      0.2260
    118  O        -12.9760    6.6880   24.7390 O.2   283  ARG283     -0.2867
    119  CB       -11.6690    5.1640   22.4220 C.3   283  ARG283      0.0307
    120  CG       -10.5130    4.8080   21.4690 C.3   283  ARG283      0.0489
    121  CD       -10.2030    3.3350   21.5680 C.3   283  ARG283      0.2205
    122  NE        -8.9030    2.9660   21.0070 N.pl3 283  ARG283     -0.0865
    123  CZ        -7.7550    2.9890   21.6800 C.cat 283  ARG283      0.5346
    124  NH1       -7.7160    3.4380   22.9260 N.pl3 283  ARG283      0.1354
    125  NH2       -6.6320    2.5860   21.1030 N.pl3 283  ARG283      0.1354
    126  N        -13.7410    2.7980   19.9780 N.3   313  GLY313     -0.1210
    127  CA       -12.7020    2.6670   18.9710 C.3   313  GLY313      0.1956
    128  C        -13.1840    2.3310   17.5810 C.2   313  GLY313      0.2611
    129  O        -12.3770    1.9140   16.7630 O.2   313  GLY313     -0.2717
    130  N        -14.4770    2.5310   17.2880 N.am  314  TYR314     -0.1976
    131  CA       -15.0870    2.2120   15.9910 C.3   314  TYR314      0.1639
    132  C        -15.9770    3.3480   15.4370 C.2   314  TYR314      0.2290
    133  O        -16.9000    3.0860   14.6650 O.2   314  TYR314     -0.2864
    134  CB       -15.8580    0.8710   16.0670 C.3   314  TYR314      0.0560
    135  CG       -16.9300    0.8400   17.1390 C.ar  314  TYR314     -0.0198
    136  CD1      -16.6260    0.4790   18.4510 C.ar  314  TYR314     -0.0009
    137  CD2      -18.2540    1.1720   16.8430 C.ar  314  TYR314     -0.0009
    138  CE1      -17.6040    0.4700   19.4460 C.ar  314  TYR314      0.0417
    139  CE2      -19.2440    1.1650   17.8320 C.ar  314  TYR314      0.0417
    140  CZ       -18.9150    0.8040   19.1290 C.ar  314  TYR314      0.1957
    141  OH       -19.8890    0.7790   20.0990 O.3   314  TYR314     -0.2866
    142  N        -15.9290    3.5000   11.6550 N.3   317  THR317     -0.1218
    143  CA       -16.5760    2.2740   11.1830 C.3   317  THR317      0.1862
    144  C        -18.1140    2.3790   11.1600 C.2   317  THR317      0.2287
    145  O        -18.7460    1.8420   10.2510 O.2   317  THR317     -0.2866
    146  CB       -16.1200    1.1010   12.0710 C.3   317  THR317      0.1770
    147  OG1      -14.7320    0.8920   11.8530 O.3   317  THR317     -0.2211
    148  CG2      -16.8560   -0.1880   11.7990 C.3   317  THR317      0.0375
@<TRIPOS>BOND
     1    12    11    1
     2   109   110    2
     3   109   108    1
     4     4     3    2
     5     7     8    1
     6     7     6    1
     7     7    10    1
     8   113   111    1
     9    11    10    1
    10    11    13    1
    11     8     9    2
    12   108   111    1
    13   108   107    1
    14   145   144    2
    15     3     2    1
    16   111   112    1
    17    21    20    2
    18    14    15    1
    19   144   143    1
    20   143   142    1
    21   143   146    1
    22     2     5    1
    23     2     1    1
    24    15    18    1
    25    15    16    1
    26   112   114    1
    27    18    19    1
    28    20    19    1
    29    20    22   am
    30   148   146    1
    31   147   146    1
    32    29    28    1
    33    29    23    1
    34    28    27    1
    35    50    51    1
    36    16    23   am
    37    16    17    2
    38    55    57    1
    39    55    56    1
    40    55    54    1
    41    23    24    1
    42    54    51    1
    43    51    52    1
    44    27    24    1
    45    53    52    2
    46    24    25    1
    47    97    98    2
    48    97    96    1
    49    52    58   am
    50   133   132    2
    51    26    25    2
    52   101   103   ar
    53   101   100   ar
    54    96    99    1
    55    96    95    1
    56    99   100    1
    57    25    30   am
    58    48    47    1
    59   132   131    1
    60    74    72   ar
    61    74    73   ar
    62   103   105   ar
    63    58    59    1
    64   100   102   ar
    65    47    49    1
    66    47    46    1
    67   131   134    1
    68   131   130    1
    69    64    62    1
    70   134   135    1
    71    72    70   ar
    72    73    71   ar
    73    43    42    1
    74    43    46    1
    75    43    44    1
    76    30    31    1
    77    59    62    1
    78    59    60    1
    79   129   128    2
    80    45    44    2
    81   105   106    1
    82   105   104   ar
    83   137   135   ar
    84   137   139   ar
    85    42    32   am
    86   102   104   ar
    87   135   136   ar
    88    62    63    1
    89   130   128   am
    90    70    71   ar
    91    70    69    1
    92   128   127    1
    93    60    61    2
    94    60    65   am
    95    31    32    1
    96    31    34    1
    97   139   140   ar
    98    32    33    2
    99    65    66    1
   100   136   138   ar
   101    69    66    1
   102   127   126    1
   103    34    35    1
   104   140   138   ar
   105   140   141    1
   106    66    67    1
   107    37    35   ar
   108    37    39   ar
   109    91    89   ar
   110    91    93   ar
   111    68    67    2
   112    35    36   ar
   113    89    88   ar
   114    82    80    1
   115    94    93    1
   116    39    40   ar
   117    93    92   ar
   118   122   121    1
   119   122   123    2
   120    36    38   ar
   121   125   123    1
   122    88    87    1
   123    88    90   ar
   124   120   121    1
   125   120   119    1
   126    84    87    1
   127    84    83    1
   128    84    85    1
   129   123   124    1
   130    80    79    1
   131    40    38   ar
   132    40    41    1
   133    86    85    2
   134    83    77   am
   135    92    90   ar
   136   119   116    1
   137   116   115    1
   138   116   117    1
   139    79    76    1
   140    79    81    1
   141    77    76    1
   142    77    78    2
   143    76    75    1
   144   117   118    2
