@<TRIPOS>MOLECULE
tmp/3znsA00.pdb
 170 166 0 0 0
SMALL
GASTEIGER

@<TRIPOS>ATOM
      1  N         -0.7590    8.5240  -24.7560 N.3    24  SER24      -0.1202
      2  CA        -1.8470    9.2410  -24.0940 C.3    24  SER24       0.2020
      3  C         -3.1270    8.4170  -24.1270 C.2    24  SER24       0.2618
      4  O         -3.7810    8.2430  -23.0930 O.2    24  SER24      -0.2717
      5  CB        -2.0780   10.6060  -24.7400 C.3    24  SER24       0.2103
      6  OG        -0.9400   11.4310  -24.5730 O.3    24  SER24      -0.2182
      7  N         -3.4770    7.9080  -25.3100 N.am   25  ARG25      -0.1979
      8  CA        -4.6310    7.0140  -25.4530 C.3    25  ARG25       0.1597
      9  C         -4.4390    5.6990  -24.6870 C.2    25  ARG25       0.2287
     10  O         -5.4190    5.0590  -24.3050 O.2    25  ARG25      -0.2864
     11  CB        -4.9330    6.7250  -26.9300 C.3    25  ARG25       0.0334
     12  CG        -6.0970    5.7510  -27.1410 C.3    25  ARG25       0.0492
     13  CD        -6.8140    5.9530  -28.4720 C.3    25  ARG25       0.2205
     14  NE        -5.9070    5.8780  -29.6210 N.pl3  25  ARG25      -0.0865
     15  CZ        -5.7210    6.8400  -30.5290 C.cat  25  ARG25       0.5346
     16  NH1       -6.3810    7.9950  -30.4680 N.pl3  25  ARG25       0.1354
     17  NH2       -4.8630    6.6390  -31.5260 N.pl3  25  ARG25       0.1354
     18  N         -2.5620    4.8840  -21.3960 N.3    27  PRO27      -0.2102
     19  CA        -1.8100    5.4720  -20.2760 C.3    27  PRO27       0.1504
     20  C         -0.9160    4.5080  -19.4850 C.2    27  PRO27       0.2575
     21  O         -0.0030    4.9580  -18.7930 O.2    27  PRO27      -0.2718
     22  CB        -2.9090    6.0480  -19.3640 C.3    27  PRO27       0.0282
     23  CG        -4.2140    5.8090  -20.0570 C.3    27  PRO27       0.0208
     24  CD        -3.9950    4.7540  -21.0780 C.3    27  PRO27       0.0893
     25  N         -1.1830    3.2080  -19.5650 N.am   28  GLU28      -0.1980
     26  CA        -0.2900    2.2140  -18.9770 C.3    28  GLU28       0.1602
     27  C          0.9090    2.0560  -19.9120 C.2    28  GLU28       0.2287
     28  O          0.9500    1.1340  -20.7220 O.2    28  GLU28      -0.2864
     29  CB        -1.0250    0.8770  -18.7660 C.3    28  GLU28       0.0415
     30  CG        -0.3640   -0.0600  -17.7490 C.3    28  GLU28       0.1163
     31  CD         0.9810   -0.5900  -18.2190 C.2    28  GLU28       0.3649
     32  OE1        0.9920   -1.5450  -19.0240 O.co2  28  GLU28      -0.2457
     33  OE2        2.0250   -0.0420  -17.7930 O.co2  28  GLU28      -0.2457
     34  N          6.3510    4.7120  -17.3850 N.3    32  ARG32      -0.1245
     35  CA         6.0240    4.5010  -15.9780 C.3    32  ARG32       0.1563
     36  C          7.1690    3.8450  -15.2020 C.2    32  ARG32       0.2260
     37  O          7.5460    4.3380  -14.1430 O.2    32  ARG32      -0.2867
     38  CB         4.7410    3.6730  -15.8420 C.3    32  ARG32       0.0307
     39  CG         3.4940    4.3920  -16.3470 C.3    32  ARG32       0.0489
     40  CD         2.2430    3.5210  -16.2660 C.3    32  ARG32       0.2205
     41  NE         1.9770    3.0870  -14.8950 N.pl3  32  ARG32      -0.0865
     42  CZ         2.1530    1.8530  -14.4180 C.cat  32  ARG32       0.5346
     43  NH1        2.5790    0.8640  -15.1910 N.pl3  32  ARG32       0.1354
     44  NH2        1.8860    1.6080  -13.1420 N.pl3  32  ARG32       0.1354
     45  N         -9.1140   -1.0730  -23.0070 N.3    93  ASP93      -0.1239
     46  CA        -8.0000   -0.5760  -22.1880 C.3    93  ASP93       0.1674
     47  C         -6.8070   -1.5340  -22.1620 C.2    93  ASP93       0.2266
     48  O         -5.6620   -1.0950  -22.0910 O.2    93  ASP93      -0.2867
     49  CB        -8.4750   -0.3090  -20.7510 C.3    93  ASP93       0.1410
     50  CG        -9.4480    0.8570  -20.6590 C.2    93  ASP93       0.3668
     51  OD1       -9.5230    1.6620  -21.6120 O.co2  93  ASP93      -0.2456
     52  OD2      -10.1400    0.9770  -19.6280 O.co2  93  ASP93      -0.2456
     53  N          0.8800   -4.3650  -15.0830 N.3   134  PRO134     -0.2116
     54  CA         0.4220   -4.7410  -13.7450 C.3   134  PRO134      0.1372
     55  C         -0.2890   -6.1060  -13.7310 C.2   134  PRO134      0.2244
     56  O         -0.5450   -6.6830  -14.7950 O.2   134  PRO134     -0.2868
     57  CB        -0.5410   -3.6120  -13.3750 C.3   134  PRO134      0.0268
     58  CG        -1.0310   -3.0980  -14.6740 C.3   134  PRO134      0.0207
     59  CD         0.1000   -3.2470  -15.6400 C.3   134  PRO134      0.0892
     60  N         -2.6740   -7.4160  -10.6110 N.3   136  HIS136     -0.1226
     61  CA        -3.6860   -7.7870   -9.6100 C.3   136  HIS136      0.1752
     62  C         -5.1430   -7.8810  -10.1000 C.2   136  HIS136      0.2596
     63  O         -5.9930   -8.4120   -9.3820 O.2   136  HIS136     -0.2718
     64  CB        -3.5710   -6.8950   -8.3620 C.3   136  HIS136      0.0759
     65  CG        -4.0290   -5.4830   -8.5630 C.ar  136  HIS136      0.0818
     66  ND1       -4.4530   -4.6890   -7.5210 N.ar  136  HIS136     -0.2268
     67  CD2       -4.1370   -4.7240   -9.6810 C.ar  136  HIS136      0.1154
     68  CE1       -4.7990   -3.5030   -7.9870 C.ar  136  HIS136      0.1986
     69  NE2       -4.6200   -3.5000   -9.2950 N.ar  136  HIS136     -0.2212
     70  N         -5.4320   -7.4080  -11.3120 N.am  137  HIS137     -0.1975
     71  CA        -6.7740   -7.5620  -11.8910 C.3   137  HIS137      0.1656
     72  C         -6.9480   -8.8640  -12.6850 C.2   137  HIS137      0.2291
     73  O         -8.0720   -9.3250  -12.8860 O.2   137  HIS137     -0.2864
     74  CB        -7.1360   -6.3680  -12.7860 C.3   137  HIS137      0.0771
     75  CG        -7.2990   -5.0760  -12.0450 C.ar  137  HIS137      0.0820
     76  ND1       -8.0150   -4.9700  -10.8720 N.ar  137  HIS137     -0.2267
     77  CD2       -6.8550   -3.8290  -12.3250 C.ar  137  HIS137      0.1154
     78  CE1       -7.9980   -3.7140  -10.4600 C.ar  137  HIS137      0.1986
     79  NE2       -7.2990   -3.0020  -11.3230 N.ar  137  HIS137     -0.2212
     80  N         -8.3150   -4.9680  -17.0560 N.3   145  GLY145     -0.1210
     81  CA        -7.7800   -3.8140  -16.3340 C.3   145  GLY145      0.1956
     82  C         -6.2720   -3.6750  -16.4620 C.2   145  GLY145      0.2612
     83  O         -5.5710   -3.5410  -15.4610 O.2   145  GLY145     -0.2717
     84  N         -5.7870   -3.7190  -17.7030 N.am  146  PHE146     -0.1962
     85  CA        -4.3550   -3.6120  -18.0220 C.3   146  PHE146      0.1771
     86  C         -3.5080   -4.7950  -17.5340 C.2   146  PHE146      0.2619
     87  O         -2.2840   -4.7230  -17.5740 O.2   146  PHE146     -0.2715
     88  CB        -3.7630   -2.2970  -17.4850 C.3   146  PHE146      0.0574
     89  CG        -4.5190   -1.0620  -17.9120 C.ar  146  PHE146     -0.0200
     90  CD1       -4.2480   -0.4470  -19.1280 C.ar  146  PHE146     -0.0042
     91  CD2       -5.4920   -0.5070  -17.0920 C.ar  146  PHE146     -0.0042
     92  CE1       -4.9430    0.7010  -19.5200 C.ar  146  PHE146     -0.0003
     93  CE2       -6.1910    0.6390  -17.4800 C.ar  146  PHE146     -0.0003
     94  CZ        -5.9110    1.2440  -18.6910 C.ar  146  PHE146     -0.0000
     95  N         -4.1440   -5.8850  -17.1040 N.am  147  CYS147     -0.1968
     96  CA        -3.4220   -7.0090  -16.5010 C.3   147  CYS147      0.1712
     97  C         -3.6050   -8.3010  -17.2760 C.2   147  CYS147      0.2296
     98  O         -4.6820   -8.5640  -17.8120 O.2   147  CYS147     -0.2864
     99  CB        -3.8800   -7.2180  -15.0610 C.3   147  CYS147      0.0983
    100  SG        -3.5870   -5.8010  -14.0050 S.3   147  CYS147     -0.0798
    101  N         -2.8790   -0.2810   -3.8490 N.3   174  ASP174     -0.1239
    102  CA        -3.3530    0.3080   -5.0920 C.3   174  ASP174      0.1674
    103  C         -4.8070    0.7220   -4.8490 C.2   174  ASP174      0.2266
    104  O         -5.5300    0.0440   -4.1110 O.2   174  ASP174     -0.2867
    105  CB        -3.2440   -0.7260   -6.2220 C.3   174  ASP174      0.1410
    106  CG        -3.6170   -0.1650   -7.5890 C.2   174  ASP174      0.3668
    107  OD1       -4.7920    0.2290   -7.7860 O.co2 174  ASP174     -0.2456
    108  OD2       -2.7350   -0.1450   -8.4790 O.co2 174  ASP174     -0.2456
    109  N         -7.4010    0.6320   -6.7140 N.3   176  HIS176     -0.1241
    110  CA        -8.3690   -0.3430   -7.2360 C.3   176  HIS176      0.1621
    111  C         -8.2550   -1.6770   -6.5040 C.2   176  HIS176      0.2264
    112  O         -7.1620   -2.0830   -6.1200 O.2   176  HIS176     -0.2867
    113  CB        -8.1400   -0.5880   -8.7220 C.3   176  HIS176      0.0745
    114  CG        -8.0890    0.6620   -9.5360 C.ar  176  HIS176      0.0817
    115  ND1       -6.9250    1.3750   -9.7250 N.ar  176  HIS176     -0.2268
    116  CD2       -9.0580    1.3340  -10.2000 C.ar  176  HIS176      0.1154
    117  CE1       -7.1800    2.4310  -10.4760 C.ar  176  HIS176      0.1986
    118  NE2       -8.4660    2.4280  -10.7770 N.ar  176  HIS176     -0.2212
    119  N        -13.9340    0.8150  -10.5780 N.3   205  PHE205     -0.1241
    120  CA       -13.3230   -0.3980  -11.1250 C.3   205  PHE205      0.1605
    121  C        -12.4510   -1.0880  -10.0770 C.2   205  PHE205      0.2264
    122  O        -11.7160   -0.4200   -9.3560 O.2   205  PHE205     -0.2867
    123  CB       -12.4910   -0.0910  -12.3820 C.3   205  PHE205      0.0534
    124  CG       -12.0130   -1.3240  -13.1090 C.ar  205  PHE205     -0.0203
    125  CD1      -10.8430   -1.9730  -12.7200 C.ar  205  PHE205     -0.0042
    126  CD2      -12.7410   -1.8460  -14.1730 C.ar  205  PHE205     -0.0042
    127  CE1      -10.4040   -3.1190  -13.3820 C.ar  205  PHE205     -0.0003
    128  CE2      -12.3100   -2.9890  -14.8440 C.ar  205  PHE205     -0.0003
    129  CZ       -11.1390   -3.6270  -14.4460 C.ar  205  PHE205     -0.0000
    130  N         -1.6810    4.8390   -7.4180 N.3   268  ASP268     -0.1239
    131  CA        -2.7860    5.6210   -7.9790 C.3   268  ASP268      0.1674
    132  C         -3.7340    6.1760   -6.9030 C.2   268  ASP268      0.2266
    133  O         -4.7350    6.8100   -7.2300 O.2   268  ASP268     -0.2867
    134  CB        -3.5540    4.8180   -9.0460 C.3   268  ASP268      0.1410
    135  CG        -3.8270    3.3760   -8.6350 C.2   268  ASP268      0.3668
    136  OD1       -3.7260    3.0550   -7.4300 O.co2 268  ASP268     -0.2456
    137  OD2       -4.1410    2.5600   -9.5270 O.co2 268  ASP268     -0.2456
    138  N        -12.0200    9.8910  -12.7710 N.3   276  PRO276     -0.2102
    139  CA       -12.1310    8.6120  -12.0770 C.3   276  PRO276      0.1504
    140  C        -10.9570    7.6790  -12.3710 C.2   276  PRO276      0.2575
    141  O        -11.1560    6.5820  -12.8910 O.2   276  PRO276     -0.2718
    142  CB       -13.4180    8.0330  -12.6630 C.3   276  PRO276      0.0282
    143  CG       -13.3910    8.5040  -14.1090 C.3   276  PRO276      0.0208
    144  CD       -12.5630    9.7880  -14.1430 C.3   276  PRO276      0.0893
    145  N         -9.7440    8.1300  -12.0630 N.am  277  LEU277     -0.1980
    146  CA        -8.5790    7.2450  -12.0000 C.3   277  LEU277      0.1596
    147  C         -8.2550    6.9060  -10.5500 C.2   277  LEU277      0.2287
    148  O         -7.8620    5.7780  -10.2460 O.2   277  LEU277     -0.2864
    149  CB        -7.3570    7.8870  -12.6630 C.3   277  LEU277      0.0297
    150  CG        -6.0280    7.1270  -12.5230 C.3   277  LEU277      0.0022
    151  CD1       -6.1760    5.6280  -12.8070 C.3   277  LEU277      0.0001
    152  CD2       -4.9820    7.7380  -13.4450 C.3   277  LEU277      0.0001
    153  N         -0.4400   -0.1810  -10.2490 N.3   308  GLY308     -0.1210
    154  CA        -0.9110    1.0020  -10.9730 C.3   308  GLY308      0.1956
    155  C         -0.1940    2.2780  -10.5680 C.2   308  GLY308      0.2612
    156  O          0.7470    2.2520   -9.7720 O.2   308  GLY308     -0.2717
    157  N         -0.6640    3.3980  -11.1140 N.am  309  GLY309     -0.1942
    158  CA        -0.0370    4.6980  -10.9260 C.3   309  GLY309      0.2014
    159  C          0.3470    5.2790  -12.2750 C.2   309  GLY309      0.2638
    160  O          1.0780    4.6420  -13.0320 O.2   309  GLY309     -0.2714
    161  N         -0.1360    6.4870  -12.5630 N.am  310  HIS310     -0.1973
    162  CA         0.0470    7.1340  -13.8640 C.3   310  HIS310      0.1656
    163  C          0.8880    8.4160  -13.7650 C.2   310  HIS310      0.2291
    164  O          1.9420    8.5140  -14.3930 O.2   310  HIS310     -0.2864
    165  CB        -1.3270    7.4520  -14.4690 C.3   310  HIS310      0.0771
    166  CG        -1.2690    8.1980  -15.7660 C.ar  310  HIS310      0.0820
    167  ND1       -0.6690    7.6850  -16.8970 N.ar  310  HIS310     -0.2267
    168  CD2       -1.7540    9.4130  -16.1160 C.ar  310  HIS310      0.1154
    169  CE1       -0.7790    8.5550  -17.8850 C.ar  310  HIS310      0.1986
    170  NE2       -1.4350    9.6120  -17.4380 N.ar  310  HIS310     -0.2212
@<TRIPOS>BOND
     1    17    15    1
     2    15    16    1
     3    15    14    2
     4    14    13    1
     5    13    12    1
     6    12    11    1
     7    11     8    1
     8     8     7    1
     9     8     9    1
    10     7     3   am
    11     1     2    1
    12     5     6    1
    13     5     2    1
    14     9    10    2
    15     3     2    1
    16     3     4    2
    17    45    46    1
    18    46    47    1
    19    46    49    1
    20    47    48    2
    21    51    50   ar
    22    18    24    1
    23    18    19    1
    24    24    23    1
    25    49    50    1
    26    28    27    2
    27    50    52   ar
    28    19    20    1
    29    19    22    1
    30    23    22    1
    31    27    26    1
    32    25    20   am
    33    25    26    1
    34    92    90   ar
    35    92    94   ar
    36    20    21    2
    37    90    89   ar
    38    32    31   ar
    39    26    29    1
    40    29    30    1
    41    94    93   ar
    42    31    33   ar
    43    31    30    1
    44    85    84    1
    45    85    86    1
    46    85    88    1
    47    89    88    1
    48    89    91   ar
    49   169   170   ar
    50   169   167   ar
    51    98    97    2
    52    84    82   am
    53    87    86    2
    54    86    95   am
    55    93    91   ar
    56   170   168   ar
    57    34    35    1
    58    97    96    1
    59    95    96    1
    60    80    81    1
    61   167   166   ar
    62    96    99    1
    63    82    81    1
    64    82    83    2
    65    39    40    1
    66    39    38    1
    67    40    41    1
    68   168   166   ar
    69    35    38    1
    70    35    36    1
    71   166   165    1
    72    59    53    1
    73    59    58    1
    74    36    37    2
    75    43    42    1
    76    53    54    1
    77    99   100    1
    78    41    42    2
    79   128   129   ar
    80   128   126   ar
    81    56    55    2
    82    58    57    1
    83   165   162    1
    84   129   127   ar
    85    42    44    1
    86   164   163    2
    87   126   124   ar
    88   144   143    1
    89   144   138    1
    90   143   142    1
    91   162   163    1
    92   162   161    1
    93    54    55    1
    94    54    57    1
    95   152   150    1
    96   127   125   ar
    97   124   125   ar
    98   124   123    1
    99   160   159    2
   100   141   140    2
   101    73    72    2
   102   151   150    1
   103    74    75    1
   104    74    71    1
   105   138   139    1
   106    72    71    1
   107   142   139    1
   108   149   150    1
   109   149   146    1
   110   161   159   am
   111   123   120    1
   112   140   139    1
   113   140   145   am
   114    77    75   ar
   115    77    79   ar
   116   159   158    1
   117   145   146    1
   118    75    76   ar
   119   146   147    1
   120    71    70    1
   121    79    78   ar
   122    70    62   am
   123   120   119    1
   124   120   121    1
   125   157   158    1
   126   157   155   am
   127   154   155    1
   128   154   153    1
   129    76    78   ar
   130   118   117   ar
   131   118   116   ar
   132    60    61    1
   133   155   156    2
   134   147   148    2
   135   117   115   ar
   136   116   114   ar
   137    62    61    1
   138    62    63    2
   139   121   122    2
   140   115   114   ar
   141    67    69   ar
   142    67    65   ar
   143    61    64    1
   144   114   113    1
   145   137   135   ar
   146    69    68   ar
   147   134   135    1
   148   134   131    1
   149   113   110    1
   150   135   136   ar
   151    65    64    1
   152    65    66   ar
   153   108   106   ar
   154    68    66   ar
   155   131   130    1
   156   131   132    1
   157   107   106   ar
   158   106   105    1
   159   110   109    1
   160   110   111    1
   161   133   132    2
   162   111   112    2
   163   105   102    1
   164   102   103    1
   165   102   101    1
   166   103   104    2
