@<TRIPOS>MOLECULE
tmp/3zntA00.pdb
 106 104 0 0 0
SMALL
GASTEIGER

@<TRIPOS>ATOM
      1  N         99.4220   26.8080   25.8230 N.3    50  ALA50      -0.1231
      2  CA       100.4040   27.5970   26.6060 C.3    50  ALA50       0.1694
      3  C        100.6640   26.8630   27.9400 C.2    50  ALA50       0.2592
      4  O        100.7690   25.6190   27.9330 O.2    50  ALA50      -0.2718
      5  CB        99.9180   29.0220   26.8130 C.3    50  ALA50       0.0304
      6  N        100.7090   27.5920   29.0560 N.am   51  SER51      -0.1952
      7  CA       101.1480   27.0130   30.3590 C.3    51  SER51       0.1924
      8  C        100.1660   26.0250   30.9440 C.2    51  SER51       0.2314
      9  O        100.5160   25.3140   31.8790 O.2    51  SER51      -0.2863
     10  CB       101.4590   28.1080   31.3930 C.3    51  SER51       0.2116
     11  OG       102.6880   28.7570   31.0830 O.3    51  SER51      -0.2180
     12  N        113.1340   35.3320   31.7910 N.3    80  THR80      -0.1203
     13  CA       112.1620   36.3910   31.5080 C.3    80  THR80       0.1994
     14  C        111.7630   37.1940   32.7530 C.2    80  THR80       0.2617
     15  O        111.5670   38.4010   32.6550 O.2    80  THR80      -0.2717
     16  CB       110.8990   35.8150   30.8170 C.3    80  THR80       0.1784
     17  OG1      111.3210   35.0180   29.7120 O.3    80  THR80      -0.2211
     18  CG2      109.9430   36.9310   30.3160 C.3    80  THR80       0.0376
     19  N        111.6290   36.5390   33.9100 N.am   81  TYR81      -0.1975
     20  CA       111.2370   37.2230   35.1450 C.3    81  TYR81       0.1639
     21  C        112.2540   36.9170   36.2300 C.2    81  TYR81       0.2290
     22  O        112.7300   35.7780   36.3230 O.2    81  TYR81      -0.2864
     23  CB       109.8570   36.7480   35.6320 C.3    81  TYR81       0.0560
     24  CG       108.7580   36.8810   34.6020 C.ar   81  TYR81      -0.0198
     25  CD1      108.0690   38.1020   34.4320 C.ar   81  TYR81      -0.0009
     26  CD2      108.4190   35.8110   33.7900 C.ar   81  TYR81      -0.0009
     27  CE1      107.0710   38.2270   33.4820 C.ar   81  TYR81       0.0417
     28  CE2      107.4200   35.9200   32.8340 C.ar   81  TYR81       0.0417
     29  CZ       106.7550   37.1290   32.6830 C.ar   81  TYR81       0.1957
     30  OH       105.7600   37.2150   31.7340 O.3    81  TYR81      -0.2866
     31  N        111.9100   33.8920   38.3920 N.3    84  TRP84      -0.1241
     32  CA       112.3100   32.5670   37.8830 C.3    84  TRP84       0.1605
     33  C        113.7590   32.2620   38.0830 C.2    84  TRP84       0.2264
     34  O        114.1980   31.1440   37.8060 O.2    84  TRP84      -0.2867
     35  CB       112.0260   32.4360   36.3980 C.3    84  TRP84       0.0550
     36  CG       110.5610   32.4180   36.0660 C.ar   84  TRP84       0.0003
     37  CD1      109.4740   32.3570   36.9360 C.ar   84  TRP84       0.0946
     38  CD2      109.9900   32.4020   34.7260 C.ar   84  TRP84       0.0152
     39  NE1      108.2860   32.3430   36.2320 N.ar   84  TRP84      -0.2442
     40  CE2      108.5340   32.3560   34.8960 C.ar   84  TRP84       0.0810
     41  CE3      110.5230   32.4240   33.4460 C.ar   84  TRP84       0.0012
     42  CZ2      107.6600   32.3590   33.8010 C.ar   84  TRP84       0.0191
     43  CZ3      109.6320   32.4200   32.3540 C.ar   84  TRP84       0.0001
     44  CH2      108.2430   32.3650   32.5400 C.ar   84  TRP84       0.0015
     45  N        104.5990   29.3680   37.1550 N.3    97  SER97      -0.1217
     46  CA       104.5710   29.0960   35.7310 C.3    97  SER97       0.1889
     47  C        105.9760   29.1910   35.0430 C.2    97  SER97       0.2288
     48  O        106.1160   29.6940   33.9130 O.2    97  SER97      -0.2866
     49  CB       103.5180   30.0200   35.0850 C.3    97  SER97       0.2089
     50  OG       102.9430   29.3730   33.9710 O.3    97  SER97      -0.2183
     51  N        108.5840   28.5570   32.8680 N.3    99  VAL99      -0.1245
     52  CA       108.8180   27.8580   31.5830 C.3    99  VAL99       0.1561
     53  C        110.1480   27.0850   31.5210 C.2    99  VAL99       0.2260
     54  O        110.1660   25.9290   31.0710 O.2    99  VAL99      -0.2867
     55  CB       108.6510   28.8260   30.3760 C.3    99  VAL99       0.0252
     56  CG1      108.9790   28.1310   29.0510 C.3    99  VAL99       0.0019
     57  CG2      107.2250   29.3860   30.3510 C.3    99  VAL99       0.0019
     58  N        103.6270   26.0930   23.3090 N.3   137  LEU137     -0.1231
     59  CA       103.6550   27.5450   23.3420 C.3   137  LEU137      0.1693
     60  C        103.3720   28.1820   21.9820 C.2   137  LEU137      0.2591
     61  O        102.6990   29.1980   21.8990 O.2   137  LEU137     -0.2718
     62  CB       105.0130   28.0450   23.8710 C.3   137  LEU137      0.0284
     63  CG       105.2940   27.6820   25.3450 C.3   137  LEU137      0.0019
     64  CD1      106.7670   27.9240   25.6790 C.3   137  LEU137      0.0001
     65  CD2      104.3720   28.4510   26.2790 C.3   137  LEU137      0.0001
     66  N        103.9110   27.5950   20.9220 N.am  138  VAL138     -0.1980
     67  CA       103.8050   28.2260   19.6060 C.3   138  VAL138      0.1595
     68  C        103.1480   27.3100   18.5820 C.2   138  VAL138      0.2287
     69  O        103.1550   27.6080   17.3960 O.2   138  VAL138     -0.2864
     70  CB       105.1810   28.6930   19.0800 C.3   138  VAL138      0.0276
     71  CG1      105.7200   29.8180   19.9450 C.3   138  VAL138      0.0022
     72  CG2      106.1660   27.5300   19.0040 C.3   138  VAL138      0.0022
     73  N         97.3280   30.0620   31.7510 N.3   189  GLY189     -0.1210
     74  CA        98.1330   30.0080   30.5420 C.3   189  GLY189      0.1956
     75  C         98.0550   31.3390   29.8360 C.2   189  GLY189      0.2612
     76  O         97.0030   32.0410   29.8680 O.2   189  GLY189     -0.2717
     77  N         99.1640   31.7230   29.2100 N.am  190  TRP190     -0.1962
     78  CA        99.1620   32.9500   28.4210 C.3   190  TRP190      0.1771
     79  C        100.0170   32.7330   27.1990 C.2   190  TRP190      0.2620
     80  O        101.2510   32.6830   27.2900 O.2   190  TRP190     -0.2715
     81  CB        99.6910   34.1070   29.2450 C.3   190  TRP190      0.0590
     82  CG        99.4870   35.4720   28.6160 C.ar  190  TRP190      0.0006
     83  CD1       99.3480   35.7930   27.2610 C.ar  190  TRP190      0.0946
     84  CD2       99.4340   36.7510   29.3230 C.ar  190  TRP190      0.0152
     85  NE1       99.2110   37.1440   27.0910 N.ar  190  TRP190     -0.2442
     86  CE2       99.2410   37.7790   28.2950 C.ar  190  TRP190      0.0810
     87  CE3       99.5180   37.1340   30.6700 C.ar  190  TRP190      0.0012
     88  CZ2       99.1560   39.1290   28.6150 C.ar  190  TRP190      0.0191
     89  CZ3       99.4060   38.4990   30.9790 C.ar  190  TRP190      0.0001
     90  CH2       99.2410   39.4650   29.9790 C.ar  190  TRP190      0.0015
     91  N         99.3690   32.5730   26.0450 N.am  191  GLY191     -0.1940
     92  CA       100.0890   32.2660   24.8150 C.3   191  GLY191      0.2014
     93  C        100.4460   33.5870   24.1810 C.2   191  GLY191      0.2639
     94  O         99.6090   34.1960   23.5310 O.2   191  GLY191     -0.2714
     95  N        101.6610   34.0620   24.4220 N.am  192  MET192     -0.1963
     96  CA       102.0770   35.3540   23.8810 C.3   192  MET192      0.1736
     97  C        102.6830   35.2580   22.4920 C.2   192  MET192      0.2617
     98  O        102.7480   36.2490   21.7860 O.2   192  MET192     -0.2715
     99  CB       103.0670   36.0460   24.8070 C.3   192  MET192      0.0427
    100  CG       102.4230   36.6730   26.0200 C.3   192  MET192      0.0599
    101  SD       103.2920   38.1550   26.5510 S.3   192  MET192     -0.1393
    102  CE       102.8340   38.1940   28.2890 C.3   192  MET192      0.0692
    103  N        103.1120   34.0650   22.1040 N.am  193  GLY193     -0.1955
    104  CA       103.8730   33.8820   20.8700 C.3   193  GLY193      0.1869
    105  C        102.9980   33.4390   19.7170 C.2   193  GLY193      0.2309
    106  O        103.4760   32.8130   18.7750 O.2   193  GLY193     -0.2863
@<TRIPOS>BOND
     1    69    68    2
     2    68    67    1
     3   106   105    2
     4    72    70    1
     5    70    67    1
     6    70    71    1
     7    67    66    1
     8   105   104    1
     9   104   103    1
    10    66    60   am
    11    98    97    2
    12    61    60    2
    13    60    59    1
    14   103    97   am
    15    97    96    1
    16    58    59    1
    17    59    62    1
    18    94    93    2
    19    62    63    1
    20    96    95    1
    21    96    99    1
    22    93    95   am
    23    93    92    1
    24    99   100    1
    25    92    91    1
    26    63    64    1
    27    63    65    1
    28     1     2    1
    29   100   101    1
    30    91    79   am
    31   101   102    1
    32     2     5    1
    33     2     3    1
    34    85    83   ar
    35    85    86   ar
    36    79    80    2
    37    79    78    1
    38    83    82   ar
    39     4     3    2
    40     3     6   am
    41    86    88   ar
    42    86    84   ar
    43    78    77    1
    44    78    81    1
    45    88    90   ar
    46    82    81    1
    47    82    84   ar
    48    56    55    1
    49     6     7    1
    50    77    75   am
    51    84    87   ar
    52    17    16    1
    53    75    76    2
    54    75    74    1
    55    90    89   ar
    56    18    16    1
    57    57    55    1
    58     7     8    1
    59     7    10    1
    60    55    52    1
    61    74    73    1
    62    87    89   ar
    63    16    13    1
    64     8     9    2
    65    54    53    2
    66    11    10    1
    67    13    12    1
    68    13    14    1
    69    53    52    1
    70    52    51    1
    71    30    29    1
    72    43    44   ar
    73    43    41   ar
    74    44    42   ar
    75    15    14    2
    76    29    28   ar
    77    29    27   ar
    78    14    19   am
    79    28    26   ar
    80    41    38   ar
    81    27    25   ar
    82    26    24   ar
    83    42    40   ar
    84    19    20    1
    85    48    47    2
    86    50    49    1
    87    25    24   ar
    88    24    23    1
    89    38    40   ar
    90    38    36   ar
    91    40    39   ar
    92    47    46    1
    93    49    46    1
    94    20    23    1
    95    20    21    1
    96    46    45    1
    97    36    35    1
    98    36    37   ar
    99    21    22    2
   100    39    37   ar
   101    35    32    1
   102    34    33    2
   103    32    33    1
   104    32    31    1
