@<TRIPOS>MOLECULE
tmp/3zo0A00.pdb
 149 142 0 0 0
SMALL
GASTEIGER

@<TRIPOS>ATOM
      1  N         17.7250   -8.7310  -24.8260 N.3     3  SER3       -0.1217
      2  CA        18.7200   -7.7320  -24.4480 C.3     3  SER3        0.1889
      3  C         18.0810   -6.6990  -23.4800 C.2     3  SER3        0.2288
      4  O         16.8680   -6.4400  -23.5380 O.2     3  SER3       -0.2866
      5  CB        19.1610   -7.0170  -25.7380 C.3     3  SER3        0.2089
      6  OG        20.5530   -7.0770  -25.9480 O.3     3  SER3       -0.2183
      7  N         18.3970   -2.7230  -21.6770 N.3     5  PHE5       -0.1241
      8  CA        18.9700   -1.3680  -21.5700 C.3     5  PHE5        0.1605
      9  C         18.3160   -0.6690  -20.3330 C.2     5  PHE5        0.2264
     10  O         17.1490   -0.8680  -20.0690 O.2     5  PHE5       -0.2867
     11  CB        18.7780   -0.6050  -22.9190 C.3     5  PHE5        0.0534
     12  CG        19.4380   -1.3060  -24.0890 C.ar    5  PHE5       -0.0203
     13  CD1       20.8090   -1.1260  -24.3440 C.ar    5  PHE5       -0.0042
     14  CD2       18.7330   -2.1890  -24.8780 C.ar    5  PHE5       -0.0042
     15  CE1       21.4590   -1.8110  -25.3820 C.ar    5  PHE5       -0.0003
     16  CE2       19.3670   -2.8860  -25.9310 C.ar    5  PHE5       -0.0003
     17  CZ        20.7340   -2.7180  -26.1800 C.ar    5  PHE5       -0.0000
     18  N         17.9640    3.2090  -18.3190 N.3     7  PHE7       -0.1228
     19  CA        17.9100    4.6370  -18.6380 C.3     7  PHE7        0.1721
     20  C         17.7310    5.4580  -17.3480 C.2     7  PHE7        0.2437
     21  O         16.9200    5.0940  -16.5050 O.2     7  PHE7       -0.2733
     22  CB        16.7330    4.9050  -19.5980 C.3     7  PHE7        0.0547
     23  CG        16.8630    4.1880  -20.9310 C.ar    7  PHE7       -0.0202
     24  CD1       17.5370    4.7600  -21.9790 C.ar    7  PHE7       -0.0042
     25  CD2       16.3740    2.9000  -21.0870 C.ar    7  PHE7       -0.0042
     26  CE1       17.6570    4.1000  -23.1670 C.ar    7  PHE7       -0.0003
     27  CE2       16.5300    2.2180  -22.2740 C.ar    7  PHE7       -0.0003
     28  CZ        17.1970    2.8160  -23.3140 C.ar    7  PHE7       -0.0000
     29  N         18.4590    6.5800  -17.2070 N.am    8  PRO8       -0.2718
     30  CA        18.2870    7.5040  -16.0570 C.3     8  PRO8        0.1520
     31  C         16.9460    8.2430  -16.0350 C.2     8  PRO8        0.2440
     32  O         16.2650    8.2480  -17.0140 O.2     8  PRO8       -0.2731
     33  CB        19.3530    8.5380  -16.3050 C.3     8  PRO8        0.0310
     34  CG        19.5300    8.5810  -17.8230 C.3     8  PRO8        0.0237
     35  CD        19.3950    7.1250  -18.2190 C.3     8  PRO8        0.0939
     36  N         16.5890    8.9270  -14.9390 N.am    9  PRO9       -0.2716
     37  CA        15.3570    9.7670  -14.9690 C.3     9  PRO9        0.1536
     38  C         15.7360   11.0850  -15.6230 C.2     9  PRO9        0.2598
     39  O         16.8720   11.3080  -15.8220 O.2     9  PRO9       -0.2715
     40  CB        15.0950   10.0260  -13.5070 C.3     9  PRO9        0.0310
     41  CG        16.4870   10.0550  -12.8870 C.3     9  PRO9        0.0237
     42  CD        17.2300    8.9650  -13.6280 C.3     9  PRO9        0.0939
     43  N         14.7880   11.9540  -15.8930 N.am   10  LYS10      -0.1978
     44  CA        15.0340   13.2610  -16.4770 C.3    10  LYS10       0.1596
     45  C         15.5620   14.1570  -15.3660 C.2    10  LYS10       0.2287
     46  O         15.0760   14.0830  -14.2620 O.2    10  LYS10      -0.2864
     47  CB        13.7080   13.8390  -17.0120 C.3    10  LYS10       0.0298
     48  CG        12.9840   12.8490  -17.8910 C.3    10  LYS10       0.0038
     49  CD        13.7210   12.6660  -19.2020 C.3    10  LYS10       0.0206
     50  CE        13.4280   11.2870  -19.8100 C.3    10  LYS10       0.1093
     51  NZ        14.2110   11.1790  -21.0080 N.3    10  LYS10      -0.1314
     52  N         12.8370   16.0510  -13.5420 N.3    13  ASP13      -0.1239
     53  CA        12.0120   15.2730  -12.6240 C.3    13  ASP13       0.1674
     54  C         12.8050   15.0720  -11.3870 C.2    13  ASP13       0.2266
     55  O         12.2310   14.9380  -10.3300 O.2    13  ASP13      -0.2867
     56  CB        11.6710   13.9020  -13.1800 C.3    13  ASP13       0.1410
     57  CG        10.7580   13.9760  -14.3860 C.2    13  ASP13       0.3668
     58  OD1       10.1380   15.0330  -14.5210 O.co2  13  ASP13      -0.2456
     59  OD2       10.6930   13.0100  -15.1970 O.co2  13  ASP13      -0.2456
     60  N         11.8680    8.6500  -12.5060 N.3    22  ILE22      -0.1245
     61  CA        11.7600    7.2070  -12.7770 C.3    22  ILE22       0.1561
     62  C         13.0750    6.6810  -13.4210 C.2    22  ILE22       0.2260
     63  O         13.6220    7.3440  -14.2830 O.2    22  ILE22      -0.2867
     64  CB        10.5650    7.0610  -13.7240 C.3    22  ILE22       0.0252
     65  CG1        9.2270    7.0200  -12.9270 C.3    22  ILE22       0.0019
     66  CG2       10.6890    5.8050  -14.5680 C.3    22  ILE22       0.0019
     67  CD1        7.9890    7.0300  -13.8050 C.3    22  ILE22       0.0001
     68  N         14.4160    3.3960  -15.7850 N.3    24  THR24      -0.1218
     69  CA        13.7410    2.4670  -16.6980 C.3    24  THR24       0.1862
     70  C         14.6380    1.3750  -17.2050 C.2    24  THR24       0.2287
     71  O         15.7280    1.6490  -17.6580 O.2    24  THR24      -0.2866
     72  CB        13.1800    3.2250  -17.8920 C.3    24  THR24       0.1770
     73  OG1       12.4460    4.3610  -17.4000 O.3    24  THR24      -0.2211
     74  CG2       12.2360    2.3300  -18.6900 C.3    24  THR24       0.0375
     75  N         14.5460   -1.6470  -20.0910 N.3    26  VAL26      -0.1245
     76  CA        13.8840   -1.9620  -21.3270 C.3    26  VAL26       0.1561
     77  C         14.5000   -3.2170  -21.8040 C.2    26  VAL26       0.2260
     78  O         15.7050   -3.2820  -22.0470 O.2    26  VAL26      -0.2867
     79  CB        14.1380   -0.9040  -22.4270 C.3    26  VAL26       0.0252
     80  CG1       13.5230   -1.3860  -23.7270 C.3    26  VAL26       0.0019
     81  CG2       13.4680    0.3930  -22.0690 C.3    26  VAL26       0.0019
     82  N         14.4250   -5.7830  -24.8320 N.3    28  VAL28      -0.1231
     83  CA        14.0150   -5.9640  -26.2410 C.3    28  VAL28       0.1692
     84  C         14.3100   -7.4100  -26.6890 C.2    28  VAL28       0.2592
     85  O         15.0580   -8.1600  -26.0110 O.2    28  VAL28      -0.2718
     86  CB        14.7690   -4.9710  -27.1580 C.3    28  VAL28       0.0266
     87  CG1       14.4480   -3.5270  -26.7740 C.3    28  VAL28       0.0020
     88  CG2       16.2860   -5.1980  -27.1150 C.3    28  VAL28       0.0020
     89  N         13.7790   -7.7860  -27.8520 N.am   29  ASP29      -0.1974
     90  CA        14.0390   -9.1270  -28.4600 C.3    29  ASP29       0.1709
     91  C         13.4920  -10.2240  -27.6050 C.2    29  ASP29       0.2293
     92  O         14.0900  -11.2840  -27.4980 O.2    29  ASP29      -0.2864
     93  CB        15.5320   -9.4120  -28.6650 C.3    29  ASP29       0.1436
     94  CG        16.0690   -8.7110  -29.8230 C.2    29  ASP29       0.3671
     95  OD1       15.2120   -8.2330  -30.5870 O.co2  29  ASP29      -0.2456
     96  OD2       17.3100   -8.6580  -29.9750 O.co2  29  ASP29      -0.2456
     97  N          6.2700   -5.3070  -31.1070 N.3    59  ASP59      -0.1225
     98  CA         7.1570   -4.5730  -32.0590 C.3    59  ASP59       0.1805
     99  C          7.2790   -5.2550  -33.4360 C.2    59  ASP59       0.2598
    100  O          7.3620   -6.4580  -33.4740 O.2    59  ASP59      -0.2718
    101  CB         8.5510   -4.4320  -31.4280 C.3    59  ASP59       0.1424
    102  CG         9.5370   -3.6280  -32.2880 C.2    59  ASP59       0.3668
    103  OD1        9.2340   -2.5020  -32.7770 O.co2  59  ASP59      -0.2456
    104  OD2       10.6710   -4.1290  -32.4390 O.co2  59  ASP59      -0.2456
    105  N          7.3260   -4.4670  -34.5320 N.am   60  TYR60      -0.1962
    106  CA         7.5560   -4.8960  -35.9920 C.3    60  TYR60       0.1771
    107  C          8.3750   -6.1420  -36.4480 C.2    60  TYR60       0.2619
    108  O          7.8050   -6.9830  -37.1520 O.2    60  TYR60      -0.2715
    109  CB         8.1240   -3.7370  -36.7620 C.3    60  TYR60       0.0574
    110  CG         9.6360   -3.6870  -37.0390 C.ar   60  TYR60      -0.0198
    111  CD1       10.3350   -4.6830  -37.7860 C.ar   60  TYR60      -0.0009
    112  CD2       10.3520   -2.5790  -36.6380 C.ar   60  TYR60      -0.0009
    113  CE1       11.7130   -4.5420  -38.0470 C.ar   60  TYR60       0.0417
    114  CE2       11.7000   -2.4340  -36.9020 C.ar   60  TYR60       0.0417
    115  CZ        12.3870   -3.3850  -37.5930 C.ar   60  TYR60       0.1957
    116  OH        13.7310   -3.0830  -37.7760 O.3    60  TYR60      -0.2866
    117  N          9.7030   -6.1620  -36.1880 N.am   61  ASN61      -0.1972
    118  CA        10.5620   -7.3640  -36.0560 C.3    61  ASN61       0.1688
    119  C          9.8500   -8.6230  -35.6120 C.2    61  ASN61       0.2292
    120  O         10.5200   -9.6650  -35.3470 O.2    61  ASN61      -0.2864
    121  CB        11.3080   -7.1850  -34.7440 C.3    61  ASN61       0.1181
    122  CG        12.6920   -6.8240  -34.8990 C.2    61  ASN61       0.2629
    123  OD1       13.3860   -7.1720  -35.8380 O.2    61  ASN61      -0.2716
    124  ND2       13.1160   -6.1440  -33.9270 N.am   61  ASN61      -0.0877
    125  N          8.7850   -8.9870  -32.4710 N.3    63  THR63      -0.1218
    126  CA         9.2700   -9.3040  -31.1400 C.3    63  THR63       0.1862
    127  C          8.4550   -8.5110  -30.1540 C.2    63  THR63       0.2287
    128  O          7.7080   -7.5950  -30.5160 O.2    63  THR63      -0.2866
    129  CB        10.7800   -8.9760  -30.9190 C.3    63  THR63       0.1770
    130  OG1       11.0040   -7.5730  -31.1130 O.3    63  THR63      -0.2211
    131  CG2       11.7130   -9.8350  -31.8500 C.3    63  THR63       0.0375
    132  N          8.6870   -6.2110  -26.4470 N.3    65  ARG65      -0.1245
    133  CA         9.5180   -5.2390  -25.7960 C.3    65  ARG65       0.1563
    134  C          8.9460   -5.0250  -24.4140 C.2    65  ARG65       0.2260
    135  O          7.7400   -4.6680  -24.2550 O.2    65  ARG65      -0.2867
    136  CB         9.4680   -3.9110  -26.5340 C.3    65  ARG65       0.0307
    137  CG        10.3700   -2.8420  -25.9230 C.3    65  ARG65       0.0489
    138  CD        10.3430   -1.5280  -26.7280 C.3    65  ARG65       0.2205
    139  NE         9.4010   -0.6000  -26.1200 N.pl3  65  ARG65      -0.0865
    140  CZ         8.2610   -0.1230  -26.6390 C.cat  65  ARG65       0.5346
    141  NH1        7.8500   -0.4430  -27.8800 N.pl3  65  ARG65       0.1354
    142  NH2        7.5200    0.7300  -25.8920 N.pl3  65  ARG65       0.1354
    143  N          9.0340   -2.9250  -20.9450 N.3    67  VAL67      -0.1245
    144  CA         9.3350   -1.6360  -20.3510 C.3    67  VAL67       0.1561
    145  C          8.9210   -1.6280  -18.8950 C.2    67  VAL67       0.2260
    146  O          7.7440   -1.7000  -18.5820 O.2    67  VAL67      -0.2867
    147  CB         8.6200   -0.4770  -21.0640 C.3    67  VAL67       0.0252
    148  CG1        8.9760    0.8560  -20.3930 C.3    67  VAL67       0.0019
    149  CG2        8.9960   -0.4740  -22.5290 C.3    67  VAL67       0.0019
@<TRIPOS>BOND
     1   113   111   ar
     2   113   115   ar
     3   111   110   ar
     4   116   115    1
     5   115   114   ar
     6   108   107    2
     7   110   109    1
     8   110   112   ar
     9   114   112   ar
    10   109   106    1
    11   107   117   am
    12   107   106    1
    13   117   118    1
    14   118   119    1
    15   118   121    1
    16   106   105    1
    17   123   122    2
    18   119   120    2
    19   122   121    1
    20   122   124   am
    21   105    99   am
    22   100    99    2
    23    99    98    1
    24   103   102   ar
    25   125   126    1
    26   104   102   ar
    27   102   101    1
    28    98   101    1
    29    98    97    1
    30   131   129    1
    31   126   129    1
    32   126   127    1
    33   130   129    1
    34    95    94   ar
    35   128   127    2
    36    96    94   ar
    37    94    93    1
    38    93    90    1
    39    90    89    1
    40    90    91    1
    41   141   140    1
    42    89    84   am
    43    91    92    2
    44    86    88    1
    45    86    87    1
    46    86    83    1
    47   138   139    1
    48   138   137    1
    49    84    83    1
    50    84    85    2
    51   140   139    2
    52   140   142    1
    53   136   137    1
    54   136   133    1
    55   132   133    1
    56    83    82    1
    57    17    16   ar
    58    17    15   ar
    59     6     5    1
    60    16    14   ar
    61   133   134    1
    62     5     2    1
    63    15    13   ar
    64    14    12   ar
    65     1     2    1
    66     2     3    1
    67   134   135    2
    68    13    12   ar
    69    12    11    1
    70    80    79    1
    71     4     3    2
    72    28    26   ar
    73    28    27   ar
    74    26    24   ar
    75    11     8    1
    76   149   147    1
    77    79    81    1
    78    79    76    1
    79    27    25   ar
    80    78    77    2
    81    24    23   ar
    82    77    76    1
    83     7     8    1
    84     8     9    1
    85    76    75    1
    86    25    23   ar
    87   147   148    1
    88   147   144    1
    89    51    50    1
    90   143   144    1
    91    23    22    1
    92   144   145    1
    93     9    10    2
    94    50    49    1
    95    22    19    1
    96    49    48    1
    97   145   146    2
    98    74    72    1
    99    19    18    1
   100    19    20    1
   101    35    34    1
   102    35    29    1
   103    72    73    1
   104    72    69    1
   105    48    47    1
   106    34    33    1
   107    71    70    2
   108    20    29   am
   109    20    21    2
   110    29    30    1
   111    70    69    1
   112    32    31    2
   113    47    44    1
   114    69    68    1
   115    44    43    1
   116    44    45    1
   117    33    30    1
   118    30    31    1
   119    31    36   am
   120    43    38   am
   121    39    38    2
   122    38    37    1
   123    45    46    2
   124    59    57   ar
   125    37    36    1
   126    37    40    1
   127    36    42    1
   128    66    64    1
   129    58    57   ar
   130    57    56    1
   131    63    62    2
   132    67    65    1
   133    64    65    1
   134    64    61    1
   135    42    41    1
   136    52    53    1
   137    40    41    1
   138    62    61    1
   139    56    53    1
   140    61    60    1
   141    53    54    1
   142    54    55    2
