@<TRIPOS>MOLECULE
tmp/3zo1A00.pdb
 150 142 0 0 0
SMALL
GASTEIGER

@<TRIPOS>ATOM
      1  N        -28.0320  -15.3420   -8.1150 N.3    41  LEU41      -0.1231
      2  CA       -28.2470  -13.8990   -8.3230 C.3    41  LEU41       0.1693
      3  C        -27.0080  -13.0850   -7.9890 C.2    41  LEU41       0.2593
      4  O        -26.8770  -11.9480   -8.4350 O.2    41  LEU41      -0.2718
      5  CB       -29.4430  -13.3950   -7.4800 C.3    41  LEU41       0.0284
      6  CG       -30.8270  -14.0400   -7.7540 C.3    41  LEU41       0.0019
      7  CD1      -31.8090  -13.6970   -6.6300 C.3    41  LEU41       0.0001
      8  CD2      -31.3930  -13.5750   -9.0690 C.3    41  LEU41       0.0001
      9  N        -26.1450  -13.6570   -7.1580 N.am   42  GLY42      -0.1942
     10  CA       -24.9200  -13.0240   -6.7020 C.3    42  GLY42       0.2014
     11  C        -24.1280  -13.9480   -5.8080 C.2    42  GLY42       0.2640
     12  O        -24.6130  -15.0100   -5.4090 O.2    42  GLY42      -0.2714
     13  N        -22.8850  -13.5750   -5.5280 N.am   43  THR43      -0.1936
     14  CA       -22.0100  -14.3740   -4.6810 C.3    43  THR43       0.2028
     15  C        -21.3510  -13.4730   -3.6440 C.2    43  THR43       0.2642
     16  O        -21.2100  -12.2600   -3.8580 O.2    43  THR43      -0.2714
     17  CB       -20.9530  -15.1410   -5.5070 C.3    43  THR43       0.1808
     18  OG1      -20.1870  -14.1980   -6.2510 O.3    43  THR43      -0.2208
     19  CG2      -21.5640  -16.2090   -6.4460 C.3    43  THR43       0.0379
     20  N        -20.9600  -14.0860   -2.5320 N.am   44  GLY44      -0.1954
     21  CA       -20.2310  -13.4370   -1.4490 C.3    44  GLY44       0.1869
     22  C        -19.0760  -14.3010   -0.9860 C.2    44  GLY44       0.2309
     23  O        -18.8200  -15.3680   -1.5570 O.2    44  GLY44      -0.2863
     24  N        -26.2160  -16.1920   -3.4160 N.3    49  VAL49      -0.1245
     25  CA       -27.5620  -15.7240   -3.1530 C.3    49  VAL49       0.1561
     26  C        -28.2930  -16.2700   -4.3670 C.2    49  VAL49       0.2260
     27  O        -27.9480  -15.9390   -5.5050 O.2    49  VAL49      -0.2867
     28  CB       -27.7800  -14.2060   -2.9470 C.3    49  VAL49       0.0252
     29  CG1      -29.2750  -13.9220   -2.8130 C.3    49  VAL49       0.0019
     30  CG2      -27.0300  -13.6970   -1.7120 C.3    49  VAL49       0.0019
     31  N        -35.2760  -14.8440   -2.5670 N.3    62  ALA62      -0.1245
     32  CA       -33.8240  -14.8350   -2.7230 C.3    62  ALA62       0.1562
     33  C        -33.2830  -15.5020   -1.4640 C.2    62  ALA62       0.2260
     34  O        -33.5550  -15.0540   -0.3400 O.2    62  ALA62      -0.2867
     35  CB       -33.2790  -13.4130   -2.8500 C.3    62  ALA62       0.0290
     36  N        -35.0350   -4.8210    2.8880 N.3    96  VAL96      -0.1245
     37  CA       -35.4670   -6.1240    2.3650 C.3    96  VAL96       0.1561
     38  C        -35.9960   -7.0340    3.5210 C.2    96  VAL96       0.2260
     39  O        -35.3920   -7.0770    4.5930 O.2    96  VAL96      -0.2867
     40  CB       -34.3560   -6.7910    1.5080 C.3    96  VAL96       0.0252
     41  CG1      -33.3090   -7.4930    2.3850 C.3    96  VAL96       0.0019
     42  CG2      -34.9620   -7.7660    0.5070 C.3    96  VAL96       0.0019
     43  N        -35.1610  -14.3570    1.8170 N.3   112  MET112     -0.1230
     44  CA       -35.6700  -12.9870    1.7810 C.3   112  MET112      0.1702
     45  C        -36.5770  -12.7160    0.5940 C.2   112  MET112      0.2592
     46  O        -36.6180  -13.4980   -0.3500 O.2   112  MET112     -0.2718
     47  CB       -34.4850  -12.0100    1.7370 C.3   112  MET112      0.0401
     48  CG       -33.6400  -12.0460    3.0060 C.3   112  MET112      0.0596
     49  SD       -31.9690  -11.4550    2.7450 S.3   112  MET112     -0.1393
     50  CE       -31.2580  -12.8140    1.8310 C.3   112  MET112      0.0692
     51  N        -37.2780  -11.5750    0.6310 N.am  113  GLU113     -0.1966
     52  CA       -38.1250  -11.1720   -0.4950 C.3   113  GLU113      0.1733
     53  C        -37.2190  -11.0130   -1.7280 C.2   113  GLU113      0.2616
     54  O        -36.1260  -10.4580   -1.6120 O.2   113  GLU113     -0.2715
     55  CB       -38.8270   -9.8360   -0.1880 C.3   113  GLU113      0.0429
     56  CG       -39.7870   -9.4030   -1.2880 C.3   113  GLU113      0.1163
     57  CD       -40.6310   -8.1700   -1.0200 C.2   113  GLU113      0.3649
     58  OE1      -41.0000   -7.9220    0.1520 O.co2 113  GLU113     -0.2457
     59  OE2      -40.9750   -7.4790   -2.0050 O.co2 113  GLU113     -0.2457
     60  N        -37.6790  -11.5040   -2.8770 N.am  114  TYR114     -0.1960
     61  CA       -36.9590  -11.3840   -4.1500 C.3   114  TYR114      0.1771
     62  C        -37.2800  -10.0150   -4.7750 C.2   114  TYR114      0.2619
     63  O        -38.4560   -9.6900   -5.0070 O.2   114  TYR114     -0.2715
     64  CB       -37.3120  -12.5330   -5.1080 C.3   114  TYR114      0.0574
     65  CG       -36.7200  -12.3660   -6.5020 C.ar  114  TYR114     -0.0198
     66  CD1      -35.3620  -12.1010   -6.6800 C.ar  114  TYR114     -0.0009
     67  CD2      -37.5170  -12.4840   -7.6390 C.ar  114  TYR114     -0.0009
     68  CE1      -34.8130  -11.9520   -7.9530 C.ar  114  TYR114      0.0417
     69  CE2      -36.9730  -12.3550   -8.9230 C.ar  114  TYR114      0.0417
     70  CZ       -35.6190  -12.0860   -9.0720 C.ar  114  TYR114      0.1957
     71  OH       -35.0660  -11.8970  -10.3140 O.3   114  TYR114     -0.2866
     72  N        -36.2260   -9.1970   -4.9920 N.am  115  VAL115     -0.1977
     73  CA       -36.3700   -7.8500   -5.5610 C.3   115  VAL115      0.1596
     74  C        -35.8840   -7.9590   -7.0260 C.2   115  VAL115      0.2287
     75  O        -34.6890   -8.1060   -7.2620 O.2   115  VAL115     -0.2864
     76  CB       -35.6440   -6.7830   -4.7000 C.3   115  VAL115      0.0276
     77  CG1      -36.0450   -5.3760   -5.1140 C.3   115  VAL115      0.0022
     78  CG2      -35.9310   -6.9900   -3.2200 C.3   115  VAL115      0.0022
     79  N        -29.5850   -4.6200   -8.9500 N.3   119  GLU119     -0.1245
     80  CA       -28.8250   -3.6500   -8.1440 C.3   119  GLU119      0.1567
     81  C        -28.8370   -2.2680   -8.8060 C.2   119  GLU119      0.2260
     82  O        -28.6890   -2.1640  -10.0320 O.2   119  GLU119     -0.2867
     83  CB       -27.3620   -4.0830   -8.0090 C.3   119  GLU119      0.0388
     84  CG       -27.1220   -5.4400   -7.3470 C.3   119  GLU119      0.1160
     85  CD       -25.6750   -5.9070   -7.3640 C.2   119  GLU119      0.3649
     86  OE1      -24.8150   -5.1690   -7.8930 O.co2 119  GLU119     -0.2457
     87  OE2      -25.3880   -6.9880   -6.8020 O.co2 119  GLU119     -0.2457
     88  N        -24.1790   -1.3400   -4.9300 N.3   161  GLU161     -0.1231
     89  CA       -24.2380   -2.8200   -5.0310 C.3   161  GLU161      0.1699
     90  C        -25.2770   -3.3900   -4.0260 C.2   161  GLU161      0.2592
     91  O        -25.9640   -4.3650   -4.3290 O.2   161  GLU161     -0.2718
     92  CB       -22.8620   -3.4700   -4.7690 C.3   161  GLU161      0.0402
     93  CG       -21.7980   -3.1860   -5.8260 C.3   161  GLU161      0.1161
     94  CD       -20.9170   -1.9660   -5.6000 C.2   161  GLU161      0.3649
     95  OE1      -21.4440   -0.9020   -5.2160 O.co2 161  GLU161     -0.2457
     96  OE2      -19.7140   -2.0420   -5.9210 O.co2 161  GLU161     -0.2457
     97  N        -25.4420   -2.7090   -2.8990 N.am  162  ASN162     -0.1974
     98  CA       -26.3300   -3.1200   -1.7860 C.3   162  ASN162      0.1688
     99  C        -27.7680   -2.5600   -1.8220 C.2   162  ASN162      0.2292
    100  O        -28.5490   -2.7720   -0.8890 O.2   162  ASN162     -0.2864
    101  CB       -25.6180   -2.8650   -0.4350 C.3   162  ASN162      0.1181
    102  CG       -24.4910   -3.8350   -0.1750 C.2   162  ASN162      0.2629
    103  OD1      -24.3390   -4.8240   -0.8790 O.2   162  ASN162     -0.2716
    104  ND2      -23.6390   -3.5590    0.8140 N.am  162  ASN162     -0.0877
    105  N        -31.2510   -2.5910   -4.0230 N.3   164  LEU164     -0.1245
    106  CA       -32.0140   -3.1730   -5.1360 C.3   164  LEU164      0.1561
    107  C        -33.1730   -2.2830   -5.5400 C.2   164  LEU164      0.2260
    108  O        -33.6950   -1.5370   -4.7090 O.2   164  LEU164     -0.2867
    109  CB       -32.4900   -4.6070   -4.8230 C.3   164  LEU164      0.0270
    110  CG       -31.3790   -5.6160   -4.5010 C.3   164  LEU164      0.0019
    111  CD1      -31.9480   -6.8340   -3.8930 C.3   164  LEU164      0.0001
    112  CD2      -30.5960   -6.0290   -5.7710 C.3   164  LEU164      0.0001
    113  N        -30.1140   -4.3130    1.0570 N.3   174  THR174     -0.1203
    114  CA       -29.7200   -5.6900    1.4040 C.3   174  THR174      0.1994
    115  C        -28.3830   -5.6190    2.1220 C.2   174  THR174      0.2617
    116  O        -27.8370   -4.5340    2.2710 O.2   174  THR174     -0.2717
    117  CB       -29.5420   -6.5620    0.1280 C.3   174  THR174      0.1784
    118  OG1      -28.3840   -6.1400   -0.5850 O.3   174  THR174     -0.2211
    119  CG2      -30.7350   -6.5400   -0.7790 C.3   174  THR174      0.0376
    120  N        -27.8170   -6.7800    2.4760 N.am  175  ASP175     -0.1973
    121  CA       -26.4650   -6.9370    2.9890 C.3   175  ASP175      0.1709
    122  C        -26.1620   -6.2850    4.3040 C.2   175  ASP175      0.2293
    123  O        -25.4350   -5.2810    4.3740 O.2   175  ASP175     -0.2864
    124  CB       -25.4230   -6.6140    1.9000 C.3   175  ASP175      0.1436
    125  CG       -25.4220   -7.6620    0.8110 C.2   175  ASP175      0.3671
    126  OD1      -26.3250   -7.6230   -0.0440 O.co2 175  ASP175     -0.2456
    127  OD2      -24.5640   -8.5580    0.8600 O.co2 175  ASP175     -0.2456
    128  N        -30.1390   -9.0900  -13.5440 N.3   317  PHE317     -0.1241
    129  CA       -28.9810   -9.5670  -12.7830 C.3   317  PHE317      0.1605
    130  C        -27.9640  -10.1910  -13.7030 C.2   317  PHE317      0.2264
    131  O        -28.3280  -10.7980  -14.7150 O.2   317  PHE317     -0.2867
    132  CB       -29.3960  -10.5990  -11.7230 C.3   317  PHE317      0.0534
    133  CG       -30.2530  -10.0180  -10.6210 C.ar  317  PHE317     -0.0203
    134  CD1      -29.6700   -9.4510   -9.4900 C.ar  317  PHE317     -0.0042
    135  CD2      -31.6430  -10.0120  -10.7260 C.ar  317  PHE317     -0.0042
    136  CE1      -30.4640   -8.9090   -8.4700 C.ar  317  PHE317     -0.0003
    137  CE2      -32.4370   -9.4680   -9.7010 C.ar  317  PHE317     -0.0003
    138  CZ       -31.8400   -8.9020   -8.5960 C.ar  317  PHE317     -0.0000
    139  N        -23.8630  -16.0310  -13.3570 N.3   320  TYR320     -0.1241
    140  CA       -22.8380  -16.5370  -12.4510 C.3   320  TYR320      0.1605
    141  C        -22.6180  -18.0150  -12.6260 C.2   320  TYR320      0.2264
    142  O        -23.5290  -18.7290  -13.0560 O.2   320  TYR320     -0.2867
    143  CB       -23.2320  -16.2540  -10.9850 C.3   320  TYR320      0.0534
    144  CG       -23.1340  -14.8080  -10.5680 C.ar  320  TYR320     -0.0201
    145  CD1      -24.2070  -13.9410  -10.7340 C.ar  320  TYR320     -0.0009
    146  CD2      -21.9790  -14.3120   -9.9710 C.ar  320  TYR320     -0.0009
    147  CE1      -24.1230  -12.6060  -10.3460 C.ar  320  TYR320      0.0417
    148  CE2      -21.8830  -12.9790   -9.5790 C.ar  320  TYR320      0.0417
    149  CZ       -22.9600  -12.1310   -9.7630 C.ar  320  TYR320      0.1957
    150  OH       -22.8760  -10.8260   -9.3520 O.3   320  TYR320     -0.2866
@<TRIPOS>BOND
     1   131   130    2
     2   130   129    1
     3   128   129    1
     4   139   140    1
     5   142   141    2
     6   129   132    1
     7   141   140    1
     8   140   143    1
     9   132   133    1
    10   143   144    1
    11   145   144   ar
    12   145   147   ar
    13   135   133   ar
    14   135   137   ar
    15   133   134   ar
    16   144   146   ar
    17   147   149   ar
    18    71    70    1
    19    82    81    2
    20   146   148   ar
    21   149   148   ar
    22   149   150    1
    23   137   138   ar
    24   134   136   ar
    25    70    69   ar
    26    70    68   ar
    27     8     6    1
    28    79    80    1
    29    69    67   ar
    30    81    80    1
    31   138   136   ar
    32     4     3    2
    33     2     1    1
    34     2     3    1
    35     2     5    1
    36    80    83    1
    37    83    84    1
    38     3     9   am
    39    68    66   ar
    40    86    85   ar
    41     6     5    1
    42     6     7    1
    43    67    65   ar
    44    85    84    1
    45    85    87   ar
    46    75    74    2
    47     9    10    1
    48    74    73    1
    49    10    11    1
    50    66    65   ar
    51    65    64    1
    52    19    17    1
    53    18    17    1
    54    96    94   ar
    55    93    94    1
    56    93    92    1
    57    11    13   am
    58    11    12    2
    59   112   110    1
    60    94    95   ar
    61    73    72    1
    62    73    76    1
    63   107   106    1
    64   107   108    2
    65    13    14    1
    66    17    14    1
    67    27    26    2
    68   106   109    1
    69   106   105    1
    70    77    76    1
    71    64    61    1
    72    89    88    1
    73    89    92    1
    74    89    90    1
    75    63    62    2
    76    72    62   am
    77   109   110    1
    78    62    61    1
    79    76    78    1
    80    14    15    1
    81   110   111    1
    82    26    25    1
    83    91    90    2
    84    61    60    1
    85    90    97   am
    86    16    15    2
    87    15    20   am
    88    24    25    1
    89    25    28    1
    90    28    29    1
    91    28    30    1
    92    97    98    1
    93    60    53   am
    94    35    32    1
    95    32    31    1
    96    32    33    1
    97    20    21    1
    98    59    57   ar
    99    99    98    1
   100    99   100    2
   101    98   101    1
   102    53    54    2
   103    53    52    1
   104    23    22    2
   105    33    34    2
   106    21    22    1
   107    56    57    1
   108    56    55    1
   109    57    58   ar
   110   103   102    2
   111   119   117    1
   112   118   117    1
   113    52    55    1
   114    52    51    1
   115   101   102    1
   116    46    45    2
   117   102   104   am
   118   126   125   ar
   119   117   114    1
   120    42    40    1
   121    45    51   am
   122    45    44    1
   123   125   127   ar
   124   125   124    1
   125   113   114    1
   126   114   115    1
   127    40    37    1
   128    40    41    1
   129    47    44    1
   130    47    48    1
   131    44    43    1
   132    50    49    1
   133   124   121    1
   134   115   116    2
   135   115   120   am
   136    37    36    1
   137    37    38    1
   138   120   121    1
   139    49    48    1
   140   121   122    1
   141    38    39    2
   142   122   123    2
