@<TRIPOS>MOLECULE
tmp/3zo2A00.pdb
 145 137 0 0 0
SMALL
GASTEIGER

@<TRIPOS>ATOM
      1  N        -28.1650  -14.9630   -8.1070 N.3    42  LEU42      -0.1231
      2  CA       -28.3740  -13.5180   -8.3140 C.3    42  LEU42       0.1693
      3  C        -27.1430  -12.6790   -7.9430 C.2    42  LEU42       0.2593
      4  O        -27.0070  -11.5310   -8.3670 O.2    42  LEU42      -0.2718
      5  CB       -29.5830  -13.0490   -7.4570 C.3    42  LEU42       0.0284
      6  CG       -30.9580  -13.6820   -7.7980 C.3    42  LEU42       0.0019
      7  CD1      -31.9760  -13.3690   -6.7080 C.3    42  LEU42       0.0001
      8  CD2      -31.4710  -13.1960   -9.1760 C.3    42  LEU42       0.0001
      9  N        -26.2970  -13.2310   -7.0890 N.am   43  GLY43      -0.1942
     10  CA       -25.1080  -12.5400   -6.6070 C.3    43  GLY43       0.2014
     11  C        -24.2880  -13.4430   -5.7140 C.2    43  GLY43       0.2639
     12  O        -24.7780  -14.4630   -5.2190 O.2    43  GLY43      -0.2714
     13  N        -23.0270  -13.0790   -5.5140 N.am   44  THR44      -0.1950
     14  CA       -22.1130  -13.8530   -4.6750 C.3    44  THR44       0.1897
     15  C        -21.3680  -12.9040   -3.7520 C.2    44  THR44       0.2313
     16  O        -21.3620  -11.6830   -3.9610 O.2    44  THR44      -0.2863
     17  CB       -21.0920  -14.6380   -5.5290 C.3    44  THR44       0.1794
     18  OG1      -20.3070  -13.7010   -6.2490 O.3    44  THR44      -0.2208
     19  CG2      -21.7330  -15.6610   -6.4880 C.3    44  THR44       0.0378
     20  N        -19.1220  -14.2640    1.7100 N.3    47  PHE47      -0.1241
     21  CA       -20.1860  -14.8300    2.5300 C.3    47  PHE47       0.1605
     22  C        -20.7930  -16.1010    1.9400 C.2    47  PHE47       0.2264
     23  O        -21.4040  -16.8390    2.7040 O.2    47  PHE47      -0.2867
     24  CB       -21.3140  -13.7920    2.7650 C.3    47  PHE47       0.0534
     25  CG       -22.1020  -13.3320    1.5510 C.ar   47  PHE47      -0.0203
     26  CD1      -22.9940  -14.1950    0.9020 C.ar   47  PHE47      -0.0042
     27  CD2      -22.0380  -12.0110    1.1220 C.ar   47  PHE47      -0.0042
     28  CE1      -23.7370  -13.7640   -0.2120 C.ar   47  PHE47      -0.0003
     29  CE2      -22.7950  -11.5730    0.0200 C.ar   47  PHE47      -0.0003
     30  CZ       -23.6530  -12.4470   -0.6270 C.ar   47  PHE47      -0.0000
     31  N        -26.3190  -15.7680   -3.2100 N.3    50  VAL50      -0.1245
     32  CA       -27.7590  -15.4920   -3.0850 C.3    50  VAL50       0.1561
     33  C        -28.4130  -16.0350   -4.3470 C.2    50  VAL50       0.2260
     34  O        -28.0170  -15.6640   -5.4460 O.2    50  VAL50      -0.2867
     35  CB       -28.1060  -14.0110   -2.8260 C.3    50  VAL50       0.0252
     36  CG1      -29.6260  -13.8360   -2.6840 C.3    50  VAL50       0.0019
     37  CG2      -27.3820  -13.4860   -1.5690 C.3    50  VAL50       0.0019
     38  N        -35.3600  -14.6210   -2.6290 N.3    63  ALA63      -0.1245
     39  CA       -33.9030  -14.6170   -2.7820 C.3    63  ALA63       0.1562
     40  C        -33.3790  -15.2960   -1.5220 C.2    63  ALA63       0.2260
     41  O        -33.6650  -14.8510   -0.4000 O.2    63  ALA63      -0.2867
     42  CB       -33.3510  -13.1920   -2.8770 C.3    63  ALA63       0.0290
     43  N        -35.2370   -4.7240    2.8580 N.3    97  VAL97      -0.1245
     44  CA       -35.7300   -6.0170    2.3680 C.3    97  VAL97       0.1561
     45  C        -36.2550   -6.8700    3.5440 C.2    97  VAL97       0.2260
     46  O        -35.6720   -6.8420    4.6200 O.2    97  VAL97      -0.2867
     47  CB       -34.6700   -6.7560    1.5070 C.3    97  VAL97       0.0252
     48  CG1      -33.6090   -7.4310    2.3670 C.3    97  VAL97       0.0019
     49  CG2      -35.3340   -7.7650    0.5770 C.3    97  VAL97       0.0019
     50  N        -35.3210  -14.1400    1.7530 N.3   113  MET113     -0.1230
     51  CA       -35.7910  -12.7500    1.7420 C.3   113  MET113      0.1702
     52  C        -36.6880  -12.4740    0.5600 C.2   113  MET113      0.2592
     53  O        -36.6660  -13.2460   -0.3980 O.2   113  MET113     -0.2718
     54  CB       -34.5630  -11.8180    1.6730 C.3   113  MET113      0.0401
     55  CG       -33.6770  -11.8750    2.9170 C.3   113  MET113      0.0596
     56  SD       -32.0210  -11.2100    2.6420 S.3   113  MET113     -0.1393
     57  CE       -31.3050  -12.5660    1.6720 C.3   113  MET113      0.0692
     58  N        -37.4390  -11.3440    0.5720 N.am  114  GLU114     -0.1966
     59  CA       -38.2510  -11.0280   -0.6160 C.3   114  GLU114      0.1733
     60  C        -37.2930  -10.8370   -1.7850 C.2   114  GLU114      0.2616
     61  O        -36.1730  -10.3210   -1.5960 O.2   114  GLU114     -0.2715
     62  CB       -39.0720   -9.7300   -0.5090 C.3   114  GLU114      0.0429
     63  CG       -39.2930   -9.1110    0.8490 C.3   114  GLU114      0.1163
     64  CD       -39.8340   -7.6990    0.7110 C.2   114  GLU114      0.3649
     65  OE1      -40.9580   -7.5540    0.1710 O.co2 114  GLU114     -0.2457
     66  OE2      -39.0900   -6.7400    1.0350 O.co2 114  GLU114     -0.2457
     67  N        -37.7160  -11.2740   -2.9650 N.am  115  TYR115     -0.1960
     68  CA       -36.9270  -11.1340   -4.1980 C.3   115  TYR115      0.1771
     69  C        -37.2110   -9.7200   -4.7630 C.2   115  TYR115      0.2619
     70  O        -38.3690   -9.3490   -4.9260 O.2   115  TYR115     -0.2715
     71  CB       -37.3140  -12.2360   -5.2200 C.3   115  TYR115      0.0574
     72  CG       -36.7540  -12.0380   -6.6200 C.ar  115  TYR115     -0.0198
     73  CD1      -35.3980  -11.7820   -6.8250 C.ar  115  TYR115     -0.0009
     74  CD2      -37.5700  -12.1600   -7.7420 C.ar  115  TYR115     -0.0009
     75  CE1      -34.8760  -11.6250   -8.1110 C.ar  115  TYR115      0.0417
     76  CE2      -37.0560  -12.0000   -9.0360 C.ar  115  TYR115      0.0417
     77  CZ       -35.7070  -11.7340   -9.2120 C.ar  115  TYR115      0.1957
     78  OH       -35.1720  -11.5750  -10.4720 O.3   115  TYR115     -0.2866
     79  N        -36.1480   -8.9440   -5.0280 N.am  116  VAL116     -0.1977
     80  CA       -36.2400   -7.5810   -5.5400 C.3   116  VAL116      0.1596
     81  C        -35.8130   -7.6780   -7.0100 C.2   116  VAL116      0.2287
     82  O        -34.6290   -7.8680   -7.2900 O.2   116  VAL116     -0.2864
     83  CB       -35.4040   -6.5900   -4.7070 C.3   116  VAL116      0.0276
     84  CG1      -35.7270   -5.1600   -5.1240 C.3   116  VAL116      0.0022
     85  CG2      -35.6450   -6.7850   -3.2020 C.3   116  VAL116      0.0022
     86  N        -29.4310   -4.5860   -9.1650 N.3   120  GLU120     -0.1245
     87  CA       -28.6460   -3.6870   -8.3190 C.3   120  GLU120      0.1567
     88  C        -28.6130   -2.2930   -8.9240 C.2   120  GLU120      0.2260
     89  O        -28.5190   -2.1510  -10.1470 O.2   120  GLU120     -0.2867
     90  CB       -27.2020   -4.1890   -8.2210 C.3   120  GLU120      0.0388
     91  CG       -27.0350   -5.5540   -7.5710 C.3   120  GLU120      0.1160
     92  CD       -25.6110   -6.0830   -7.6300 C.2   120  GLU120      0.3649
     93  OE1      -24.7070   -5.3470   -8.0880 O.co2 120  GLU120     -0.2457
     94  OE2      -25.3880   -7.2160   -7.1520 O.co2 120  GLU120     -0.2457
     95  N        -23.8760   -1.4230   -5.0430 N.3   162  GLU162     -0.1231
     96  CA       -23.9090   -2.8990   -5.1540 C.3   162  GLU162      0.1699
     97  C        -24.8800   -3.5270   -4.1180 C.2   162  GLU162      0.2592
     98  O        -25.3010   -4.6620   -4.3140 O.2   162  GLU162     -0.2718
     99  CB       -22.5050   -3.5140   -4.9300 C.3   162  GLU162      0.0402
    100  CG       -21.4600   -3.1710   -6.0010 C.3   162  GLU162      0.1161
    101  CD       -20.5940   -1.9640   -5.6700 C.2   162  GLU162      0.3649
    102  OE1      -21.1630   -0.9220   -5.2830 O.co2 162  GLU162     -0.2457
    103  OE2      -19.3670   -2.0140   -5.9200 O.co2 162  GLU162     -0.2457
    104  N        -25.2130   -2.7880   -3.0400 N.am  163  ASN163     -0.1974
    105  CA       -26.0540   -3.2450   -1.9110 C.3   163  ASN163      0.1688
    106  C        -27.4360   -2.5880   -1.8270 C.2   163  ASN163      0.2292
    107  O        -28.1050   -2.6730   -0.7990 O.2   163  ASN163     -0.2864
    108  CB       -25.2580   -3.0780   -0.5760 C.3   163  ASN163      0.1181
    109  CG       -24.0820   -3.9930   -0.4720 C.2   163  ASN163      0.2629
    110  OD1      -23.8690   -4.8630   -1.3270 O.2   163  ASN163     -0.2716
    111  ND2      -23.2930   -3.8330    0.5880 N.am  163  ASN163     -0.0877
    112  N        -31.0120   -2.4670   -4.1120 N.3   165  LEU165     -0.1245
    113  CA       -31.7280   -3.0350   -5.2530 C.3   165  LEU165      0.1561
    114  C        -32.9430   -2.2130   -5.6280 C.2   165  LEU165      0.2260
    115  O        -33.4430   -1.4670   -4.7910 O.2   165  LEU165     -0.2867
    116  CB       -32.0630   -4.5030   -4.9790 C.3   165  LEU165      0.0270
    117  CG       -30.9330   -5.4680   -5.4090 C.3   165  LEU165      0.0019
    118  CD1      -29.7430   -5.4560   -4.4590 C.3   165  LEU165      0.0001
    119  CD2      -31.4550   -6.8580   -5.5830 C.3   165  LEU165      0.0001
    120  N        -30.4040   -4.4070    0.9140 N.3   175  THR175     -0.1203
    121  CA       -30.3600   -5.8730    1.0410 C.3   175  THR175      0.1994
    122  C        -29.2580   -6.5220    1.8600 C.2   175  THR175      0.2617
    123  O        -29.3490   -7.7350    2.1140 O.2   175  THR175     -0.2717
    124  CB       -30.2970   -6.4860   -0.3650 C.3   175  THR175      0.1784
    125  OG1      -29.2020   -5.8940   -1.0690 O.3   175  THR175     -0.2211
    126  CG2      -31.6050   -6.3180   -1.1380 C.3   175  THR175      0.0376
    127  N        -28.1840   -5.7730    2.1730 N.am  176  ASP176     -0.1973
    128  CA       -26.9580   -6.3330    2.7580 C.3   176  ASP176      0.1709
    129  C        -26.6770   -5.8510    4.1690 C.2   176  ASP176      0.2293
    130  O        -26.2030   -4.7180    4.3690 O.2   176  ASP176     -0.2864
    131  CB       -25.7620   -6.0580    1.8250 C.3   176  ASP176      0.1436
    132  CG       -25.8740   -6.7990    0.5020 C.2   176  ASP176      0.3671
    133  OD1      -26.6700   -6.3730   -0.3480 O.co2 176  ASP176     -0.2456
    134  OD2      -25.2480   -7.8460    0.3690 O.co2 176  ASP176     -0.2456
    135  N        -30.2010   -8.9730  -13.6810 N.3   318  PHE318     -0.1241
    136  CA       -29.0260   -9.4380  -12.9410 C.3   318  PHE318      0.1605
    137  C        -28.0060  -10.0520  -13.8720 C.2   318  PHE318      0.2264
    138  O        -28.3710  -10.6460  -14.8900 O.2   318  PHE318     -0.2867
    139  CB       -29.4370  -10.4740  -11.8660 C.3   318  PHE318      0.0534
    140  CG       -30.2850   -9.8960  -10.7460 C.ar  318  PHE318     -0.0203
    141  CD1      -31.6650   -9.7680  -10.8870 C.ar  318  PHE318     -0.0042
    142  CD2      -29.6970   -9.4470   -9.5700 C.ar  318  PHE318     -0.0042
    143  CE1      -32.4480   -9.2250   -9.8530 C.ar  318  PHE318     -0.0003
    144  CE2      -30.4780   -8.9020   -8.5380 C.ar  318  PHE318     -0.0003
    145  CZ       -31.8460   -8.7950   -8.6890 C.ar  318  PHE318     -0.0000
@<TRIPOS>BOND
     1   138   137    2
     2   137   136    1
     3   135   136    1
     4   136   139    1
     5   139   140    1
     6   141   140   ar
     7   141   143   ar
     8   140   142   ar
     9    78    77    1
    10    89    88    2
    11   143   145   ar
    12   142   144   ar
    13    77    76   ar
    14    77    75   ar
    15     8     6    1
    16    86    87    1
    17    76    74   ar
    18    88    87    1
    19   145   144   ar
    20     4     3    2
    21    87    90    1
    22     2     1    1
    23     2     3    1
    24     2     5    1
    25    90    91    1
    26    75    73   ar
    27    93    92   ar
    28     3     9   am
    29     6     5    1
    30     6     7    1
    31    74    72   ar
    32    92    91    1
    33    92    94   ar
    34    82    81    2
    35     9    10    1
    36    81    80    1
    37    73    72   ar
    38    72    71    1
    39    10    11    1
    40    19    17    1
    41    18    17    1
    42   100   101    1
    43   100    99    1
    44   103   101   ar
    45    11    13   am
    46    11    12    2
    47   101   102   ar
    48   114   113    1
    49   114   115    2
    50   119   117    1
    51    80    79    1
    52    80    83    1
    53    17    14    1
    54    13    14    1
    55    34    33    2
    56   117   116    1
    57   117   118    1
    58   113   116    1
    59   113   112    1
    60    71    68    1
    61    96    95    1
    62    96    99    1
    63    96    97    1
    64    84    83    1
    65    79    69   am
    66    70    69    2
    67    69    68    1
    68    83    85    1
    69    14    15    1
    70    33    32    1
    71    98    97    2
    72    68    67    1
    73    97   104   am
    74    16    15    2
    75    31    32    1
    76    32    35    1
    77   104   105    1
    78    67    60   am
    79    42    39    1
    80    35    36    1
    81    35    37    1
    82    39    38    1
    83    39    40    1
    84   105   106    1
    85   105   108    1
    86   106   107    2
    87    60    61    2
    88    60    59    1
    89    40    41    2
    90   110   109    2
    91   126   124    1
    92   125   124    1
    93    30    28   ar
    94    30    29   ar
    95    59    62    1
    96    59    58    1
    97   108   109    1
    98    62    63    1
    99   109   111   am
   100    53    52    2
   101   124   121    1
   102   133   132   ar
   103    28    26   ar
   104    29    27   ar
   105    65    64   ar
   106   134   132   ar
   107   132   131    1
   108    52    58   am
   109    52    51    1
   110    49    47    1
   111    64    63    1
   112    64    66   ar
   113    26    25   ar
   114   120   121    1
   115   121   122    1
   116    27    25   ar
   117    47    48    1
   118    47    44    1
   119    25    24    1
   120    57    56    1
   121    54    51    1
   122    54    55    1
   123    20    21    1
   124    51    50    1
   125   131   128    1
   126   122   123    2
   127   122   127   am
   128    22    21    1
   129    22    23    2
   130   127   128    1
   131    44    43    1
   132    44    45    1
   133    21    24    1
   134    56    55    1
   135   128   129    1
   136    45    46    2
   137   129   130    2
