@<TRIPOS>MOLECULE
tmp/3zo3A00.pdb
 159 150 0 0 0
SMALL
GASTEIGER

@<TRIPOS>ATOM
      1  N        -28.1310  -15.5110   -8.3490 N.3    39  LEU39      -0.1231
      2  CA       -28.3210  -14.0790   -8.5750 C.3    39  LEU39       0.1693
      3  C        -27.0300  -13.3040   -8.3140 C.2    39  LEU39       0.2592
      4  O        -26.8390  -12.2520   -8.8900 O.2    39  LEU39      -0.2718
      5  CB       -29.4490  -13.5430   -7.6570 C.3    39  LEU39       0.0284
      6  CG       -30.8760  -14.0880   -7.9050 C.3    39  LEU39       0.0019
      7  CD1      -31.8440  -13.6200   -6.8030 C.3    39  LEU39       0.0001
      8  CD2      -31.4030  -13.6710   -9.2670 C.3    39  LEU39       0.0001
      9  N        -26.1940  -13.8110   -7.4220 N.am   40  GLY40      -0.1957
     10  CA       -24.9230  -13.2070   -7.0590 C.3    40  GLY40       0.1869
     11  C        -24.1090  -14.0900   -6.1280 C.2    40  GLY40       0.2309
     12  O        -24.6470  -14.9350   -5.4070 O.2    40  GLY40      -0.2863
     13  N        -20.5000  -11.9670    0.7590 N.3    44  PHE44      -0.1241
     14  CA       -21.8310  -12.1540    1.3460 C.3    44  PHE44       0.1605
     15  C        -22.3250  -13.6160    1.2220 C.2    44  PHE44       0.2264
     16  O        -23.4110  -13.9090    1.6960 O.2    44  PHE44      -0.2867
     17  CB       -22.8420  -11.2010    0.6510 C.3    44  PHE44       0.0534
     18  CG       -22.8530  -11.2570   -0.8640 C.ar   44  PHE44      -0.0203
     19  CD1      -23.5580  -12.2510   -1.5390 C.ar   44  PHE44      -0.0042
     20  CD2      -22.1750  -10.2970   -1.6180 C.ar   44  PHE44      -0.0042
     21  CE1      -23.5460  -12.3100   -2.9440 C.ar   44  PHE44      -0.0003
     22  CE2      -22.1690  -10.3520   -3.0140 C.ar   44  PHE44      -0.0003
     23  CZ       -22.8630  -11.3480   -3.6710 C.ar   44  PHE44      -0.0000
     24  N        -26.1710  -16.0320   -3.3490 N.3    47  VAL47      -0.1245
     25  CA       -27.5970  -15.7260   -3.2980 C.3    47  VAL47       0.1561
     26  C        -28.2470  -16.3260   -4.5380 C.2    47  VAL47       0.2260
     27  O        -27.8190  -16.0610   -5.6540 O.2    47  VAL47      -0.2867
     28  CB       -27.9320  -14.2260   -3.0840 C.3    47  VAL47       0.0252
     29  CG1      -29.4580  -13.9960   -3.0550 C.3    47  VAL47       0.0019
     30  CG2      -27.2730  -13.6840   -1.7990 C.3    47  VAL47       0.0019
     31  N        -35.1680  -14.7980   -2.6840 N.3    60  ALA60      -0.1245
     32  CA       -33.7150  -14.7500   -2.8370 C.3    60  ALA60       0.1562
     33  C        -33.1550  -15.4120   -1.6060 C.2    60  ALA60       0.2260
     34  O        -33.3670  -14.9480   -0.4860 O.2    60  ALA60      -0.2867
     35  CB       -33.2230  -13.3090   -2.9190 C.3    60  ALA60       0.0290
     36  N        -30.0310  -16.5840    0.5180 N.3    62  LYS62      -0.1245
     37  CA       -28.6120  -16.4560    0.7840 C.3    62  LYS62       0.1561
     38  C        -28.1420  -17.7350    1.4650 C.2    62  LYS62       0.2260
     39  O        -28.7370  -18.1930    2.4510 O.2    62  LYS62      -0.2867
     40  CB       -28.3390  -15.2530    1.6870 C.3    62  LYS62       0.0271
     41  CG       -26.8680  -15.0030    2.0390 C.3    62  LYS62       0.0035
     42  CD       -26.7460  -13.5120    2.3500 C.3    62  LYS62       0.0206
     43  CE       -25.5940  -13.1290    3.1900 C.3    62  LYS62       0.1093
     44  NZ       -25.4030  -11.6620    3.1420 N.3    62  LYS62      -0.1314
     45  N        -35.1270   -4.7700    2.8540 N.3    94  VAL94      -0.1245
     46  CA       -35.6100   -6.0680    2.3330 C.3    94  VAL94       0.1561
     47  C        -36.1270   -6.9310    3.5120 C.2    94  VAL94       0.2260
     48  O        -35.5280   -6.9310    4.6050 O.2    94  VAL94      -0.2867
     49  CB       -34.5470   -6.8230    1.4690 C.3    94  VAL94       0.0252
     50  CG1      -33.4470   -7.4730    2.3430 C.3    94  VAL94       0.0019
     51  CG2      -35.2100   -7.8580    0.5700 C.3    94  VAL94       0.0019
     52  N        -35.0050  -14.2120    1.6980 N.3   110  MET110     -0.1230
     53  CA       -35.4540  -12.8360    1.6590 C.3   110  MET110      0.1702
     54  C        -36.3630  -12.5870    0.4890 C.2   110  MET110      0.2592
     55  O        -36.4220  -13.4120   -0.4180 O.2   110  MET110     -0.2718
     56  CB       -34.2190  -11.9210    1.5880 C.3   110  MET110      0.0401
     57  CG       -33.3470  -12.0460    2.8430 C.3   110  MET110      0.0596
     58  SD       -31.7420  -11.3130    2.5870 S.3   110  MET110     -0.1393
     59  CE       -30.9040  -12.5560    1.5920 C.3   110  MET110      0.0692
     60  N        -37.0600  -11.4530    0.4950 N.am  111  GLU111     -0.1966
     61  CA       -37.8980  -11.0850   -0.6490 C.3   111  GLU111      0.1733
     62  C        -36.9630  -10.9220   -1.8430 C.2   111  GLU111      0.2616
     63  O        -35.8450  -10.4060   -1.7070 O.2   111  GLU111     -0.2715
     64  CB       -38.5830   -9.7330   -0.4540 C.3   111  GLU111      0.0429
     65  CG       -39.6720   -9.6610    0.5910 C.3   111  GLU111      0.1163
     66  CD       -40.2110   -8.2430    0.6660 C.2   111  GLU111      0.3649
     67  OE1      -39.4450   -7.3330    1.0700 O.co2 111  GLU111     -0.2457
     68  OE2      -41.3650   -8.0280    0.2250 O.co2 111  GLU111     -0.2457
     69  N        -37.4270  -11.3930   -2.9800 N.am  112  TYR112     -0.1960
     70  CA       -36.7220  -11.2940   -4.2470 C.3   112  TYR112      0.1771
     71  C        -37.0380   -9.8810   -4.8400 C.2   112  TYR112      0.2619
     72  O        -38.2060   -9.5060   -4.9400 O.2   112  TYR112     -0.2715
     73  CB       -37.1770  -12.4420   -5.1870 C.3   112  TYR112      0.0574
     74  CG       -36.6340  -12.3100   -6.5930 C.ar  112  TYR112     -0.0198
     75  CD1      -35.2750  -12.1110   -6.8240 C.ar  112  TYR112     -0.0009
     76  CD2      -37.4860  -12.3320   -7.6930 C.ar  112  TYR112     -0.0009
     77  CE1      -34.7790  -11.9320   -8.1140 C.ar  112  TYR112      0.0417
     78  CE2      -36.9920  -12.1930   -8.9890 C.ar  112  TYR112      0.0417
     79  CZ       -35.6390  -11.9830   -9.1930 C.ar  112  TYR112      0.1957
     80  OH       -35.1330  -11.8490  -10.4640 O.3   112  TYR112     -0.2866
     81  N        -35.9920   -9.0950   -5.1610 N.am  113  VAL113     -0.1977
     82  CA       -36.1400   -7.7200   -5.6770 C.3   113  VAL113      0.1596
     83  C        -35.6840   -7.8270   -7.1210 C.2   113  VAL113      0.2287
     84  O        -34.4710   -7.9860   -7.3570 O.2   113  VAL113     -0.2864
     85  CB       -35.3140   -6.6840   -4.8530 C.3   113  VAL113      0.0276
     86  CG1      -35.6350   -5.2470   -5.3030 C.3   113  VAL113      0.0022
     87  CG2      -35.5410   -6.8520   -3.3580 C.3   113  VAL113      0.0022
     88  N        -29.4360   -4.6280   -9.2880 N.3   117  GLU117     -0.1245
     89  CA       -28.6960   -3.6860   -8.4620 C.3   117  GLU117      0.1567
     90  C        -28.6490   -2.2890   -9.0810 C.2   117  GLU117      0.2260
     91  O        -28.4940   -2.1630  -10.2920 O.2   117  GLU117     -0.2867
     92  CB       -27.2540   -4.1540   -8.2390 C.3   117  GLU117      0.0388
     93  CG       -27.0660   -5.4360   -7.4540 C.3   117  GLU117      0.1160
     94  CD       -25.6690   -6.0020   -7.6480 C.2   117  GLU117      0.3649
     95  OE1      -24.7720   -5.2680   -8.1220 O.co2 117  GLU117     -0.2457
     96  OE2      -25.4570   -7.1670   -7.2610 O.co2 117  GLU117     -0.2457
     97  N        -23.8240   -1.4190   -5.0900 N.3   159  GLU159     -0.1231
     98  CA       -23.8360   -2.8940   -5.1680 C.3   159  GLU159      0.1699
     99  C        -24.7570   -3.5000   -4.0820 C.2   159  GLU159      0.2592
    100  O        -25.1470   -4.6450   -4.2270 O.2   159  GLU159     -0.2718
    101  CB       -22.4320   -3.5050   -5.0220 C.3   159  GLU159      0.0402
    102  CG       -21.4320   -3.1170   -6.1060 C.3   159  GLU159      0.1161
    103  CD       -20.5630   -1.9420   -5.7070 C.2   159  GLU159      0.3649
    104  OE1      -21.1300   -0.9060   -5.3060 O.co2 159  GLU159     -0.2457
    105  OE2      -19.3210   -2.0400   -5.8140 O.co2 159  GLU159     -0.2457
    106  N        -25.1620   -2.7200   -3.0770 N.am  160  ASN160     -0.1974
    107  CA       -26.0100   -3.2190   -1.9730 C.3   160  ASN160      0.1688
    108  C        -27.3870   -2.5960   -1.9300 C.2   160  ASN160      0.2292
    109  O        -28.0580   -2.6830   -0.9100 O.2   160  ASN160     -0.2864
    110  CB       -25.2790   -3.0840   -0.6240 C.3   160  ASN160      0.1181
    111  CG       -24.0860   -4.0080   -0.4740 C.2   160  ASN160      0.2629
    112  OD1      -23.8900   -4.9470   -1.2470 O.2   160  ASN160     -0.2716
    113  ND2      -23.2650   -3.7700    0.5310 N.am  160  ASN160     -0.0877
    114  N        -31.0140   -2.4280   -4.2630 N.3   162  LEU162     -0.1245
    115  CA       -31.7240   -3.0620   -5.3780 C.3   162  LEU162      0.1561
    116  C        -32.9100   -2.2090   -5.7530 C.2   162  LEU162      0.2260
    117  O        -33.3640   -1.4240   -4.9240 O.2   162  LEU162     -0.2867
    118  CB       -32.1900   -4.4990   -4.9880 C.3   162  LEU162      0.0270
    119  CG       -31.1980   -5.7010   -4.8940 C.3   162  LEU162      0.0019
    120  CD1      -31.5730   -6.7610   -5.8540 C.3   162  LEU162      0.0001
    121  CD2      -29.7760   -5.3550   -5.2280 C.3   162  LEU162      0.0001
    122  N        -30.3680   -4.3310    0.9560 N.3   172  THR172     -0.1203
    123  CA       -30.3100   -5.7900    1.1130 C.3   172  THR172      0.1994
    124  C        -29.1510   -6.4130    1.8970 C.2   172  THR172      0.2617
    125  O        -29.1210   -7.6560    2.0240 O.2   172  THR172     -0.2717
    126  CB       -30.2590   -6.4330   -0.2990 C.3   172  THR172      0.1784
    127  OG1      -29.1600   -5.8470   -1.0190 O.3   172  THR172     -0.2211
    128  CG2      -31.5630   -6.2840   -1.0650 C.3   172  THR172      0.0376
    129  N        -28.1830   -5.6120    2.3480 N.am  173  ASP173     -0.1973
    130  CA       -26.9780   -6.2080    2.9510 C.3   173  ASP173      0.1709
    131  C        -26.7290   -5.8170    4.3910 C.2   173  ASP173      0.2293
    132  O        -26.2330   -4.7260    4.6630 O.2   173  ASP173     -0.2864
    133  CB       -25.7620   -5.8920    2.0400 C.3   173  ASP173      0.1436
    134  CG       -25.7950   -6.7010    0.7610 C.2   173  ASP173      0.3671
    135  OD1      -26.6350   -6.3870   -0.1290 O.co2 173  ASP173     -0.2456
    136  OD2      -25.0320   -7.6850    0.6670 O.co2 173  ASP173     -0.2456
    137  N        -29.9970   -9.1880  -13.6110 N.3   315  PHE315     -0.1241
    138  CA       -28.8400   -9.6930  -12.8840 C.3   315  PHE315      0.1605
    139  C        -27.8510  -10.3460  -13.8360 C.2   315  PHE315      0.2264
    140  O        -28.2410  -10.9150  -14.8570 O.2   315  PHE315     -0.2867
    141  CB       -29.2850  -10.7200  -11.8230 C.3   315  PHE315      0.0534
    142  CG       -30.1440  -10.1040  -10.7370 C.ar  315  PHE315     -0.0203
    143  CD1      -31.5330  -10.0110  -10.8900 C.ar  315  PHE315     -0.0042
    144  CD2      -29.5680   -9.5930   -9.5770 C.ar  315  PHE315     -0.0042
    145  CE1      -32.3260   -9.4520   -9.8740 C.ar  315  PHE315     -0.0003
    146  CE2      -30.3640   -9.0250   -8.5740 C.ar  315  PHE315     -0.0003
    147  CZ       -31.7330   -8.9530   -8.7340 C.ar  315  PHE315     -0.0000
    148  N        -23.7230  -16.2030  -13.2080 N.3   318  TYR318     -0.1241
    149  CA       -22.6860  -16.7380  -12.3220 C.3   318  TYR318      0.1605
    150  C        -22.5450  -18.2180  -12.4930 C.2   318  TYR318      0.2264
    151  O        -23.4930  -18.8900  -12.8870 O.2   318  TYR318     -0.2867
    152  CB       -22.9880  -16.4220  -10.8450 C.3   318  TYR318      0.0534
    153  CG       -23.0120  -14.9480  -10.5510 C.ar  318  TYR318     -0.0201
    154  CD1      -24.1390  -14.1820  -10.8300 C.ar  318  TYR318     -0.0009
    155  CD2      -21.8970  -14.3050  -10.0240 C.ar  318  TYR318     -0.0009
    156  CE1      -24.1320  -12.8060  -10.6630 C.ar  318  TYR318      0.0417
    157  CE2      -21.9020  -12.9330   -9.7880 C.ar  318  TYR318      0.0417
    158  CZ       -23.0290  -12.1920  -10.1010 C.ar  318  TYR318      0.1957
    159  OH       -23.0640  -10.8470   -9.8800 O.3   318  TYR318     -0.2866
@<TRIPOS>BOND
     1   140   139    2
     2   139   138    1
     3   137   138    1
     4   148   149    1
     5   151   150    2
     6   138   141    1
     7   150   149    1
     8   149   152    1
     9   141   142    1
    10   143   142   ar
    11   143   145   ar
    12   152   153    1
    13   154   156   ar
    14   154   153   ar
    15   142   144   ar
    16   156   158   ar
    17   153   155   ar
    18    80    79    1
    19    91    90    2
    20   158   159    1
    21   158   157   ar
    22   155   157   ar
    23   145   147   ar
    24   144   146   ar
    25    88    89    1
    26     8     6    1
    27    79    78   ar
    28    79    77   ar
    29    90    89    1
    30    78    76   ar
    31     4     3    2
    32   147   146   ar
    33     2     1    1
    34     2     3    1
    35     2     5    1
    36    89    92    1
    37     3     9   am
    38    92    93    1
    39    95    94   ar
    40    77    75   ar
    41     6     5    1
    42     6     7    1
    43    76    74   ar
    44    94    93    1
    45    94    96   ar
    46     9    10    1
    47    84    83    2
    48    83    82    1
    49    10    11    1
    50    75    74   ar
    51    74    73    1
    52    11    12    2
    53   102   103    1
    54   102   101    1
    55   120   119    1
    56   105   103   ar
    57   116   115    1
    58   116   117    2
    59   103   104   ar
    60    82    81    1
    61    82    85    1
    62    27    26    2
    63   115   118    1
    64   115   114    1
    65    86    85    1
    66   121   119    1
    67    73    70    1
    68    98    97    1
    69    98   101    1
    70    98    99    1
    71    81    71   am
    72   118   119    1
    73    72    71    2
    74    85    87    1
    75    71    70    1
    76    26    25    1
    77    70    69    1
    78   100    99    2
    79    99   106   am
    80    23    22   ar
    81    23    21   ar
    82    24    25    1
    83    25    28    1
    84    28    29    1
    85    28    30    1
    86   106   107    1
    87    22    20   ar
    88    69    62   am
    89    21    19   ar
    90    35    32    1
    91    32    31    1
    92    32    33    1
    93   107   108    1
    94   107   110    1
    95   108   109    2
    96    62    63    2
    97    62    61    1
    98    20    18   ar
    99    33    34    2
   100    19    18   ar
   101   112   111    2
   102   128   126    1
   103   127   126    1
   104    18    17    1
   105    61    64    1
   106    61    60    1
   107   110   111    1
   108   111   113   am
   109    64    65    1
   110    55    54    2
   111   126   123    1
   112   135   134   ar
   113    68    66   ar
   114    54    60   am
   115    54    53    1
   116    36    37    1
   117    51    49    1
   118    65    66    1
   119    17    14    1
   120    66    67   ar
   121   136   134   ar
   122    13    14    1
   123   134   133    1
   124    37    38    1
   125    37    40    1
   126   122   123    1
   127   123   124    1
   128    15    14    1
   129    15    16    2
   130    38    39    2
   131    49    46    1
   132    49    50    1
   133    56    53    1
   134    56    57    1
   135    59    58    1
   136    53    52    1
   137    40    41    1
   138   124   125    2
   139   124   129   am
   140    41    42    1
   141   133   130    1
   142    46    45    1
   143    46    47    1
   144   129   130    1
   145    42    43    1
   146    58    57    1
   147   130   131    1
   148    44    43    1
   149    47    48    2
   150   131   132    2
