@<TRIPOS>MOLECULE
tmp/3zo4A01.pdb
 193 184 0 0 0
SMALL
GASTEIGER

@<TRIPOS>ATOM
      1  N         28.1200  -15.0300    7.9890 N.3    36  LEU36      -0.1231
      2  CA        28.3180  -13.5840    8.1510 C.3    36  LEU36       0.1693
      3  C         27.0930  -12.7580    7.7420 C.2    36  LEU36       0.2593
      4  O         27.0500  -11.5560    8.0090 O.2    36  LEU36      -0.2718
      5  CB        29.5350  -13.1090    7.3360 C.3    36  LEU36       0.0284
      6  CG        30.8690  -13.7730    7.6740 C.3    36  LEU36       0.0019
      7  CD1       31.9320  -13.3440    6.6700 C.3    36  LEU36       0.0001
      8  CD2       31.3230  -13.3830    9.0780 C.3    36  LEU36       0.0001
      9  N         26.1750  -13.3810    7.0170 N.am   37  GLY37      -0.1942
     10  CA        24.9940  -12.6810    6.5180 C.3    37  GLY37       0.2014
     11  C         24.0980  -13.5710    5.6900 C.2    37  GLY37       0.2640
     12  O         24.5180  -14.6400    5.2200 O.2    37  GLY37      -0.2714
     13  N         22.8440  -13.1220    5.4920 N.am   38  THR38      -0.1936
     14  CA        21.8780  -13.9010    4.7100 C.3    38  THR38       0.2028
     15  C         21.0760  -13.0140    3.7620 C.2    38  THR38       0.2642
     16  O         20.9390  -11.8130    4.0000 O.2    38  THR38      -0.2714
     17  CB        20.9190  -14.6960    5.6290 C.3    38  THR38       0.1808
     18  OG1       20.1040  -13.7660    6.3510 O.3    38  THR38      -0.2208
     19  CG2       21.6360  -15.6670    6.5830 C.3    38  THR38       0.0379
     20  N         20.5530  -13.6410    2.7070 N.am   39  GLY39      -0.1954
     21  CA        19.7080  -13.0310    1.6860 C.3    39  GLY39       0.1869
     22  C         18.5540  -13.9710    1.3690 C.2    39  GLY39       0.2309
     23  O         18.5090  -15.1090    1.8710 O.2    39  GLY39      -0.2863
     24  N         18.0250  -15.6080   -1.3560 N.3    41  PHE41      -0.1227
     25  CA        18.4440  -16.7840   -2.1400 C.3    41  PHE41       0.1740
     26  C         19.8620  -17.2730   -1.8520 C.2    41  PHE41       0.2635
     27  O         20.3820  -18.1400   -2.5680 O.2    41  PHE41      -0.2714
     28  CB        18.1760  -16.5770   -3.6420 C.3    41  PHE41       0.0548
     29  CG        18.6540  -15.2580   -4.1990 C.ar   41  PHE41      -0.0202
     30  CD1       19.9450  -15.1210   -4.6870 C.ar   41  PHE41      -0.0042
     31  CD2       17.8100  -14.1520   -4.2400 C.ar   41  PHE41      -0.0042
     32  CE1       20.3880  -13.9060   -5.2070 C.ar   41  PHE41      -0.0003
     33  CE2       18.2590  -12.9250   -4.7400 C.ar   41  PHE41      -0.0003
     34  CZ        19.5440  -12.8110   -5.2300 C.ar   41  PHE41      -0.0000
     35  N         20.4290  -16.7930   -0.7460 N.am   42  GLY42      -0.1718
     36  CA        21.7640  -17.2110   -0.3480 C.2    42  GLY42       0.1480
     37  C         22.2530  -16.7110    0.9910 C.2    42  GLY42       0.2820
     38  O         21.4980  -16.1600    1.8090 O.2    42  GLY42      -0.2669
     39  N         23.5340  -16.9460    1.2290 N.am   43  ARG43      -0.1929
     40  CA        24.1740  -16.5630    2.4800 C.3    43  ARG43       0.1732
     41  C         25.6470  -16.3010    2.2000 C.2    43  ARG43       0.2616
     42  O         26.1160  -16.6280    1.1030 O.2    43  ARG43      -0.2715
     43  CB        23.9640  -17.6200    3.5800 C.3    43  ARG43       0.0348
     44  CG        24.6180  -18.9610    3.3580 C.3    43  ARG43       0.0492
     45  CD        23.7300  -20.0400    3.9380 C.3    43  ARG43       0.2205
     46  NE        23.5630  -21.1320    2.9830 N.pl3  43  ARG43      -0.0865
     47  CZ        23.6880  -22.4180    3.2860 C.cat  43  ARG43       0.5346
     48  NH1       23.9680  -22.7900    4.5310 N.pl3  43  ARG43       0.1354
     49  NH2       23.5470  -23.3430    2.3470 N.pl3  43  ARG43       0.1354
     50  N         26.3160  -15.6040    3.1140 N.am   44  VAL44      -0.1977
     51  CA        27.7560  -15.3140    3.0030 C.3    44  VAL44       0.1596
     52  C         28.3700  -15.9770    4.2300 C.2    44  VAL44       0.2287
     53  O         27.8930  -15.7650    5.3540 O.2    44  VAL44      -0.2864
     54  CB        28.0820  -13.7940    2.9290 C.3    44  VAL44       0.0276
     55  CG1       29.6010  -13.5560    2.9580 C.3    44  VAL44       0.0022
     56  CG2       27.4650  -13.1460    1.6730 C.3    44  VAL44       0.0022
     57  N         35.4210  -14.5800    2.4890 N.3    57  ALA57      -0.1245
     58  CA        33.9630  -14.5140    2.6120 C.3    57  ALA57       0.1562
     59  C         33.4030  -15.2080    1.3660 C.2    57  ALA57       0.2260
     60  O         33.6280  -14.7320    0.2460 O.2    57  ALA57      -0.2867
     61  CB        33.4890  -13.0670    2.6520 C.3    57  ALA57       0.0290
     62  N         30.1420  -16.2910   -0.7660 N.3    59  LYS59      -0.1245
     63  CA        28.7060  -16.1210   -1.0210 C.3    59  LYS59       0.1561
     64  C         28.2300  -17.4260   -1.6660 C.2    59  LYS59       0.2260
     65  O         28.8370  -17.8830   -2.6420 O.2    59  LYS59      -0.2867
     66  CB        28.4720  -14.9000   -1.9450 C.3    59  LYS59       0.0271
     67  CG        27.0180  -14.5940   -2.2720 C.3    59  LYS59       0.0035
     68  CD        26.9420  -13.1950   -2.9010 C.3    59  LYS59       0.0206
     69  CE        25.5480  -12.6230   -2.9070 C.3    59  LYS59       0.1093
     70  NZ        25.5270  -11.1920   -3.3510 N.3    59  LYS59      -0.1314
     71  N         24.8680  -19.1500   -3.3480 N.3    61  LEU61      -0.1245
     72  CA        23.5120  -18.8810   -3.8640 C.3    61  LEU61       0.1561
     73  C         22.8740  -20.1780   -4.3160 C.2    61  LEU61       0.2260
     74  O         23.4810  -20.9340   -5.0590 O.2    61  LEU61      -0.2867
     75  CB        23.5480  -17.8730   -5.0460 C.3    61  LEU61       0.0270
     76  CG        24.2150  -16.5270   -4.7640 C.3    61  LEU61       0.0019
     77  CD1       24.1570  -15.6190   -5.9940 C.3    61  LEU61       0.0001
     78  CD2       23.5930  -15.8270   -3.5510 C.3    61  LEU61       0.0001
     79  N         35.5280   -4.7120   -3.0840 N.3    91  VAL91      -0.1245
     80  CA        35.9890   -6.0140   -2.5810 C.3    91  VAL91       0.1561
     81  C         36.5030   -6.8950   -3.7440 C.2    91  VAL91       0.2260
     82  O         35.9350   -6.8500   -4.8480 O.2    91  VAL91      -0.2867
     83  CB        34.8860   -6.7220   -1.7370 C.3    91  VAL91       0.0252
     84  CG1       33.7820   -7.3170   -2.6140 C.3    91  VAL91       0.0019
     85  CG2       35.4920   -7.7890   -0.8320 C.3    91  VAL91       0.0019
     86  N         35.3450  -14.2230   -1.8960 N.3   107  MET107     -0.1230
     87  CA        35.8770  -12.8720   -1.8980 C.3   107  MET107      0.1702
     88  C         36.7650  -12.6060   -0.7070 C.2   107  MET107      0.2592
     89  O         36.7410  -13.3800    0.2570 O.2   107  MET107     -0.2718
     90  CB        34.6820  -11.8730   -1.8280 C.3   107  MET107      0.0401
     91  CG        33.7650  -11.9020   -3.0680 C.3   107  MET107      0.0596
     92  SD        32.1360  -11.1690   -2.7440 S.3   107  MET107     -0.1393
     93  CE        31.3770  -12.4770   -1.6840 C.3   107  MET107      0.0692
     94  N         37.5290  -11.4840   -0.7340 N.am  108  GLU108     -0.1966
     95  CA        38.3270  -11.0630    0.4150 C.3   108  GLU108      0.1733
     96  C         37.4040  -10.9720    1.6500 C.2   108  GLU108      0.2616
     97  O         36.2990  -10.4450    1.5170 O.2   108  GLU108     -0.2715
     98  CB        38.9150   -9.6650    0.1490 C.3   108  GLU108      0.0429
     99  CG        39.9140   -9.2170    1.2110 C.3   108  GLU108      0.1163
    100  CD        40.9100   -8.1520    0.7920 C.2   108  GLU108      0.3649
    101  OE1       41.2810   -8.1070   -0.4030 O.co2 108  GLU108     -0.2457
    102  OE2       41.3450   -7.3780    1.6750 O.co2 108  GLU108     -0.2457
    103  N         37.8710  -11.4130    2.8220 N.am  109  TYR109     -0.1960
    104  CA        37.1030  -11.2790    4.0740 C.3   109  TYR109      0.1771
    105  C         37.4330   -9.8850    4.6610 C.2   109  TYR109      0.2619
    106  O         38.6150   -9.5390    4.8040 O.2   109  TYR109     -0.2715
    107  CB        37.4750  -12.4070    5.0590 C.3   109  TYR109      0.0574
    108  CG        36.9060  -12.2260    6.4550 C.ar  109  TYR109     -0.0198
    109  CD1       35.5500  -11.9620    6.6500 C.ar  109  TYR109     -0.0009
    110  CD2       37.7210  -12.3360    7.5860 C.ar  109  TYR109     -0.0009
    111  CE1       35.0220  -11.7830    7.9320 C.ar  109  TYR109      0.0417
    112  CE2       37.1990  -12.1700    8.8750 C.ar  109  TYR109      0.0417
    113  CZ        35.8420  -11.9170    9.0400 C.ar  109  TYR109      0.1957
    114  OH        35.2820  -11.7380   10.2860 O.3   109  TYR109     -0.2866
    115  N         36.3870   -9.0760    4.9420 N.am  110  VAL110     -0.1977
    116  CA        36.5500   -7.7100    5.4650 C.3   110  VAL110      0.1596
    117  C         36.1040   -7.7700    6.9290 C.2   110  VAL110      0.2287
    118  O         34.9110   -7.9170    7.2180 O.2   110  VAL110     -0.2864
    119  CB        35.7860   -6.6680    4.6030 C.3   110  VAL110      0.0276
    120  CG1       36.2490   -5.2490    4.9720 C.3   110  VAL110      0.0022
    121  CG2       36.0040   -6.9300    3.0970 C.3   110  VAL110      0.0022
    122  N         29.9420   -4.5590    9.0050 N.3   114  GLU114     -0.1245
    123  CA        29.1860   -3.6320    8.1690 C.3   114  GLU114      0.1567
    124  C         29.1540   -2.2480    8.7750 C.2   114  GLU114      0.2260
    125  O         28.9960   -2.0910    9.9980 O.2   114  GLU114     -0.2867
    126  CB        27.7400   -4.1020    7.9640 C.3   114  GLU114      0.0388
    127  CG        27.6210   -5.4750    7.3250 C.3   114  GLU114      0.1160
    128  CD        26.2280   -6.0620    7.4120 C.2   114  GLU114      0.3649
    129  OE1       25.3370   -5.4200    8.0150 O.co2 114  GLU114     -0.2457
    130  OE2       26.0230   -7.1650    6.8600 O.co2 114  GLU114     -0.2457
    131  N         24.3920   -1.5500    4.9170 N.3   157  GLU157     -0.1231
    132  CA        24.4500   -3.0180    5.0860 C.3   157  GLU157      0.1699
    133  C         25.4990   -3.6530    4.1240 C.2   157  GLU157      0.2592
    134  O         26.0430   -4.7160    4.4390 O.2   157  GLU157     -0.2718
    135  CB        23.0660   -3.6430    4.7970 C.3   157  GLU157      0.0402
    136  CG        21.9860   -3.2910    5.8150 C.3   157  GLU157      0.1161
    137  CD        21.1510   -2.0490    5.5270 C.2   157  GLU157      0.3649
    138  OE1       21.7040   -1.0200    5.0770 O.co2 157  GLU157     -0.2457
    139  OE2       19.9230   -2.1110    5.7630 O.co2 157  GLU157     -0.2457
    140  N         25.7400   -3.0010    2.9810 N.am  158  ASN158     -0.1974
    141  CA        26.6290   -3.4700    1.9020 C.3   158  ASN158      0.1688
    142  C         28.0420   -2.8720    1.9520 C.2   158  ASN158      0.2292
    143  O         28.8360   -3.1540    1.0450 O.2   158  ASN158     -0.2864
    144  CB        25.9990   -3.0610    0.5420 C.3   158  ASN158      0.1181
    145  CG        24.7980   -3.8450    0.0850 C.2   158  ASN158      0.2629
    146  OD1       24.4060   -4.8510    0.6790 O.2   158  ASN158     -0.2716
    147  ND2       24.2830   -3.4880   -1.0780 N.am  158  ASN158     -0.0877
    148  N         31.4720   -2.5900    3.9570 N.3   160  LEU160     -0.1245
    149  CA        32.2510   -3.2090    5.0340 C.3   160  LEU160      0.1561
    150  C         33.4500   -2.3370    5.4040 C.2   160  LEU160      0.2260
    151  O         34.0300   -1.6920    4.5300 O.2   160  LEU160     -0.2867
    152  CB        32.7300   -4.5990    4.5640 C.3   160  LEU160      0.0270
    153  CG        31.7720   -5.8140    4.6810 C.3   160  LEU160      0.0019
    154  CD1       31.6480   -6.2980    6.1290 C.3   160  LEU160      0.0001
    155  CD2       30.4100   -5.5830    4.0540 C.3   160  LEU160      0.0001
    156  N         30.6260   -4.1860   -1.2820 N.3   170  THR170     -0.1203
    157  CA        30.3410   -5.5860   -1.5570 C.3   170  THR170      0.1994
    158  C         28.9290   -5.5950   -2.2240 C.2   170  THR170      0.2617
    159  O         28.2820   -4.5490   -2.3430 O.2   170  THR170     -0.2717
    160  CB        30.3850   -6.4050   -0.2220 C.3   170  THR170      0.1784
    161  OG1       29.2390   -6.0820    0.5610 O.3   170  THR170     -0.2211
    162  CG2       31.6900   -6.1870    0.5890 C.3   170  THR170      0.0376
    163  N         28.4320   -6.7610   -2.5890 N.am  171  ASP171     -0.1973
    164  CA        27.0920   -6.9370   -3.1380 C.3   171  ASP171      0.1709
    165  C         26.8560   -6.2330   -4.4530 C.2   171  ASP171      0.2293
    166  O         26.3380   -5.1070   -4.4970 O.2   171  ASP171     -0.2864
    167  CB        26.0120   -6.5380   -2.1350 C.3   171  ASP171      0.1436
    168  CG        25.8380   -7.5310   -1.0250 C.2   171  ASP171      0.3671
    169  OD1       26.8390   -7.8080   -0.3120 O.co2 171  ASP171     -0.2456
    170  OD2       24.7150   -8.0440   -0.8680 O.co2 171  ASP171     -0.2456
    171  N         30.5670   -8.9350   13.6750 N.3   313  PHE313     -0.1241
    172  CA        29.3910   -9.4270   12.9620 C.3   313  PHE313      0.1605
    173  C         28.3620   -9.9980   13.9020 C.2   313  PHE313      0.2264
    174  O         28.6990  -10.5830   14.9390 O.2   313  PHE313     -0.2867
    175  CB        29.7610  -10.5130   11.9300 C.3   313  PHE313      0.0534
    176  CG        30.6090   -9.9900   10.7950 C.ar  313  PHE313     -0.0203
    177  CD1       31.9970   -9.9400   10.9070 C.ar  313  PHE313     -0.0042
    178  CD2       30.0180   -9.5000    9.6330 C.ar  313  PHE313     -0.0042
    179  CE1       32.7790   -9.3940    9.8760 C.ar  313  PHE313     -0.0003
    180  CE2       30.8010   -8.9730    8.5990 C.ar  313  PHE313     -0.0003
    181  CZ        32.1740   -8.9170    8.7320 C.ar  313  PHE313     -0.0000
    182  N         24.1010  -15.4810   13.1570 N.3   316  TYR316     -0.1241
    183  CA        23.0090  -15.9760   12.3310 C.3   316  TYR316      0.1605
    184  C         22.8420  -17.4630   12.5670 C.2   316  TYR316      0.2264
    185  O         23.7990  -18.1360   12.9580 O.2   316  TYR316     -0.2867
    186  CB        23.3160  -15.7130   10.8420 C.3   316  TYR316      0.0534
    187  CG        23.3180  -14.2460   10.4720 C.ar  316  TYR316     -0.0201
    188  CD1       24.4670  -13.4730   10.6110 C.ar  316  TYR316     -0.0009
    189  CD2       22.1660  -13.6270    9.9850 C.ar  316  TYR316     -0.0009
    190  CE1       24.4750  -12.1210   10.2600 C.ar  316  TYR316      0.0417
    191  CE2       22.1650  -12.2810    9.6230 C.ar  316  TYR316      0.0417
    192  CZ        23.3090  -11.5250    9.7970 C.ar  316  TYR316      0.1957
    193  OH        23.3070  -10.2160    9.3930 O.3   316  TYR316     -0.2866
@<TRIPOS>BOND
     1    77    76    1
     2    34    32   ar
     3    34    33   ar
     4    32    30   ar
     5    74    73    2
     6    75    76    1
     7    75    72    1
     8    82    81    2
     9    76    78    1
    10    33    31   ar
    11    30    29   ar
    12   166   165    2
    13   165   164    1
    14    73    72    1
    15    31    29   ar
    16    29    28    1
    17    72    71    1
    18    81    80    1
    19    28    25    1
    20    70    69    1
    21   164   163    1
    22   164   167    1
    23    79    80    1
    24    91    92    1
    25    91    90    1
    26    69    68    1
    27    68    67    1
    28    92    93    1
    29    65    64    2
    30    84    83    1
    31   163   158   am
    32    80    83    1
    33    27    26    2
    34   159   158    2
    35    67    66    1
    36   158   157    1
    37    25    26    1
    38    25    24    1
    39   167   168    1
    40    66    63    1
    41    87    86    1
    42    87    90    1
    43    87    88    1
    44    26    35    1
    45    83    85    1
    46    64    63    1
    47   157   156    1
    48   157   160    1
    49   147   145   am
    50   168   170   ar
    51   168   169   ar
    52    63    62    1
    53    35    36    2
    54    94    88   am
    55    94    95    1
    56    88    89    2
    57   101   100   ar
    58    36    37    1
    59   160   161    1
    60   160   162    1
    61   145   144    1
    62   145   146    2
    63    98    95    1
    64    98    99    1
    65    60    59    2
    66    95    96    1
    67   144   141    1
    68   100    99    1
    69   100   102   ar
    70    37    39   am
    71    37    38    2
    72   143   142    2
    73    42    41    2
    74    39    40    1
    75    59    58    1
    76    22    21    1
    77    22    23    2
    78    97    96    2
    79    96   103   am
    80    56    54    1
    81    21    20    1
    82   141   142    1
    83   141   140    1
    84    41    40    1
    85    41    50   am
    86    49    47    1
    87    40    43    1
    88    57    58    1
    89    58    61    1
    90    20    15   am
    91   103   104    1
    92    54    55    1
    93    54    51    1
    94   140   133   am
    95    46    47    2
    96    46    45    1
    97    51    50    1
    98    51    52    1
    99   121   119    1
   100    47    48    1
   101    44    43    1
   102    44    45    1
   103    15    16    2
   104    15    14    1
   105   148   149    1
   106   155   153    1
   107   104   105    1
   108   104   107    1
   109   133   134    2
   110   133   132    1
   111    52    53    2
   112   151   150    2
   113   152   153    1
   114   152   149    1
   115   119   120    1
   116   119   116    1
   117   105   106    2
   118   105   115   am
   119   153   154    1
   120    14    13    1
   121    14    17    1
   122   135   132    1
   123   135   136    1
   124   131   132    1
   125   115   116    1
   126   149   150    1
   127   107   108    1
   128   138   137   ar
   129    12    11    2
   130   116   117    1
   131    13    11   am
   132   137   139   ar
   133   137   136    1
   134    17    18    1
   135    17    19    1
   136    11    10    1
   137   108   109   ar
   138   108   110   ar
   139    10     9    1
   140   109   111   ar
   141     7     6    1
   142   130   128   ar
   143   117   118    2
   144     9     3   am
   145   127   128    1
   146   127   126    1
   147     5     6    1
   148     5     2    1
   149   128   129   ar
   150   110   112   ar
   151     6     8    1
   152     3     4    2
   153     3     2    1
   154   111   113   ar
   155   126   123    1
   156     1     2    1
   157   123   124    1
   158   123   122    1
   159   180   181   ar
   160   180   178   ar
   161   181   179   ar
   162   124   125    2
   163   112   113   ar
   164   113   114    1
   165   193   192    1
   166   191   192   ar
   167   191   189   ar
   168   178   176   ar
   169   192   190   ar
   170   179   177   ar
   171   189   187   ar
   172   190   188   ar
   173   187   188   ar
   174   187   186    1
   175   176   177   ar
   176   176   175    1
   177   186   183    1
   178   175   172    1
   179   183   184    1
   180   183   182    1
   181   184   185    2
   182   172   171    1
   183   172   173    1
   184   173   174    2
