@<TRIPOS>MOLECULE
tmp/3zo7G00.pdb
 128 120 0 0 0
SMALL
GASTEIGER

@<TRIPOS>ATOM
      1  N         72.4550   54.9110    5.7660 N.3     7  MET7       -0.1245
      2  CA        72.0960   54.1720    4.5650 C.3     7  MET7        0.1570
      3  C         71.9440   52.6980    4.8960 C.2     7  MET7        0.2261
      4  O         72.7670   52.1290    5.6130 O.2     7  MET7       -0.2867
      5  CB        73.1760   54.3330    3.4940 C.3     7  MET7        0.0387
      6  CG        73.6150   55.7650    3.2460 C.3     7  MET7        0.0595
      7  SD        74.7620   55.8800    1.8570 S.3     7  MET7       -0.1393
      8  CE        75.3490   57.5610    2.0380 C.3     7  MET7        0.0692
      9  N         71.2630   48.9760    2.8590 N.3     9  VAL9       -0.1245
     10  CA        71.1980   48.3210    1.5580 C.3     9  VAL9        0.1561
     11  C         70.2260   47.1500    1.5860 C.2     9  VAL9        0.2260
     12  O         70.3480   46.2500    2.4140 O.2     9  VAL9       -0.2867
     13  CB        72.5770   47.7990    1.1140 C.3     9  VAL9        0.0252
     14  CG1       72.4760   47.1370   -0.2510 C.3     9  VAL9        0.0019
     15  CG2       73.5930   48.9280    1.0870 C.3     9  VAL9        0.0019
     16  N         79.1960   46.6170   -5.9110 N.3    24  LYS24      -0.1245
     17  CA        80.1370   46.7750   -4.8060 C.3    24  LYS24       0.1561
     18  C         81.3640   47.5410   -5.2790 C.2    24  LYS24       0.2260
     19  O         81.8290   48.4630   -4.6100 O.2    24  LYS24      -0.2867
     20  CB        80.5810   45.4200   -4.2520 C.3    24  LYS24       0.0271
     21  CG        79.5080   44.6300   -3.5190 C.3    24  LYS24       0.0035
     22  CD        80.1390   43.4850   -2.7330 C.3    24  LYS24       0.0206
     23  CE        79.1650   42.3380   -2.4970 C.3    24  LYS24       0.1093
     24  NZ        77.9560   42.7500   -1.7290 N.3    24  LYS24      -0.1314
     25  N         80.5090   51.2410   -6.1150 N.3    27  ALA27      -0.1231
     26  CA        80.2700   51.9610   -4.8720 C.3    27  ALA27       0.1694
     27  C         81.5910   52.2900   -4.1850 C.2    27  ALA27       0.2591
     28  O         81.7990   53.4100   -3.7200 O.2    27  ALA27      -0.2718
     29  CB        79.3860   51.1390   -3.9500 C.3    27  ALA27       0.0304
     30  N         82.4850   51.3110   -4.1260 N.am   28  LYS28      -0.1980
     31  CA        83.7770   51.5070   -3.4820 C.3    28  LYS28       0.1596
     32  C         84.5610   52.6150   -4.1780 C.2    28  LYS28       0.2287
     33  O         85.1800   53.4520   -3.5220 O.2    28  LYS28      -0.2864
     34  CB        84.5840   50.2070   -3.4840 C.3    28  LYS28       0.0298
     35  CG        85.9000   50.3080   -2.7300 C.3    28  LYS28       0.0038
     36  CD        86.5240   48.9420   -2.4920 C.3    28  LYS28       0.0206
     37  CE        87.8310   49.0630   -1.7220 C.3    28  LYS28       0.1093
     38  NZ        88.3510   47.7410   -1.2760 N.3    28  LYS28      -0.1314
     39  N         82.6850   56.1400   -3.6200 N.3    31  SER31      -0.1217
     40  CA        82.8700   56.6680   -2.2730 C.3    31  SER31       0.1889
     41  C         84.3240   57.0740   -2.0310 C.2    31  SER31       0.2288
     42  O         84.5910   58.0260   -1.3000 O.2    31  SER31      -0.2866
     43  CB        82.3970   55.6660   -1.2110 C.3    31  SER31       0.2089
     44  OG        83.1580   54.4710   -1.2280 O.3    31  SER31      -0.2183
     45  N         82.4040   63.4610    1.3200 N.3    40  TRP40      -0.1241
     46  CA        82.0740   62.3350    2.1840 C.3    40  TRP40       0.1605
     47  C         83.1080   62.3020    3.3070 C.2    40  TRP40       0.2264
     48  O         84.1560   61.6680    3.1870 O.2    40  TRP40      -0.2867
     49  CB        82.0930   61.0310    1.3830 C.3    40  TRP40       0.0550
     50  CG        81.3290   59.8990    2.0120 C.ar   40  TRP40       0.0003
     51  CD1       81.1830   59.6410    3.3450 C.ar   40  TRP40       0.0946
     52  CD2       80.5990   58.8750    1.3250 C.ar   40  TRP40       0.0152
     53  NE1       80.4140   58.5160    3.5280 N.ar   40  TRP40      -0.2442
     54  CE2       80.0410   58.0290    2.3030 C.ar   40  TRP40       0.0810
     55  CE3       80.3650   58.5920   -0.0250 C.ar   40  TRP40       0.0012
     56  CZ2       79.2640   56.9190    1.9750 C.ar   40  TRP40       0.0191
     57  CZ3       79.5950   57.4900   -0.3480 C.ar   40  TRP40       0.0001
     58  CH2       79.0540   56.6670    0.6470 C.ar   40  TRP40       0.0015
     59  N         82.8240   57.8290    7.3060 N.3    43  LEU43      -0.1245
     60  CA        82.1410   56.6210    6.8710 C.3    43  LEU43       0.1561
     61  C         82.3910   55.4950    7.8660 C.2    43  LEU43       0.2260
     62  O         83.5350   55.1110    8.1070 O.2    43  LEU43      -0.2867
     63  CB        82.6340   56.2030    5.4850 C.3    43  LEU43       0.0270
     64  CG        82.0620   54.8910    4.9460 C.3    43  LEU43       0.0019
     65  CD1       80.5560   54.9920    4.7800 C.3    43  LEU43       0.0001
     66  CD2       82.7260   54.5160    3.6290 C.3    43  LEU43       0.0001
     67  N         80.7970   51.5230    9.2430 N.3    45  ARG45      -0.1245
     68  CA        79.8890   50.4050    9.0420 C.3    45  ARG45       0.1563
     69  C         78.9380   50.2860   10.2240 C.2    45  ARG45       0.2260
     70  O         79.3650   50.3230   11.3780 O.2    45  ARG45      -0.2867
     71  CB        80.6740   49.1000    8.8830 C.3    45  ARG45       0.0307
     72  CG        79.7960   47.8560    8.8220 C.3    45  ARG45       0.0489
     73  CD        79.0250   47.7900    7.5140 C.3    45  ARG45       0.2205
     74  NE        79.8400   47.2540    6.4290 N.pl3  45  ARG45      -0.0865
     75  CZ        79.6000   47.4470    5.1350 C.cat  45  ARG45       0.5346
     76  NH1       78.5680   48.1830    4.7410 N.pl3  45  ARG45       0.1354
     77  NH2       80.4030   46.9080    4.2290 N.pl3  45  ARG45       0.1354
     78  N         74.0340   45.5550    6.7880 N.3    50  TYR50      -0.1227
     79  CA        74.5350   45.9800    5.4890 C.3    50  TYR50       0.1736
     80  C         74.1560   47.4390    5.2590 C.2    50  TYR50       0.2596
     81  O         73.1140   47.7370    4.6760 O.2    50  TYR50      -0.2718
     82  CB        73.9540   45.1100    4.3750 C.3    50  TYR50       0.0548
     83  CG        74.7170   45.1900    3.0690 C.ar   50  TYR50      -0.0200
     84  CD1       75.6520   46.1930    2.8430 C.ar   50  TYR50      -0.0009
     85  CD2       74.5030   44.2580    2.0620 C.ar   50  TYR50      -0.0009
     86  CE1       76.3510   46.2640    1.6530 C.ar   50  TYR50       0.0417
     87  CE2       75.1970   44.3230    0.8670 C.ar   50  TYR50       0.0417
     88  CZ        76.1200   45.3280    0.6690 C.ar   50  TYR50       0.1957
     89  OH        76.8160   45.4000   -0.5160 O.3    50  TYR50      -0.2866
     90  N         75.0080   48.3440    5.7240 N.am   51  GLY51      -0.1942
     91  CA        74.7480   49.7660    5.6050 C.3    51  GLY51       0.2014
     92  C         75.8350   50.5760    6.2800 C.2    51  GLY51       0.2638
     93  O         76.8520   50.0250    6.6980 O.2    51  GLY51      -0.2714
     94  N         75.6280   51.8830    6.3930 N.am   52  ASN52      -0.1972
     95  CA        76.6390   52.7450    6.9890 C.3    52  ASN52       0.1688
     96  C         76.0650   53.9610    7.6990 C.2    52  ASN52       0.2292
     97  O         74.9090   54.3330    7.4950 O.2    52  ASN52      -0.2864
     98  CB        77.6280   53.2180    5.9200 C.3    52  ASN52       0.1181
     99  CG        76.9940   54.1640    4.9170 C.2    52  ASN52       0.2629
    100  OD1       76.8100   55.3500    5.1950 O.2    52  ASN52      -0.2716
    101  ND2       76.6640   53.6450    3.7380 N.am   52  ASN52      -0.0877
    102  N         74.7610   57.7040   -6.2210 N.3    71  LEU71      -0.1245
    103  CA        75.3510   56.5280   -5.5890 C.3    71  LEU71       0.1561
    104  C         74.8900   55.2570   -6.2950 C.2    71  LEU71       0.2260
    105  O         73.6950   55.0710   -6.5250 O.2    71  LEU71      -0.2867
    106  CB        74.9740   56.4620   -4.1090 C.3    71  LEU71       0.0270
    107  CG        75.5120   57.5850   -3.2200 C.3    71  LEU71       0.0019
    108  CD1       75.0570   57.3730   -1.7850 C.3    71  LEU71       0.0001
    109  CD2       77.0280   57.6630   -3.2930 C.3    71  LEU71       0.0001
    110  N         74.4280   52.2740   -5.3110 N.3    73  PHE73      -0.1241
    111  CA        73.4540   51.4730   -4.5750 C.3    73  PHE73       0.1605
    112  C         72.1110   52.1790   -4.3950 C.2    73  PHE73       0.2264
    113  O         71.1860   51.6050   -3.8220 O.2    73  PHE73      -0.2867
    114  CB        74.0030   51.0800   -3.2000 C.3    73  PHE73       0.0534
    115  CG        74.8580   49.8430   -3.2140 C.ar   73  PHE73      -0.0203
    116  CD1       74.3200   48.6190   -3.5720 C.ar   73  PHE73      -0.0042
    117  CD2       76.1930   49.9000   -2.8520 C.ar   73  PHE73      -0.0042
    118  CE1       75.1010   47.4790   -3.5810 C.ar   73  PHE73      -0.0003
    119  CE2       76.9780   48.7610   -2.8580 C.ar   73  PHE73      -0.0003
    120  CZ        76.4300   47.5500   -3.2230 C.ar   73  PHE73      -0.0000
    121  N         68.8010   51.5540   -1.7360 N.3    77  LEU77      -0.1245
    122  CA        69.0920   52.1810   -0.4540 C.3    77  LEU77       0.1561
    123  C         67.8550   52.7300    0.2440 C.2    77  LEU77       0.2260
    124  O         66.9510   53.2730   -0.3900 O.2    77  LEU77      -0.2867
    125  CB        70.0980   53.3210   -0.6250 C.3    77  LEU77       0.0270
    126  CG        71.5520   52.9430   -0.9120 C.3    77  LEU77       0.0019
    127  CD1       72.4090   54.1960   -0.9910 C.3    77  LEU77       0.0001
    128  CD2       72.0940   51.9920    0.1430 C.3    77  LEU77       0.0001
@<TRIPOS>BOND
     1   105   104    2
     2   104   103    1
     3   102   103    1
     4    25    26    1
     5    16    17    1
     6   103   106    1
     7   110   111    1
     8    18    17    1
     9    18    19    2
    10    26    27    1
    11    26    29    1
    12    17    20    1
    13   111   112    1
    14   111   114    1
    15   112   113    2
    16    20    21    1
    17    27    30   am
    18    27    28    2
    19    32    33    2
    20    32    31    1
    21    30    31    1
    22   106   107    1
    23    39    40    1
    24   118   116   ar
    25   118   120   ar
    26   116   115   ar
    27    21    22    1
    28    34    31    1
    29    34    35    1
    30   109   107    1
    31   120   119   ar
    32   107   108    1
    33   115   114    1
    34   115   117   ar
    35   119   117   ar
    36    22    23    1
    37    35    36    1
    38    23    24    1
    39    36    37    1
    40    40    41    1
    41    40    43    1
    42    41    42    2
    43   121   122    1
    44    37    38    1
    45    44    43    1
    46   127   126    1
    47   126   125    1
    48   126   128    1
    49   125   122    1
    50    89    88    1
    51   122   123    1
    52   124   123    2
    53    57    55   ar
    54    57    58   ar
    55    14    13    1
    56    55    52   ar
    57    58    56   ar
    58    88    87   ar
    59    88    86   ar
    60    87    85   ar
    61    15    13    1
    62    13    10    1
    63    45    46    1
    64    52    50   ar
    65    52    54   ar
    66    49    50    1
    67    49    46    1
    68    10    11    1
    69    10     9    1
    70    11    12    2
    71    86    84   ar
    72     7     8    1
    73     7     6    1
    74    56    54   ar
    75    50    51   ar
    76    85    83   ar
    77    46    47    1
    78    54    53   ar
    79    84    83   ar
    80    83    82    1
    81    48    47    2
    82     6     5    1
    83    51    53   ar
    84     5     2    1
    85    66    64    1
    86   101    99   am
    87    77    75    1
    88    82    79    1
    89     2     3    1
    90     2     1    1
    91    81    80    2
    92    76    75    1
    93    65    64    1
    94     3     4    2
    95    99   100    2
    96    99    98    1
    97    64    63    1
    98    75    74    2
    99    80    79    1
   100    80    90   am
   101    63    60    1
   102    79    78    1
   103    91    90    1
   104    91    92    1
   105    98    95    1
   106    92    94   am
   107    92    93    2
   108    94    95    1
   109    74    73    1
   110    60    59    1
   111    60    61    1
   112    95    96    1
   113    97    96    2
   114    73    72    1
   115    61    62    2
   116    72    71    1
   117    71    68    1
   118    68    67    1
   119    68    69    1
   120    69    70    2
