@<TRIPOS>MOLECULE
tmp/3zoaA00.pdb
 146 145 0 0 0
SMALL
GASTEIGER

@<TRIPOS>ATOM
      1  N        -74.2930  420.9180    6.6130 N.3   360  GLU360     -0.1245
      2  CA       -74.1430  419.8290    5.6450 C.3   360  GLU360      0.1567
      3  C        -75.1870  418.7370    5.8540 C.2   360  GLU360      0.2260
      4  O        -75.7620  418.2270    4.8880 O.2   360  GLU360     -0.2867
      5  CB       -72.7330  419.2390    5.6990 C.3   360  GLU360      0.0388
      6  CG       -71.6410  420.2010    5.2060 C.3   360  GLU360      0.1160
      7  CD       -70.2720  419.5430    5.1120 C.2   360  GLU360      0.3649
      8  OE1      -70.1750  418.3240    5.3760 O.co2 360  GLU360     -0.2457
      9  OE2      -69.2950  420.2450    4.7690 O.co2 360  GLU360     -0.2457
     10  N        -61.7660  423.8020   -2.7850 N.3   441  SER441     -0.1202
     11  CA       -62.7130  422.7370   -3.0700 C.3   441  SER441      0.2020
     12  C        -63.4480  422.3680   -1.7920 C.2   441  SER441      0.2619
     13  O        -64.4290  421.6350   -1.8380 O.2   441  SER441     -0.2717
     14  CB       -61.9970  421.5030   -3.6290 C.3   441  SER441      0.2103
     15  OG       -61.2450  420.8550   -2.6150 O.3   441  SER441     -0.2182
     16  N        -62.9660  422.8640   -0.6530 N.am  442  SER442     -0.1951
     17  CA       -63.5940  422.5420    0.6310 C.3   442  SER442      0.1924
     18  C        -64.5170  423.6390    1.1800 C.2   442  SER442      0.2314
     19  O        -64.9960  423.5410    2.3130 O.2   442  SER442     -0.2863
     20  CB       -62.5350  422.1790    1.6770 C.3   442  SER442      0.2116
     21  OG       -61.6930  423.2820    1.9530 O.3   442  SER442     -0.2180
     22  N        -68.7730  422.5780   -1.8170 N.3   447  TRP447     -0.1241
     23  CA       -69.4420  421.4050   -1.2520 C.3   447  TRP447      0.1605
     24  C        -70.9020  421.3170   -1.7120 C.2   447  TRP447      0.2264
     25  O        -71.3610  420.2520   -2.1400 O.2   447  TRP447     -0.2867
     26  CB       -69.3570  421.4250    0.2850 C.3   447  TRP447      0.0550
     27  CG       -69.9750  420.1990    0.9280 C.ar  447  TRP447      0.0003
     28  CD1      -69.3490  419.0220    1.2250 C.ar  447  TRP447      0.0946
     29  CD2      -71.3380  420.0380    1.3230 C.ar  447  TRP447      0.0152
     30  NE1      -70.2420  418.1390    1.7890 N.ar  447  TRP447     -0.2442
     31  CE2      -71.4720  418.7400    1.8560 C.ar  447  TRP447      0.0810
     32  CE3      -72.4610  420.8660    1.2750 C.ar  447  TRP447      0.0012
     33  CZ2      -72.6840  418.2520    2.3350 C.ar  447  TRP447      0.0191
     34  CZ3      -73.6640  420.3780    1.7450 C.ar  447  TRP447      0.0001
     35  CH2      -73.7650  419.0870    2.2730 C.ar  447  TRP447      0.0015
     36  N        -71.1070  420.4710   -5.3800 N.3   450  ASN450     -0.1225
     37  CA       -70.7950  419.0610   -5.5790 C.3   450  ASN450      0.1785
     38  C        -71.9690  418.1530   -5.2080 C.2   450  ASN450      0.2597
     39  O        -72.2750  417.1990   -5.9170 O.2   450  ASN450     -0.2718
     40  CB       -69.5250  418.6700   -4.8090 C.3   450  ASN450      0.1169
     41  CG       -68.2690  419.3390   -5.3640 C.2   450  ASN450      0.2627
     42  OD1      -68.2560  419.8410   -6.4900 O.2   450  ASN450     -0.2716
     43  ND2      -67.2000  419.3340   -4.5730 N.am  450  ASN450     -0.0877
     44  N        -72.6290  418.4610   -4.0920 N.am  451  MET451     -0.1979
     45  CA       -73.7890  417.6920   -3.6570 C.3   451  MET451      0.1605
     46  C        -74.9290  417.7600   -4.6670 C.2   451  MET451      0.2287
     47  O        -75.5960  416.7550   -4.9300 O.2   451  MET451     -0.2864
     48  CB       -74.2840  418.1800   -2.2880 C.3   451  MET451      0.0413
     49  CG       -73.3230  417.8480   -1.1570 C.3   451  MET451      0.0598
     50  SD       -73.2260  416.0730   -0.8310 S.3   451  MET451     -0.1393
     51  CE       -74.8140  415.8730   -0.0580 C.3   451  MET451      0.0692
     52  N        -73.9400  415.4680   -7.5390 N.3   454  VAL454     -0.1245
     53  CA       -74.1730  414.0790   -7.1570 C.3   454  VAL454      0.1561
     54  C        -75.6500  413.7290   -7.2490 C.2   454  VAL454      0.2260
     55  O        -76.0150  412.7030   -7.8270 O.2   454  VAL454     -0.2867
     56  CB       -73.6630  413.7790   -5.7400 C.3   454  VAL454      0.0252
     57  CG1      -74.0760  412.3620   -5.3110 C.3   454  VAL454      0.0019
     58  CG2      -72.1500  413.9470   -5.6770 C.3   454  VAL454      0.0019
     59  N        -77.1430  413.0640  -10.6800 N.3   457  ARG457     -0.1245
     60  CA       -76.7430  411.8300  -11.3510 C.3   457  ARG457      0.1563
     61  C        -77.5440  410.6010  -10.9090 C.2   457  ARG457      0.2260
     62  O        -77.3200  409.4960  -11.4130 O.2   457  ARG457     -0.2867
     63  CB       -75.2470  411.5910  -11.1650 C.3   457  ARG457      0.0307
     64  CG       -74.3860  412.5540  -11.9690 C.3   457  ARG457      0.0489
     65  CD       -72.9270  412.1240  -11.9740 C.3   457  ARG457      0.2205
     66  NE       -72.3340  412.1730  -10.6410 N.pl3 457  ARG457     -0.0865
     67  CZ       -71.5830  413.1740  -10.1920 C.cat 457  ARG457      0.5346
     68  NH1      -71.3250  414.2190  -10.9710 N.pl3 457  ARG457      0.1354
     69  NH2      -71.0840  413.1280   -8.9640 N.pl3 457  ARG457      0.1354
     70  N        -69.5220  404.7110   -2.1080 N.3   515  GLU515     -0.1231
     71  CA       -69.7690  406.0320   -1.5390 C.3   515  GLU515      0.1699
     72  C        -69.6920  407.0690   -2.6580 C.2   515  GLU515      0.2592
     73  O        -68.8030  407.0070   -3.5030 O.2   515  GLU515     -0.2718
     74  CB       -68.7620  406.3340   -0.4270 C.3   515  GLU515      0.0402
     75  CG       -69.0710  407.6010    0.3550 C.3   515  GLU515      0.1161
     76  CD       -68.5990  408.8550   -0.3640 C.2   515  GLU515      0.3649
     77  OE1      -67.5710  408.7770   -1.0770 O.co2 515  GLU515     -0.2457
     78  OE2      -69.2610  409.9070   -0.2200 O.co2 515  GLU515     -0.2457
     79  N        -70.6220  408.0180   -2.6720 N.am  516  MET516     -0.1965
     80  CA       -70.8380  408.8230   -3.8770 C.3   516  MET516      0.1736
     81  C        -69.8980  410.0000   -4.1380 C.2   516  MET516      0.2617
     82  O        -69.9880  410.6260   -5.1890 O.2   516  MET516     -0.2715
     83  CB       -72.2780  409.3230   -3.9290 C.3   516  MET516      0.0427
     84  CG       -73.2990  408.2360   -4.0730 C.3   516  MET516      0.0599
     85  SD       -74.9120  408.9810   -4.2780 S.3   516  MET516     -0.1393
     86  CE       -75.9120  407.5730   -3.9010 C.3   516  MET516      0.0692
     87  N        -69.0130  410.3290   -3.2080 N.am  517  THR517     -0.1937
     88  CA       -68.0750  411.4180   -3.4930 C.3   517  THR517      0.2028
     89  C        -66.6450  410.9800   -3.7700 C.2   517  THR517      0.2643
     90  O        -65.9520  411.6050   -4.5720 O.2   517  THR517     -0.2714
     91  CB       -68.1270  412.5350   -2.4410 C.3   517  THR517      0.1808
     92  OG1      -67.8760  412.0040   -1.1320 O.3   517  THR517     -0.2208
     93  CG2      -69.4910  413.1580   -2.4800 C.3   517  THR517      0.0379
     94  N        -66.2010  409.9090   -3.1240 N.am  518  GLY518     -0.1939
     95  CA       -64.8720  409.3960   -3.3970 C.3   518  GLY518      0.2014
     96  C        -64.9050  408.1270   -4.2260 C.2   518  GLY518      0.2638
     97  O        -63.8580  407.6170   -4.6350 O.2   518  GLY518     -0.2714
     98  N        -66.1110  407.6150   -4.4670 N.am  519  TYR519     -0.1973
     99  CA       -66.3060  406.3760   -5.2200 C.3   519  TYR519      0.1639
    100  C        -65.5840  405.1800   -4.6220 C.2   519  TYR519      0.2290
    101  O        -65.3010  404.2140   -5.3330 O.2   519  TYR519     -0.2864
    102  CB       -65.8850  406.5500   -6.6780 C.3   519  TYR519      0.0560
    103  CG       -66.6120  407.6700   -7.3610 C.ar  519  TYR519     -0.0198
    104  CD1      -67.9010  407.4910   -7.8340 C.ar  519  TYR519     -0.0009
    105  CD2      -66.0170  408.9100   -7.5180 C.ar  519  TYR519     -0.0009
    106  CE1      -68.5760  408.5150   -8.4550 C.ar  519  TYR519      0.0417
    107  CE2      -66.6790  409.9400   -8.1390 C.ar  519  TYR519      0.0417
    108  CZ       -67.9590  409.7400   -8.6030 C.ar  519  TYR519      0.1957
    109  OH       -68.6250  410.7700   -9.2240 O.3   519  TYR519     -0.2866
    110  N        -73.0490  412.1420    7.6500 N.3   539  PHE539     -0.1227
    111  CA       -73.9340  411.3880    6.7710 C.3   539  PHE539      0.1736
    112  C        -73.1090  410.7350    5.6700 C.2   539  PHE539      0.2595
    113  O        -71.9960  411.1830    5.3640 O.2   539  PHE539     -0.2718
    114  CB       -75.0080  412.2990    6.1750 C.3   539  PHE539      0.0547
    115  CG       -74.5040  413.1330    5.0340 C.ar  539  PHE539     -0.0202
    116  CD1      -73.8670  414.3400    5.2810 C.ar  539  PHE539     -0.0042
    117  CD2      -74.6330  412.6950    3.7240 C.ar  539  PHE539     -0.0042
    118  CE1      -73.3640  415.1040    4.2370 C.ar  539  PHE539     -0.0003
    119  CE2      -74.1350  413.4530    2.6770 C.ar  539  PHE539     -0.0003
    120  CZ       -73.4970  414.6630    2.9400 C.ar  539  PHE539     -0.0000
    121  N        -73.6470  409.6640    5.0890 N.am  540  TYR540     -0.1962
    122  CA       -73.0540  409.0310    3.9200 C.3   540  TYR540      0.1771
    123  C        -74.1580  408.7990    2.9050 C.2   540  TYR540      0.2619
    124  O        -75.2940  408.4850    3.2830 O.2   540  TYR540     -0.2715
    125  CB       -72.4560  407.6540    4.2340 C.3   540  TYR540      0.0574
    126  CG       -71.3680  407.5970    5.2750 C.ar  540  TYR540     -0.0198
    127  CD1      -70.2650  408.4340    5.2160 C.ar  540  TYR540     -0.0009
    128  CD2      -71.4450  406.6820    6.3150 C.ar  540  TYR540     -0.0009
    129  CE1      -69.2660  408.3690    6.1870 C.ar  540  TYR540      0.0417
    130  CE2      -70.4560  406.6040    7.2820 C.ar  540  TYR540      0.0417
    131  CZ       -69.3760  407.4450    7.2190 C.ar  540  TYR540      0.1957
    132  OH       -68.4020  407.3570    8.1950 O.3   540  TYR540     -0.2866
    133  N        -73.8160  408.9400    1.6270 N.am  541  TRP541     -0.1974
    134  CA       -74.6680  408.4890    0.5300 C.3   541  TRP541      0.1640
    135  C        -73.9430  407.3750   -0.2130 C.2   541  TRP541      0.2290
    136  O        -72.7830  407.5340   -0.6000 O.2   541  TRP541     -0.2864
    137  CB       -74.9210  409.6160   -0.4680 C.3   541  TRP541      0.0576
    138  CG       -75.8810  410.6810   -0.0280 C.ar  541  TRP541      0.0006
    139  CD1      -76.5750  410.7430    1.1490 C.ar  541  TRP541      0.0946
    140  CD2      -76.2540  411.8450   -0.7770 C.ar  541  TRP541      0.0152
    141  NE1      -77.3690  411.8690    1.1640 N.ar  541  TRP541     -0.2442
    142  CE2      -77.1810  412.5640   -0.0060 C.ar  541  TRP541      0.0810
    143  CE3      -75.8930  412.3390   -2.0390 C.ar  541  TRP541      0.0012
    144  CZ2      -77.7660  413.7590   -0.4520 C.ar  541  TRP541      0.0191
    145  CZ3      -76.4670  413.5280   -2.4820 C.ar  541  TRP541      0.0001
    146  CH2      -77.3920  414.2260   -1.6870 C.ar  541  TRP541      0.0015
@<TRIPOS>BOND
     1    65    64    1
     2    65    66    1
     3    64    63    1
     4    62    61    2
     5    60    63    1
     6    60    61    1
     7    60    59    1
     8    68    67    1
     9    66    67    2
    10    67    69    1
    11   109   108    1
    12   108   106   ar
    13   108   107   ar
    14   106   104   ar
    15   107   105   ar
    16   104   103   ar
    17    55    54    2
    18    52    53    1
    19   105   103   ar
    20   103   102    1
    21    54    53    1
    22    53    56    1
    23   102    99    1
    24    42    41    2
    25    39    38    2
    26    56    58    1
    27    56    57    1
    28    37    36    1
    29    37    38    1
    30    37    40    1
    31    41    40    1
    32    41    43   am
    33   101   100    2
    34    99   100    1
    35    99    98    1
    36    38    44   am
    37    82    81    2
    38    47    46    2
    39    46    45    1
    40    97    96    2
    41    90    89    2
    42    98    96   am
    43    85    84    1
    44    85    86    1
    45    96    95    1
    46    81    80    1
    47    81    87   am
    48    44    45    1
    49    84    83    1
    50    83    80    1
    51    80    79    1
    52    89    88    1
    53    89    94   am
    54    45    48    1
    55    14    11    1
    56    14    15    1
    57    73    72    2
    58    88    87    1
    59    88    91    1
    60    95    94    1
    61    11    10    1
    62    11    12    1
    63    79    72   am
    64    72    71    1
    65   145   143   ar
    66   145   146   ar
    67    93    91    1
    68    91    92    1
    69    48    49    1
    70    25    24    2
    71    70    71    1
    72   143   140   ar
    73    13    12    2
    74    22    23    1
    75    12    16   am
    76    24    23    1
    77   146   144   ar
    78    71    74    1
    79    23    26    1
    80    49    50    1
    81    77    76   ar
    82    50    51    1
    83   140   138   ar
    84   140   142   ar
    85    16    17    1
    86   136   135    2
    87   137   138    1
    88   137   134    1
    89   144   142   ar
    90    74    75    1
    91    76    78   ar
    92    76    75    1
    93   135   134    1
    94   138   139   ar
    95   142   141   ar
    96    26    27    1
    97   134   133    1
    98    17    18    1
    99    17    20    1
   100    27    28   ar
   101    27    29   ar
   102   139   141   ar
   103    18    19    2
   104    28    30   ar
   105    32    29   ar
   106    32    34   ar
   107    29    31   ar
   108   133   123   am
   109    20    21    1
   110    34    35   ar
   111    30    31   ar
   112    31    33   ar
   113    35    33   ar
   114   119   120   ar
   115   119   117   ar
   116   123   124    2
   117   123   122    1
   118   120   118   ar
   119   117   115   ar
   120   122   125    1
   121   122   121    1
   122   125   126    1
   123   118   116   ar
   124     9     7   ar
   125     4     3    2
   126   115   116   ar
   127   115   114    1
   128   121   112   am
   129     7     6    1
   130     7     8   ar
   131     6     5    1
   132   127   126   ar
   133   127   129   ar
   134   126   128   ar
   135   113   112    2
   136     2     5    1
   137     2     3    1
   138     2     1    1
   139   112   111    1
   140   114   111    1
   141   129   131   ar
   142   128   130   ar
   143   111   110    1
   144   131   130   ar
   145   131   132    1
