@<TRIPOS>MOLECULE
tmp/3zocA01.pdb
 112 112 0 0 0
SMALL
GASTEIGER

@<TRIPOS>ATOM
      1  N        -21.5770  -29.6630  -21.6960 N.3     8  TYR8       -0.1227
      2  CA       -20.6830  -28.5280  -21.4960 C.3     8  TYR8        0.1736
      3  C        -19.1940  -28.9340  -21.5530 C.2     8  TYR8        0.2595
      4  O        -18.3450  -28.1080  -21.8700 O.2     8  TYR8       -0.2718
      5  CB       -21.0050  -27.7580  -20.2120 C.3     8  TYR8        0.0548
      6  CG       -20.5860  -28.4700  -18.9750 C.ar    8  TYR8       -0.0200
      7  CD1      -19.2930  -28.3070  -18.4490 C.ar    8  TYR8       -0.0009
      8  CD2      -21.4550  -29.3420  -18.3350 C.ar    8  TYR8       -0.0009
      9  CE1      -18.8980  -28.9880  -17.3050 C.ar    8  TYR8        0.0417
     10  CE2      -21.0700  -30.0350  -17.2020 C.ar    8  TYR8        0.0417
     11  CZ       -19.8030  -29.8500  -16.6870 C.ar    8  TYR8        0.1957
     12  OH       -19.4490  -30.5400  -15.5620 O.3     8  TYR8       -0.2866
     13  N        -18.8980  -30.2000  -21.2380 N.am    9  ARG9       -0.1980
     14  CA       -17.5350  -30.7190  -21.2430 C.3     9  ARG9        0.1597
     15  C        -16.8640  -30.6200  -22.6070 C.2     9  ARG9        0.2287
     16  O        -15.6270  -30.6690  -22.6900 O.2     9  ARG9       -0.2864
     17  CB       -17.4940  -32.1780  -20.7590 C.3     9  ARG9        0.0334
     18  CG       -17.5110  -32.3520  -19.2420 C.3     9  ARG9        0.0492
     19  CD       -16.0960  -32.3780  -18.6570 C.3     9  ARG9        0.2205
     20  NE       -16.1030  -32.0710  -17.2210 N.pl3   9  ARG9       -0.0865
     21  CZ       -15.6980  -30.9150  -16.6950 C.cat   9  ARG9        0.5346
     22  NH1      -15.2370  -29.9480  -17.4720 N.pl3   9  ARG9        0.1354
     23  NH2      -15.7360  -30.7260  -15.3860 N.pl3   9  ARG9        0.1354
     24  N        -14.3360  -27.8790  -23.1220 N.3    12  TYR12      -0.1241
     25  CA       -13.1540  -27.9690  -22.2450 C.3    12  TYR12       0.1605
     26  C        -11.9210  -28.5440  -22.9270 C.2    12  TYR12       0.2264
     27  O        -12.0670  -29.2990  -23.8880 O.2    12  TYR12      -0.2867
     28  CB       -13.4940  -28.7640  -20.9840 C.3    12  TYR12       0.0534
     29  CG       -14.2100  -27.9230  -19.9480 C.ar   12  TYR12      -0.0201
     30  CD1      -15.5200  -27.4620  -20.1520 C.ar   12  TYR12      -0.0009
     31  CD2      -13.5380  -27.5160  -18.7900 C.ar   12  TYR12      -0.0009
     32  CE1      -16.1570  -26.6600  -19.1880 C.ar   12  TYR12       0.0417
     33  CE2      -14.1600  -26.7250  -17.8430 C.ar   12  TYR12       0.0417
     34  CZ       -15.4690  -26.2980  -18.0440 C.ar   12  TYR12       0.1957
     35  OH       -16.0450  -25.4990  -17.0800 O.3    12  TYR12      -0.2866
     36  N        -14.2870  -19.5790  -11.2100 N.3    32  ALA32      -0.1231
     37  CA       -15.2250  -19.4620  -12.3170 C.3    32  ALA32       0.1694
     38  C        -14.5290  -19.7510  -13.6510 C.2    32  ALA32       0.2592
     39  O        -13.5910  -19.0550  -14.0480 O.2    32  ALA32      -0.2718
     40  CB       -15.7780  -18.0510  -12.3660 C.3    32  ALA32       0.0304
     41  N        -15.0480  -20.7350  -14.3550 N.am   33  ASP33      -0.1960
     42  CA       -14.5980  -21.0720  -15.6900 C.3    33  ASP33       0.1840
     43  C        -15.3070  -20.2560  -16.7640 C.2    33  ASP33       0.2622
     44  O        -14.7620  -19.9950  -17.8350 O.2    33  ASP33      -0.2715
     45  CB       -14.9320  -22.5250  -15.9600 C.3    33  ASP33       0.1450
     46  CG       -14.0090  -23.5070  -15.2570 C.2    33  ASP33       0.3671
     47  OD1      -13.0400  -23.0890  -14.5900 O.co2  33  ASP33      -0.2456
     48  OD2      -14.3140  -24.7280  -15.3510 O.co2  33  ASP33      -0.2456
     49  N        -16.5420  -19.8770  -16.4940 N.am   34  TRP34      -0.1974
     50  CA       -17.4540  -19.4930  -17.5640 C.3    34  TRP34       0.1640
     51  C        -17.3980  -18.0110  -17.7050 C.2    34  TRP34       0.2290
     52  O        -18.3250  -17.2710  -17.3420 O.2    34  TRP34      -0.2864
     53  CB       -18.8730  -20.0370  -17.2950 C.3    34  TRP34       0.0576
     54  CG       -18.9550  -21.5030  -17.3120 C.ar   34  TRP34       0.0006
     55  CD1      -17.9460  -22.3610  -17.6000 C.ar   34  TRP34       0.0946
     56  CD2      -20.1290  -22.3290  -17.0810 C.ar   34  TRP34       0.0152
     57  NE1      -18.3920  -23.6750  -17.5530 N.ar   34  TRP34      -0.2442
     58  CE2      -19.7250  -23.6800  -17.2330 C.ar   34  TRP34       0.0810
     59  CE3      -21.4640  -22.0550  -16.7240 C.ar   34  TRP34       0.0012
     60  CZ2      -20.6130  -24.7690  -17.0460 C.ar   34  TRP34       0.0191
     61  CZ3      -22.3550  -23.1220  -16.5770 C.ar   34  TRP34       0.0001
     62  CH2      -21.9210  -24.4690  -16.7090 C.ar   34  TRP34       0.0015
     63  N        -20.8000  -16.2180  -16.0420 N.3    48  ALA48      -0.1245
     64  CA       -22.0240  -16.9300  -15.6800 C.3    48  ALA48       0.1562
     65  C        -21.9290  -17.3890  -14.2400 C.2    48  ALA48       0.2260
     66  O        -21.0240  -18.1640  -13.9010 O.2    48  ALA48      -0.2867
     67  CB       -22.2290  -18.1380  -16.5820 C.3    48  ALA48       0.0290
     68  N        -24.7720  -19.1090   -5.5880 N.3    53  ARG53      -0.1245
     69  CA       -23.4530  -18.7220   -5.1330 C.3    53  ARG53       0.1563
     70  C        -23.5640  -17.4980   -4.2660 C.2    53  ARG53       0.2260
     71  O        -24.2930  -16.5530   -4.6140 O.2    53  ARG53      -0.2867
     72  CB       -22.5100  -18.3890   -6.3140 C.3    53  ARG53       0.0307
     73  CG       -22.4790  -19.3730   -7.4720 C.3    53  ARG53       0.0489
     74  CD       -22.0390  -20.7770   -7.0920 C.3    53  ARG53       0.2205
     75  NE       -22.0580  -21.6610   -8.2710 N.pl3  53  ARG53      -0.0865
     76  CZ       -22.2660  -22.9660   -8.2170 C.cat  53  ARG53       0.5346
     77  NH1      -22.4430  -23.5340   -7.0610 N.pl3  53  ARG53       0.1354
     78  NH2      -22.2910  -23.7090   -9.3090 N.pl3  53  ARG53       0.1354
     79  N        -28.0770  -20.2080  -14.5800 N.3   128  HIS128     -0.1241
     80  CA       -27.0320  -19.2300  -14.2260 C.3   128  HIS128      0.1621
     81  C        -27.4580  -17.8030  -14.5850 C.2   128  HIS128      0.2264
     82  O        -28.2120  -17.5840  -15.5270 O.2   128  HIS128     -0.2867
     83  CB       -25.7380  -19.5320  -14.9810 C.3   128  HIS128      0.0745
     84  CG       -24.8930  -20.6180  -14.3800 C.ar  128  HIS128      0.0817
     85  ND1      -25.2750  -21.9420  -14.3620 N.ar  128  HIS128     -0.2268
     86  CD2      -23.6620  -20.5760  -13.8150 C.ar  128  HIS128      0.1154
     87  CE1      -24.3320  -22.6650  -13.7780 C.ar  128  HIS128      0.1986
     88  NE2      -23.3360  -21.8590  -13.4450 N.ar  128  HIS128     -0.2212
     89  N         -8.7980  -25.8650  -16.8160 N.3   159  HIS159     -0.1241
     90  CA        -9.6010  -26.8600  -16.0970 C.3   159  HIS159      0.1621
     91  C         -9.9680  -27.8920  -17.1250 C.2   159  HIS159      0.2264
     92  O        -10.5050  -27.5170  -18.1660 O.2   159  HIS159     -0.2867
     93  CB       -10.8740  -26.1700  -15.5730 C.3   159  HIS159      0.0745
     94  CG       -11.6170  -26.9310  -14.5160 C.ar  159  HIS159      0.0817
     95  ND1      -12.9340  -26.6500  -14.1940 N.ar  159  HIS159     -0.2268
     96  CD2      -11.2420  -27.9680  -13.7210 C.ar  159  HIS159      0.1154
     97  CE1      -13.3290  -27.4710  -13.2340 C.ar  159  HIS159      0.1986
     98  NE2      -12.3140  -28.2670  -12.9190 N.ar  159  HIS159     -0.2212
     99  N        -13.4510  -32.3070  -13.3480 N.3   162  TRP162     -0.1241
    100  CA       -13.7710  -31.7600  -12.0390 C.3   162  TRP162      0.1605
    101  C        -12.5490  -31.3880  -11.2140 C.2   162  TRP162      0.2264
    102  O        -12.3600  -30.2060  -10.9350 O.2   162  TRP162     -0.2867
    103  CB       -14.7390  -32.6310  -11.2200 C.3   162  TRP162      0.0550
    104  CG       -15.0430  -32.0020   -9.8360 C.ar  162  TRP162      0.0003
    105  CD1      -14.8700  -32.5910   -8.6020 C.ar  162  TRP162      0.0946
    106  CD2      -15.5330  -30.6480   -9.5690 C.ar  162  TRP162      0.0152
    107  NE1      -15.2270  -31.6960   -7.6000 N.ar  162  TRP162     -0.2442
    108  CE2      -15.6360  -30.5100   -8.1650 C.ar  162  TRP162      0.0810
    109  CE3      -15.8980  -29.5520  -10.3880 C.ar  162  TRP162      0.0012
    110  CZ2      -16.0910  -29.3170   -7.5570 C.ar  162  TRP162      0.0191
    111  CZ3      -16.3440  -28.3630   -9.7830 C.ar  162  TRP162      0.0001
    112  CH2      -16.4400  -28.2620   -8.3810 C.ar  162  TRP162      0.0015
@<TRIPOS>BOND
     1    27    26    2
     2    24    25    1
     3    26    25    1
     4    16    15    2
     5    15    14    1
     6    25    28    1
     7     4     3    2
     8     1     2    1
     9     3     2    1
    10     3    13   am
    11     2     5    1
    12    14    13    1
    13    14    17    1
    14    28    29    1
    15    17    18    1
    16     5     6    1
    17    30    29   ar
    18    30    32   ar
    19    29    31   ar
    20    18    19    1
    21    32    34   ar
    22     6     7   ar
    23     6     8   ar
    24    31    33   ar
    25    19    20    1
    26     7     9   ar
    27     8    10   ar
    28    92    91    2
    29    34    33   ar
    30    34    35    1
    31    44    43    2
    32    51    50    1
    33    51    52    2
    34    55    57   ar
    35    55    54   ar
    36    50    53    1
    37    50    49    1
    38    57    58   ar
    39    22    21    1
    40    54    53    1
    41    54    56   ar
    42     9    11   ar
    43    58    56   ar
    44    58    60   ar
    45    20    21    2
    46    10    11   ar
    47    91    90    1
    48    56    59   ar
    49    60    62   ar
    50    89    90    1
    51    43    49   am
    52    43    42    1
    53    59    61   ar
    54    62    61   ar
    55    21    23    1
    56    11    12    1
    57    67    64    1
    58    90    93    1
    59    63    64    1
    60    45    42    1
    61    45    46    1
    62    42    41    1
    63    64    65    1
    64    93    94    1
    65    82    81    2
    66    48    46   ar
    67    46    47   ar
    68    83    84    1
    69    83    80    1
    70    81    80    1
    71    79    80    1
    72    94    95   ar
    73    94    96   ar
    74    84    85   ar
    75    84    86   ar
    76    85    87   ar
    77    41    38   am
    78    65    66    2
    79    95    97   ar
    80    39    38    2
    81    86    88   ar
    82    87    88   ar
    83    96    98   ar
    84    38    37    1
    85    99   100    1
    86    97    98   ar
    87    40    37    1
    88    37    36    1
    89   100   103    1
    90   100   101    1
    91   103   104    1
    92   101   102    2
    93   109   111   ar
    94   109   106   ar
    95   104   106   ar
    96   104   105   ar
    97   111   112   ar
    98   106   108   ar
    99    78    76    1
   100   105   107   ar
   101   112   110   ar
   102    75    76    2
   103    75    74    1
   104    76    77    1
   105   108   107   ar
   106   108   110   ar
   107    73    74    1
   108    73    72    1
   109    72    69    1
   110    68    69    1
   111    69    70    1
   112    71    70    2
