@<TRIPOS>MOLECULE
tmp/3zodA01.pdb
 108 107 0 0 0
SMALL
GASTEIGER

@<TRIPOS>ATOM
      1  N        -21.3440  -33.1250  -12.0410 N.3     1  HIS1       -0.1241
      2  CA       -22.1330  -31.8910  -11.7580 C.3     1  HIS1        0.1621
      3  C        -23.3410  -32.3390  -10.9620 C.2     1  HIS1        0.2264
      4  O        -23.9140  -33.3890  -11.2630 O.2     1  HIS1       -0.2867
      5  CB       -22.5840  -31.2090  -13.0690 C.3     1  HIS1        0.0745
      6  CG       -22.7600  -29.7160  -12.9710 C.ar    1  HIS1        0.0817
      7  ND1      -23.8750  -29.1250  -12.4120 N.ar    1  HIS1       -0.2268
      8  CD2      -21.9720  -28.6950  -13.3940 C.ar    1  HIS1        0.1154
      9  CE1      -23.7600  -27.8080  -12.4830 C.ar    1  HIS1        0.1986
     10  NE2      -22.6170  -27.5200  -13.0810 N.ar    1  HIS1       -0.2212
     11  N        -21.7150  -29.6550  -21.7980 N.3    12  TYR12      -0.1227
     12  CA       -20.8040  -28.5060  -21.7350 C.3    12  TYR12       0.1736
     13  C        -19.3330  -28.8820  -21.6900 C.2    12  TYR12       0.2595
     14  O        -18.4790  -28.0580  -22.0280 O.2    12  TYR12      -0.2718
     15  CB       -21.1630  -27.5710  -20.5970 C.3    12  TYR12       0.0548
     16  CG       -20.8050  -28.0430  -19.2150 C.ar   12  TYR12      -0.0200
     17  CD1      -19.4710  -28.0780  -18.7880 C.ar   12  TYR12      -0.0009
     18  CD2      -21.8050  -28.3750  -18.2910 C.ar   12  TYR12      -0.0009
     19  CE1      -19.1210  -28.4760  -17.5040 C.ar   12  TYR12       0.0417
     20  CE2      -21.4760  -28.7550  -16.9930 C.ar   12  TYR12       0.0417
     21  CZ       -20.1290  -28.8120  -16.6050 C.ar   12  TYR12       0.1957
     22  OH       -19.7680  -29.1840  -15.3330 O.3    12  TYR12      -0.2866
     23  N        -19.0120  -30.1280  -21.3100 N.am   13  ARG13      -0.1980
     24  CA       -17.6320  -30.5990  -21.3430 C.3    13  ARG13       0.1597
     25  C        -17.0500  -30.5100  -22.7500 C.2    13  ARG13       0.2287
     26  O        -15.8170  -30.5280  -22.9180 O.2    13  ARG13      -0.2864
     27  CB       -17.5720  -32.0580  -20.8670 C.3    13  ARG13       0.0334
     28  CG       -16.2360  -32.5500  -20.3900 C.3    13  ARG13       0.0492
     29  CD       -16.2550  -32.6530  -18.8680 C.3    13  ARG13       0.2205
     30  NE       -15.8700  -31.3700  -18.3230 N.pl3  13  ARG13      -0.0865
     31  CZ       -16.1620  -30.9310  -17.1020 C.cat  13  ARG13       0.5346
     32  NH1      -16.8710  -31.6720  -16.2580 N.pl3  13  ARG13       0.1354
     33  NH2      -15.7510  -29.7240  -16.7420 N.pl3  13  ARG13       0.1354
     34  N        -14.5730  -27.8160  -23.1380 N.3    16  TYR16      -0.1241
     35  CA       -13.3980  -27.9250  -22.2730 C.3    16  TYR16       0.1605
     36  C        -12.1780  -28.5160  -23.0160 C.2    16  TYR16       0.2264
     37  O        -12.3670  -29.2130  -24.0340 O.2    16  TYR16      -0.2867
     38  CB       -13.7390  -28.7700  -21.0300 C.3    16  TYR16       0.0534
     39  CG       -14.4310  -27.9290  -19.9830 C.ar   16  TYR16      -0.0201
     40  CD1      -15.7380  -27.4140  -20.1930 C.ar   16  TYR16      -0.0009
     41  CD2      -13.7760  -27.6300  -18.7840 C.ar   16  TYR16      -0.0009
     42  CE1      -16.3440  -26.6100  -19.2290 C.ar   16  TYR16       0.0417
     43  CE2      -14.3880  -26.8520  -17.8000 C.ar   16  TYR16       0.0417
     44  CZ       -15.6700  -26.3400  -18.0400 C.ar   16  TYR16       0.1957
     45  OH       -16.2340  -25.5580  -17.0610 O.3    16  TYR16      -0.2866
     46  N        -14.5250  -19.3960  -11.2280 N.3    36  ALA36      -0.1231
     47  CA       -15.4070  -19.3150  -12.4040 C.3    36  ALA36       0.1694
     48  C        -14.6680  -19.7000  -13.6570 C.2    36  ALA36       0.2592
     49  O        -13.6600  -19.0670  -14.0190 O.2    36  ALA36      -0.2718
     50  CB       -15.9420  -17.8970  -12.5750 C.3    36  ALA36       0.0304
     51  N        -15.2210  -20.6600  -14.3620 N.am   37  ASP37      -0.1960
     52  CA       -14.7760  -21.0240  -15.7080 C.3    37  ASP37       0.1840
     53  C        -15.5500  -20.2760  -16.7840 C.2    37  ASP37       0.2622
     54  O        -15.0580  -20.0860  -17.8720 O.2    37  ASP37      -0.2715
     55  CB       -15.0880  -22.5000  -15.9760 C.3    37  ASP37       0.1450
     56  CG       -14.1240  -23.4690  -15.3240 C.2    37  ASP37       0.3671
     57  OD1      -13.0920  -23.0500  -14.7330 O.co2  37  ASP37      -0.2456
     58  OD2      -14.4650  -24.6740  -15.4250 O.co2  37  ASP37      -0.2456
     59  N        -16.8060  -19.9020  -16.5120 N.am   38  TRP38      -0.1974
     60  CA       -17.7130  -19.4680  -17.5590 C.3    38  TRP38       0.1640
     61  C        -17.6370  -17.9570  -17.7080 C.2    38  TRP38       0.2290
     62  O        -18.5370  -17.2260  -17.3140 O.2    38  TRP38      -0.2864
     63  CB       -19.1260  -20.0070  -17.2760 C.3    38  TRP38       0.0576
     64  CG       -19.1920  -21.4940  -17.3500 C.ar   38  TRP38       0.0006
     65  CD1      -18.1740  -22.3480  -17.7110 C.ar   38  TRP38       0.0946
     66  CD2      -20.3620  -22.3220  -17.1670 C.ar   38  TRP38       0.0152
     67  NE1      -18.6160  -23.6540  -17.6910 N.ar   38  TRP38      -0.2442
     68  CE2      -19.9520  -23.6680  -17.3560 C.ar   38  TRP38       0.0810
     69  CE3      -21.7010  -22.0640  -16.7900 C.ar   38  TRP38       0.0012
     70  CZ2      -20.8490  -24.7660  -17.2200 C.ar   38  TRP38       0.0191
     71  CZ3      -22.5820  -23.1510  -16.6810 C.ar   38  TRP38       0.0001
     72  CH2      -22.1510  -24.4760  -16.8760 C.ar   38  TRP38       0.0015
     73  N        -20.9620  -16.1860  -16.0940 N.3    52  ALA52      -0.1245
     74  CA       -22.2030  -16.9020  -15.7330 C.3    52  ALA52       0.1562
     75  C        -22.1380  -17.4170  -14.2900 C.2    52  ALA52       0.2260
     76  O        -21.2500  -18.2160  -13.9490 O.2    52  ALA52      -0.2867
     77  CB       -22.4550  -18.0500  -16.6840 C.3    52  ALA52       0.0290
     78  N        -24.8500  -19.3080   -5.7180 N.3    57  ARG57      -0.1245
     79  CA       -23.5870  -18.8030   -5.2020 C.3    57  ARG57       0.1563
     80  C        -23.7900  -17.5840   -4.3020 C.2    57  ARG57       0.2260
     81  O        -24.5550  -16.6570   -4.6240 O.2    57  ARG57      -0.2867
     82  CB       -22.5970  -18.4510   -6.3480 C.3    57  ARG57       0.0307
     83  CG       -22.6250  -19.4460   -7.5230 C.3    57  ARG57       0.0489
     84  CD       -22.2000  -20.8460   -7.1330 C.3    57  ARG57       0.2205
     85  NE       -22.2300  -21.7440   -8.2890 N.pl3  57  ARG57      -0.0865
     86  CZ       -22.5820  -23.0280   -8.2740 C.cat  57  ARG57       0.5346
     87  NH1      -22.9620  -23.6460   -7.1410 N.pl3  57  ARG57       0.1354
     88  NH2      -22.5970  -23.6920   -9.4080 N.pl3  57  ARG57       0.1354
     89  N        -28.1700  -20.2220  -14.8140 N.3   132  HIS132     -0.1241
     90  CA       -27.2220  -19.1610  -14.3780 C.3   132  HIS132      0.1621
     91  C        -27.6810  -17.7450  -14.7550 C.2   132  HIS132      0.2264
     92  O        -28.3770  -17.5550  -15.7570 O.2   132  HIS132     -0.2867
     93  CB       -25.8240  -19.3650  -15.0090 C.3   132  HIS132      0.0745
     94  CG       -25.0490  -20.5210  -14.4450 C.ar  132  HIS132      0.0817
     95  ND1      -25.5040  -21.8210  -14.4800 N.ar  132  HIS132     -0.2268
     96  CD2      -23.8470  -20.5590  -13.8210 C.ar  132  HIS132      0.1154
     97  CE1      -24.6170  -22.6050  -13.8990 C.ar  132  HIS132      0.1986
     98  NE2      -23.5930  -21.8640  -13.5150 N.ar  132  HIS132     -0.2212
     99  N         -8.9830  -25.7140  -16.7980 N.3   163  HIS163     -0.1241
    100  CA        -9.7600  -26.7420  -16.1160 C.3   163  HIS163      0.1621
    101  C        -10.1040  -27.8700  -17.0870 C.2   163  HIS163      0.2264
    102  O        -10.6260  -27.6340  -18.1640 O.2   163  HIS163     -0.2867
    103  CB       -11.0380  -26.0560  -15.5960 C.3   163  HIS163      0.0745
    104  CG       -11.8040  -26.8400  -14.5790 C.ar  163  HIS163      0.0817
    105  ND1      -13.1420  -26.6190  -14.3220 N.ar  163  HIS163     -0.2268
    106  CD2      -11.4300  -27.8550  -13.7640 C.ar  163  HIS163      0.1154
    107  CE1      -13.5440  -27.4380  -13.3660 C.ar  163  HIS163      0.1986
    108  NE2      -12.5270  -28.2040  -13.0220 N.ar  163  HIS163     -0.2212
@<TRIPOS>BOND
     1    37    36    2
     2    34    35    1
     3    36    35    1
     4    26    25    2
     5    25    24    1
     6    35    38    1
     7    14    13    2
     8    11    12    1
     9    12    13    1
    10    12    15    1
    11    13    23   am
    12    24    23    1
    13    24    27    1
    14    38    39    1
    15    27    28    1
    16    15    16    1
    17    28    29    1
    18    40    39   ar
    19    40    42   ar
    20    39    41   ar
    21    42    44   ar
    22    16    17   ar
    23    16    18   ar
    24    29    30    1
    25    17    19   ar
    26    41    43   ar
    27    30    31    2
    28    18    20   ar
    29   102   101    2
    30    44    43   ar
    31    44    45    1
    32    54    53    2
    33    65    67   ar
    34    65    64   ar
    35    61    60    1
    36    61    62    2
    37    67    68   ar
    38    60    63    1
    39    60    59    1
    40    19    21   ar
    41    68    70   ar
    42    68    66   ar
    43    64    63    1
    44    64    66   ar
    45    70    72   ar
    46    66    69   ar
    47    31    33    1
    48    31    32    1
    49   101   100    1
    50    20    21   ar
    51    72    71   ar
    52    99   100    1
    53    69    71   ar
    54    53    59   am
    55    53    52    1
    56    77    74    1
    57    21    22    1
    58   100   103    1
    59    73    74    1
    60    55    52    1
    61    55    56    1
    62    92    91    2
    63    74    75    1
    64    52    51    1
    65   103   104    1
    66    58    56   ar
    67    56    57   ar
    68    93    94    1
    69    93    90    1
    70    89    90    1
    71    91    90    1
    72   104   105   ar
    73   104   106   ar
    74    95    94   ar
    75    95    97   ar
    76    94    96   ar
    77    51    48   am
    78   105   107   ar
    79    75    76    2
    80    49    48    2
    81    97    98   ar
    82    96    98   ar
    83   106   108   ar
    84    48    47    1
    85     8    10   ar
    86     8     6   ar
    87   107   108   ar
    88    10     9   ar
    89     5     6    1
    90     5     2    1
    91     6     7   ar
    92    50    47    1
    93     9     7   ar
    94    47    46    1
    95     1     2    1
    96     2     3    1
    97     4     3    2
    98    88    86    1
    99    85    86    2
   100    85    84    1
   101    86    87    1
   102    83    84    1
   103    83    82    1
   104    82    79    1
   105    78    79    1
   106    79    80    1
   107    81    80    2
