@<TRIPOS>MOLECULE
tmp/3zoeB00.pdb
 97 95 0 0 0
SMALL
GASTEIGER

@<TRIPOS>ATOM
      1  N         22.9280   79.3100   75.2760 N.3    14  TYR14      -0.1241
      2  CA        23.8510   80.3220   75.8560 C.3    14  TYR14       0.1605
      3  C         23.4130   80.8790   77.2030 C.2    14  TYR14       0.2264
      4  O         23.9460   81.8690   77.7100 O.2    14  TYR14      -0.2867
      5  CB        24.0640   81.4910   74.8600 C.3    14  TYR14       0.0534
      6  CG        24.5630   80.9870   73.5350 C.ar   14  TYR14      -0.0201
      7  CD1       25.8750   80.6010   73.4040 C.ar   14  TYR14      -0.0009
      8  CD2       23.7070   80.8340   72.4340 C.ar   14  TYR14      -0.0009
      9  CE1       26.3430   80.0680   72.2410 C.ar   14  TYR14       0.0417
     10  CE2       24.1810   80.3200   71.2310 C.ar   14  TYR14       0.0417
     11  CZ        25.5020   79.9270   71.1640 C.ar   14  TYR14       0.1957
     12  OH        26.0570   79.4040   70.0430 O.3    14  TYR14      -0.2866
     13  N         26.0920   81.4960   79.9310 N.3    17  TYR17      -0.1241
     14  CA        27.2570   82.3450   79.5540 C.3    17  TYR17       0.1605
     15  C         27.1010   83.7420   80.2380 C.2    17  TYR17       0.2264
     16  O         26.0070   84.1420   80.6710 O.2    17  TYR17      -0.2867
     17  CB        27.2820   82.5700   78.0330 C.3    17  TYR17       0.0534
     18  CG        27.7100   81.3850   77.1920 C.ar   17  TYR17      -0.0201
     19  CD1       27.1120   80.1340   77.3470 C.ar   17  TYR17      -0.0009
     20  CD2       28.6840   81.5170   76.1900 C.ar   17  TYR17      -0.0009
     21  CE1       27.4740   79.0720   76.5600 C.ar   17  TYR17       0.0417
     22  CE2       29.0700   80.4260   75.4260 C.ar   17  TYR17       0.0417
     23  CZ        28.4810   79.2170   75.6230 C.ar   17  TYR17       0.1957
     24  OH        28.8430   78.1240   74.8710 O.3    17  TYR17      -0.2866
     25  N         35.1380   76.9940   75.7220 N.3    38  VAL38      -0.1231
     26  CA        34.4060   77.6920   76.7630 C.3    38  VAL38       0.1692
     27  C         33.6590   76.7060   77.6530 C.2    38  VAL38       0.2592
     28  O         33.1950   77.0750   78.7870 O.2    38  VAL38      -0.2718
     29  CB        33.4890   78.8130   76.1760 C.3    38  VAL38       0.0266
     30  CG1       32.3730   78.2670   75.3890 C.3    38  VAL38       0.0020
     31  CG2       32.9120   79.7420   77.2680 C.3    38  VAL38       0.0020
     32  N         33.5480   75.4380   77.1920 N.am   39  TRP39      -0.1976
     33  CA        32.9300   74.4360   78.0480 C.3    39  TRP39       0.1640
     34  C         34.0320   73.8160   78.8630 C.2    39  TRP39       0.2290
     35  O         34.6600   72.7870   78.4380 O.2    39  TRP39      -0.2864
     36  CB        32.1670   73.3570   77.2580 C.3    39  TRP39       0.0576
     37  CG        30.9480   73.8110   76.6470 C.ar   39  TRP39       0.0006
     38  CD1       30.4460   75.0700   76.6800 C.ar   39  TRP39       0.0946
     39  CD2       30.0960   73.0630   75.7580 C.ar   39  TRP39       0.0152
     40  NE1       29.2760   75.1250   75.9720 N.ar   39  TRP39      -0.2442
     41  CE2       29.0630   73.9280   75.3480 C.ar   39  TRP39       0.0810
     42  CE3       30.0830   71.7340   75.3020 C.ar   39  TRP39       0.0012
     43  CZ2       28.0290   73.5150   74.5360 C.ar   39  TRP39       0.0191
     44  CZ3       29.0410   71.3360   74.4560 C.ar   39  TRP39       0.0001
     45  CH2       28.0520   72.1930   74.0860 C.ar   39  TRP39       0.0015
     46  N         35.4520   70.2700   77.5270 N.3    53  SER53      -0.1217
     47  CA        34.5060   69.5280   76.6820 C.3    53  SER53       0.1889
     48  C         34.7850   69.8400   75.2330 C.2    53  SER53       0.2288
     49  O         34.6480   70.9800   74.8040 O.2    53  SER53      -0.2866
     50  CB        33.0620   69.7660   77.0700 C.3    53  SER53       0.2089
     51  OG        32.1180   68.9530   76.3080 O.3    53  SER53      -0.2183
     52  N         36.8060   68.4300   66.2740 N.3    58  ARG58      -0.1245
     53  CA        38.0160   69.3030   66.3420 C.3    58  ARG58       0.1563
     54  C         39.2740   68.4890   66.0540 C.2    58  ARG58       0.2260
     55  O         39.4090   67.3860   66.5380 O.2    58  ARG58      -0.2867
     56  CB        38.2010   69.9660   67.7400 C.3    58  ARG58       0.0307
     57  CG        36.9490   70.5970   68.3650 C.3    58  ARG58       0.0489
     58  CD        36.0460   71.3810   67.4020 C.3    58  ARG58       0.2205
     59  NE        34.7890   71.8150   68.0400 N.pl3  58  ARG58      -0.0865
     60  CZ        33.6350   72.0410   67.3890 C.cat  58  ARG58       0.5346
     61  NH1       33.5360   71.9250   66.0660 N.pl3  58  ARG58       0.1354
     62  NH2       32.5620   72.4420   68.0580 N.pl3  58  ARG58       0.1354
     63  N         29.8280   65.9510   72.6280 N.3   131  HIS131     -0.1241
     64  CA        31.2140   66.3220   72.9880 C.3   131  HIS131      0.1621
     65  C         31.7580   65.3120   73.9750 C.2   131  HIS131      0.2264
     66  O         31.0120   64.6670   74.6740 O.2   131  HIS131     -0.2867
     67  CB        31.2450   67.6970   73.6670 C.3   131  HIS131      0.0745
     68  CG        31.0330   68.8500   72.7550 C.ar  131  HIS131      0.0817
     69  ND1       29.8850   69.0200   72.0140 N.ar  131  HIS131     -0.2268
     70  CD2       31.7810   69.9640   72.5440 C.ar  131  HIS131      0.1154
     71  CE1       29.9570   70.1540   71.3540 C.ar  131  HIS131      0.1986
     72  NE2       31.0850   70.7580   71.6800 N.ar  131  HIS131     -0.2212
     73  N         33.6100   85.0050   77.1110 N.3   159  TYR159     -0.1241
     74  CA        32.9260   84.6930   75.8680 C.3   159  TYR159      0.1605
     75  C         31.4460   84.5200   76.1380 C.2   159  TYR159      0.2264
     76  O         31.0200   83.7970   77.0720 O.2   159  TYR159     -0.2867
     77  CB        33.5030   83.4080   75.2630 C.3   159  TYR159      0.0534
     78  CG        33.0610   83.0950   73.8360 C.ar  159  TYR159     -0.0201
     79  CD1       33.2440   84.0050   72.8080 C.ar  159  TYR159     -0.0009
     80  CD2       32.4880   81.8810   73.5100 C.ar  159  TYR159     -0.0009
     81  CE1       32.8550   83.7150   71.4950 C.ar  159  TYR159      0.0417
     82  CE2       32.1150   81.5840   72.1960 C.ar  159  TYR159      0.0417
     83  CZ        32.3120   82.4940   71.1980 C.ar  159  TYR159      0.1957
     84  OH        31.9390   82.1790   69.8700 O.3   159  TYR159     -0.2866
     85  N         29.3260   83.5890   73.5950 N.3   161  GLY161     -0.1210
     86  CA        28.7530   82.8320   72.4780 C.3   161  GLY161      0.1956
     87  C         28.5840   83.6380   71.1930 C.2   161  GLY161      0.2611
     88  O         28.4100   84.8770   71.2030 O.2   161  GLY161     -0.2717
     89  N         28.6530   82.9050   70.0850 N.am  162  LYS162     -0.1979
     90  CA        28.3680   83.3830   68.7460 C.3   162  LYS162      0.1596
     91  C         29.1860   84.6160   68.4300 C.2   162  LYS162      0.2287
     92  O         28.6630   85.6430   68.0080 O.2   162  LYS162     -0.2864
     93  CB        26.8380   83.5170   68.5070 C.3   162  LYS162      0.0298
     94  CG        26.2070   82.1660   68.1120 C.3   162  LYS162      0.0038
     95  CD        24.7870   82.2370   67.5200 C.3   162  LYS162      0.0206
     96  CE        24.2710   80.8140   67.2120 C.3   162  LYS162      0.1093
     97  NZ        22.7920   80.6790   67.3040 N.3   162  LYS162     -0.1314
@<TRIPOS>BOND
     1    54    53    1
     2    54    55    2
     3    61    60    1
     4    52    53    1
     5    53    56    1
     6    96    97    1
     7    96    95    1
     8    60    59    2
     9    60    62    1
    10    58    59    1
    11    58    57    1
    12    95    94    1
    13    56    57    1
    14    92    91    2
    15    94    93    1
    16    91    90    1
    17    93    90    1
    18    90    89    1
    19    84    83    1
    20    12    11    1
    21    89    87   am
    22    11    10   ar
    23    11     9   ar
    24    87    88    2
    25    87    86    1
    26    83    81   ar
    27    83    82   ar
    28    10     8   ar
    29    71    72   ar
    30    71    69   ar
    31    81    79   ar
    32    72    70   ar
    33    69    68   ar
    34    82    80   ar
    35     9     7   ar
    36     8     6   ar
    37    86    85    1
    38    70    68   ar
    39    63    64    1
    40    68    67    1
    41    79    78   ar
    42    64    67    1
    43    64    65    1
    44     7     6   ar
    45    80    78   ar
    46     6     5    1
    47    78    77    1
    48    65    66    2
    49    45    44   ar
    50    45    43   ar
    51    44    42   ar
    52    43    41   ar
    53    49    48    2
    54     5     2    1
    55    24    23    1
    56    48    47    1
    57    77    74    1
    58     1     2    1
    59    42    39   ar
    60    41    39   ar
    61    41    40   ar
    62    30    29    1
    63    22    23   ar
    64    22    20   ar
    65    23    21   ar
    66    25    26    1
    67    39    37   ar
    68     2     3    1
    69    74    75    1
    70    74    73    1
    71    40    38   ar
    72    75    76    2
    73    29    26    1
    74    29    31    1
    75    20    18   ar
    76    51    50    1
    77    21    19   ar
    78    37    38   ar
    79    37    36    1
    80    47    50    1
    81    47    46    1
    82    26    27    1
    83    32    27   am
    84    32    33    1
    85    18    19   ar
    86    18    17    1
    87     3     4    2
    88    36    33    1
    89    27    28    2
    90    17    14    1
    91    33    34    1
    92    35    34    2
    93    14    13    1
    94    14    15    1
    95    15    16    2
