@<TRIPOS>MOLECULE
tmp/3zofB00.pdb
 97 95 0 0 0
SMALL
GASTEIGER

@<TRIPOS>ATOM
      1  N          9.4180    4.1650   13.8640 N.3    14  TYR14      -0.1241
      2  CA         8.5000    5.1710   13.3620 C.3    14  TYR14       0.1605
      3  C          8.9160    5.7880   12.0110 C.2    14  TYR14       0.2264
      4  O          8.3370    6.7850   11.5620 O.2    14  TYR14      -0.2867
      5  CB         8.2740    6.2410   14.4380 C.3    14  TYR14       0.0534
      6  CG         7.7710    5.6910   15.7670 C.ar   14  TYR14      -0.0201
      7  CD1        6.4880    5.1210   15.8720 C.ar   14  TYR14      -0.0009
      8  CD2        8.5840    5.7350   16.9290 C.ar   14  TYR14      -0.0009
      9  CE1        6.0330    4.6130   17.0770 C.ar   14  TYR14       0.0417
     10  CE2        8.1320    5.2290   18.1440 C.ar   14  TYR14       0.0417
     11  CZ         6.8530    4.6720   18.2120 C.ar   14  TYR14       0.1957
     12  OH         6.3740    4.1610   19.4000 O.3    14  TYR14      -0.2866
     13  N          6.2050    6.3740    9.3500 N.3    17  TYR17      -0.1241
     14  CA         5.0930    7.2290    9.7320 C.3    17  TYR17       0.1605
     15  C          5.2500    8.6230    9.0850 C.2    17  TYR17       0.2264
     16  O          6.3260    8.9920    8.6210 O.2    17  TYR17      -0.2867
     17  CB         5.0930    7.4060   11.2330 C.3    17  TYR17       0.0534
     18  CG         4.6140    6.2410   12.0610 C.ar   17  TYR17      -0.0201
     19  CD1        5.2890    5.0280   12.0560 C.ar   17  TYR17      -0.0009
     20  CD2        3.5400    6.3950   12.9270 C.ar   17  TYR17      -0.0009
     21  CE1        4.8740    3.9850   12.8550 C.ar   17  TYR17       0.0417
     22  CE2        3.1220    5.3620   13.7340 C.ar   17  TYR17       0.0417
     23  CZ         3.7820    4.1660   13.6820 C.ar   17  TYR17       0.1957
     24  OH         3.3860    3.1650   14.4840 O.3    17  TYR17      -0.2866
     25  N         -2.9440    1.9800   13.4780 N.3    38  VAL38      -0.1231
     26  CA        -2.1350    2.6590   12.4550 C.3    38  VAL38       0.1692
     27  C         -1.3840    1.7220   11.5180 C.2    38  VAL38       0.2592
     28  O         -0.9970    2.1150   10.3940 O.2    38  VAL38      -0.2718
     29  CB        -1.1530    3.7220   13.0210 C.3    38  VAL38       0.0266
     30  CG1       -0.0120    3.0950   13.8260 C.3    38  VAL38       0.0020
     31  CG2       -0.6010    4.5650   11.8590 C.3    38  VAL38       0.0020
     32  N         -1.1730    0.4860   11.9580 N.am   39  TRP39      -0.1976
     33  CA        -0.6820   -0.5590   11.0510 C.3    39  TRP39       0.1640
     34  C         -1.8450   -1.1220   10.2800 C.2    39  TRP39       0.2290
     35  O         -2.5080   -2.1100   10.7070 O.2    39  TRP39      -0.2864
     36  CB         0.0340   -1.6550   11.8300 C.3    39  TRP39       0.0576
     37  CG         1.3100   -1.1860   12.4500 C.ar   39  TRP39       0.0006
     38  CD1        1.9180    0.0480   12.2810 C.ar   39  TRP39       0.0946
     39  CD2        2.1700   -1.9470   13.3060 C.ar   39  TRP39       0.0152
     40  NE1        3.0870    0.0850   12.9990 N.ar   39  TRP39      -0.2442
     41  CE2        3.2770   -1.1320   13.6170 C.ar   39  TRP39       0.0810
     42  CE3        2.1140   -3.2520   13.8280 C.ar   39  TRP39       0.0012
     43  CZ2        4.3300   -1.5730   14.4550 C.ar   39  TRP39       0.0191
     44  CZ3        3.1570   -3.6970   14.6520 C.ar   39  TRP39       0.0001
     45  CH2        4.2520   -2.8600   14.9510 C.ar   39  TRP39       0.0015
     46  N         -3.2970   -4.7310   11.6100 N.3    53  SER53      -0.1217
     47  CA        -2.3820   -5.5230   12.3840 C.3    53  SER53       0.1889
     48  C         -2.5890   -5.1670   13.8560 C.2    53  SER53       0.2288
     49  O         -2.3420   -4.0280   14.2710 O.2    53  SER53      -0.2866
     50  CB        -0.9640   -5.2180   11.9170 C.3    53  SER53       0.2089
     51  OG        -0.0450   -6.0280   12.5740 O.3    53  SER53      -0.2183
     52  N         -4.5390   -6.6800   22.8320 N.3    58  ARG58      -0.1245
     53  CA        -5.7660   -5.8680   22.7560 C.3    58  ARG58       0.1563
     54  C         -7.0240   -6.6960   23.0320 C.2    58  ARG58       0.2260
     55  O         -7.1530   -7.8150   22.5420 O.2    58  ARG58      -0.2867
     56  CB        -5.9140   -5.1720   21.3820 C.3    58  ARG58       0.0307
     57  CG        -4.6400   -4.5320   20.8120 C.3    58  ARG58       0.0489
     58  CD        -3.9290   -3.5460   21.7520 C.3    58  ARG58       0.2205
     59  NE        -2.7460   -2.9800   21.0890 N.pl3  58  ARG58      -0.0865
     60  CZ        -1.5780   -2.6880   21.6760 C.cat  58  ARG58       0.5346
     61  NH1       -1.4030   -2.8790   22.9820 N.pl3  58  ARG58       0.1354
     62  NH2       -0.5680   -2.1980   20.9480 N.pl3  58  ARG58       0.1354
     63  N          2.3670   -9.1970   16.4610 N.3   131  HIS131     -0.1241
     64  CA         1.0010   -8.7580   16.1020 C.3   131  HIS131      0.1621
     65  C          0.4350   -9.7250   15.1060 C.2   131  HIS131      0.2264
     66  O          1.1870  -10.3850   14.3860 O.2   131  HIS131     -0.2867
     67  CB         0.9950   -7.3810   15.4000 C.3   131  HIS131      0.0745
     68  CG         1.1830   -6.2140   16.3140 C.ar  131  HIS131      0.0817
     69  ND1        2.2820   -6.0740   17.1340 N.ar  131  HIS131     -0.2268
     70  CD2        0.4280   -5.1030   16.5000 C.ar  131  HIS131      0.1154
     71  CE1        2.1970   -4.9250   17.7850 C.ar  131  HIS131      0.1986
     72  NE2        1.0780   -4.3220   17.4260 N.ar  131  HIS131     -0.2212
     73  N         -1.1690   10.0630   12.0450 N.3   162  TYR162     -0.1241
     74  CA        -0.5240    9.6890   13.2860 C.3   162  TYR162      0.1605
     75  C          0.9690    9.4910   13.0990 C.2   162  TYR162      0.2264
     76  O          1.4230    8.7880   12.1880 O.2   162  TYR162     -0.2867
     77  CB        -1.1800    8.4440   13.8970 C.3   162  TYR162      0.0534
     78  CG        -0.6810    8.0210   15.2850 C.ar  162  TYR162     -0.0201
     79  CD1       -0.7390    8.9010   16.3670 C.ar  162  TYR162     -0.0009
     80  CD2       -0.1920    6.7120   15.5240 C.ar  162  TYR162     -0.0009
     81  CE1       -0.3080    8.5230   17.6380 C.ar  162  TYR162      0.0417
     82  CE2        0.2290    6.3150   16.8030 C.ar  162  TYR162      0.0417
     83  CZ         0.1600    7.2260   17.8570 C.ar  162  TYR162      0.1957
     84  OH         0.5760    6.8950   19.1260 O.3   162  TYR162     -0.2866
     85  N          3.0380    8.4450   15.7730 N.3   164  GLY164     -0.1210
     86  CA         3.5980    7.4970   16.7270 C.3   164  GLY164      0.1956
     87  C          3.7340    8.1050   18.1080 C.2   164  GLY164      0.2611
     88  O          3.8540    9.3260   18.2410 O.2   164  GLY164     -0.2717
     89  N          3.7020    7.2530   19.1330 N.am  165  LYS165     -0.1979
     90  CA         3.8230    7.6960   20.5270 C.3   165  LYS165      0.1596
     91  C          3.0130    8.9710   20.8150 C.2   165  LYS165      0.2287
     92  O          3.5560    9.9530   21.2870 O.2   165  LYS165     -0.2864
     93  CB         5.3050    7.8880   20.9120 C.3   165  LYS165      0.0298
     94  CG         6.0390    6.5970   21.2370 C.3   165  LYS165      0.0038
     95  CD         7.4200    6.8310   21.8480 C.3   165  LYS165      0.0206
     96  CE         8.2610    5.5540   21.8530 C.3   165  LYS165      0.1093
     97  NZ         9.5590    5.7180   22.5840 N.3   165  LYS165     -0.1314
@<TRIPOS>BOND
     1    16    15    2
     2    15    14    1
     3    13    14    1
     4    14    17    1
     5    34    35    2
     6    34    33    1
     7    28    27    2
     8    33    36    1
     9    33    32    1
    10    17    18    1
    11    27    32   am
    12    27    26    1
    13     4     3    2
    14    46    47    1
    15    36    37    1
    16    31    29    1
    17    50    47    1
    18    50    51    1
    19     3     2    1
    20    73    74    1
    21    19    18   ar
    22    19    21   ar
    23    18    20   ar
    24    76    75    2
    25    38    37   ar
    26    38    40   ar
    27    47    48    1
    28    37    39   ar
    29    26    29    1
    30    26    25    1
    31    21    23   ar
    32    20    22   ar
    33    40    41   ar
    34    29    30    1
    35    75    74    1
    36    74    77    1
    37    39    41   ar
    38    39    42   ar
    39     2     1    1
    40     2     5    1
    41    41    43   ar
    42    23    22   ar
    43    23    24    1
    44    42    44   ar
    45    48    49    2
    46    77    78    1
    47    66    65    2
    48     5     6    1
    49    43    45   ar
    50    44    45   ar
    51    65    64    1
    52    78    80   ar
    53    78    79   ar
    54    67    64    1
    55    67    68    1
    56    80    82   ar
    57     6     7   ar
    58     6     8   ar
    59    85    86    1
    60     7     9   ar
    61    64    63    1
    62    68    70   ar
    63    68    69   ar
    64    79    81   ar
    65    70    72   ar
    66    86    87    1
    67    82    83   ar
    68     8    10   ar
    69     9    11   ar
    70    69    71   ar
    71    72    71   ar
    72    81    83   ar
    73    83    84    1
    74    87    88    2
    75    87    89   am
    76    10    11   ar
    77    11    12    1
    78    89    90    1
    79    90    91    1
    80    90    93    1
    81    57    56    1
    82    57    58    1
    83    91    92    2
    84    93    94    1
    85    62    60    1
    86    59    60    2
    87    59    58    1
    88    94    95    1
    89    56    53    1
    90    60    61    1
    91    95    96    1
    92    96    97    1
    93    55    54    2
    94    53    52    1
    95    53    54    1
