@<TRIPOS>MOLECULE
tmp/3zofB01.pdb
 212 211 0 0 0
SMALL
GASTEIGER

@<TRIPOS>ATOM
      1  N         -4.7530    6.4280   10.9160 N.3    21  PRO21      -0.2116
      2  CA        -5.1770    5.2980   11.7170 C.3    21  PRO21       0.1372
      3  C         -6.5550    4.7890   11.2980 C.2    21  PRO21       0.2244
      4  O         -7.4270    5.5670   10.9660 O.2    21  PRO21      -0.2868
      5  CB        -5.1890    5.8540   13.1460 C.3    21  PRO21       0.0268
      6  CG        -5.3000    7.3230   13.0090 C.3    21  PRO21       0.0207
      7  CD        -4.7730    7.7020   11.6600 C.3    21  PRO21       0.0892
      8  N        -16.8150   -2.5640   20.6890 N.3    33  ASN33      -0.1240
      9  CA       -15.4710   -2.0410   20.9870 C.3    33  ASN33       0.1653
     10  C        -14.8330   -1.3150   19.8000 C.2    33  ASN33       0.2266
     11  O        -15.0920   -1.6380   18.6430 O.2    33  ASN33      -0.2867
     12  CB       -14.5250   -3.1700   21.4730 C.3    33  ASN33       0.1155
     13  CG       -13.3900   -2.6400   22.3550 C.2    33  ASN33       0.2627
     14  OD1      -13.6290   -1.8430   23.2660 O.2    33  ASN33      -0.2716
     15  ND2      -12.1510   -3.0620   22.0800 N.am   33  ASN33      -0.0877
     16  N        -10.9680    0.4340   18.3680 N.3    35  CYS35      -0.1221
     17  CA        -9.5240    0.3430   18.5610 C.3    35  CYS35       0.1794
     18  C         -8.8320    0.9640   17.3420 C.2    35  CYS35       0.2443
     19  O         -8.9610    0.4690   16.2370 O.2    35  CYS35      -0.2733
     20  CB        -9.1520   -1.1370   18.7230 C.3    35  CYS35       0.0970
     21  SG        -7.4390   -1.5930   18.4290 S.3    35  CYS35      -0.0800
     22  N         -8.1220    2.0740   17.5300 N.am   36  PRO36      -0.2718
     23  CA        -7.3690    2.5690   16.3620 C.3    36  PRO36       0.1535
     24  C         -6.2110    1.6280   16.0040 C.2    36  PRO36       0.2598
     25  O         -5.5610    1.0480   16.9010 O.2    36  PRO36      -0.2715
     26  CB        -6.8340    3.9290   16.8110 C.3    36  PRO36       0.0310
     27  CG        -7.3670    4.1570   18.1940 C.3    36  PRO36       0.0237
     28  CD        -7.9150    2.8820   18.7430 C.3    36  PRO36       0.0939
     29  N         -5.9880    1.4650   14.7020 N.am   37  ALA37      -0.1964
     30  CA        -4.8880    0.6830   14.1990 C.3    37  ALA37       0.1728
     31  C         -4.1370    1.4870   13.1430 C.2    37  ALA37       0.2616
     32  O         -4.6330    1.6460   12.0160 O.2    37  ALA37      -0.2715
     33  CB        -5.4040   -0.6410   13.6080 C.3    37  ALA37       0.0334
     34  N         -2.9440    1.9800   13.4780 N.am   38  VAL38      -0.1963
     35  CA        -2.1350    2.6590   12.4550 C.3    38  VAL38       0.1727
     36  C         -1.3840    1.7220   11.5180 C.2    38  VAL38       0.2616
     37  O         -0.9970    2.1150   10.3940 O.2    38  VAL38      -0.2715
     38  CB        -1.1530    3.7220   13.0210 C.3    38  VAL38       0.0290
     39  CG1       -0.0120    3.0950   13.8260 C.3    38  VAL38       0.0023
     40  CG2       -0.6010    4.5650   11.8590 C.3    38  VAL38       0.0023
     41  N         -1.1730    0.4860   11.9580 N.am   39  TRP39      -0.1974
     42  CA        -0.6820   -0.5590   11.0510 C.3    39  TRP39       0.1640
     43  C         -1.8450   -1.1220   10.2800 C.2    39  TRP39       0.2290
     44  O         -2.5080   -2.1100   10.7070 O.2    39  TRP39      -0.2864
     45  CB         0.0340   -1.6550   11.8300 C.3    39  TRP39       0.0576
     46  CG         1.3100   -1.1860   12.4500 C.ar   39  TRP39       0.0006
     47  CD1        1.9180    0.0480   12.2810 C.ar   39  TRP39       0.0946
     48  CD2        2.1700   -1.9470   13.3060 C.ar   39  TRP39       0.0152
     49  NE1        3.0870    0.0850   12.9990 N.ar   39  TRP39      -0.2442
     50  CE2        3.2770   -1.1320   13.6170 C.ar   39  TRP39       0.0810
     51  CE3        2.1140   -3.2520   13.8280 C.ar   39  TRP39       0.0012
     52  CZ2        4.3300   -1.5730   14.4550 C.ar   39  TRP39       0.0191
     53  CZ3        3.1570   -3.6970   14.6520 C.ar   39  TRP39       0.0001
     54  CH2        4.2520   -2.8600   14.9510 C.ar   39  TRP39       0.0015
     55  N         -3.2970   -4.7310   11.6100 N.3    53  SER53      -0.1202
     56  CA        -2.3820   -5.5230   12.3840 C.3    53  SER53       0.2020
     57  C         -2.5890   -5.1670   13.8560 C.2    53  SER53       0.2619
     58  O         -2.3420   -4.0280   14.2710 O.2    53  SER53      -0.2717
     59  CB        -0.9640   -5.2180   11.9170 C.3    53  SER53       0.2103
     60  OG        -0.0450   -6.0280   12.5740 O.3    53  SER53      -0.2182
     61  N         -3.0820   -6.1510   14.6200 N.am   54  ILE54      -0.1965
     62  CA        -3.5690   -5.9630   15.9800 C.3    54  ILE54       0.1727
     63  C         -2.8010   -6.9050   16.9210 C.2    54  ILE54       0.2616
     64  O         -2.6540   -8.0910   16.6350 O.2    54  ILE54      -0.2715
     65  CB        -5.0920   -6.2730   16.0770 C.3    54  ILE54       0.0290
     66  CG1       -5.9190   -5.4990   15.0310 C.3    54  ILE54       0.0022
     67  CG2       -5.6150   -6.1330   17.5130 C.3    54  ILE54       0.0023
     68  CD1       -6.1340   -4.0030   15.2980 C.3    54  ILE54       0.0001
     69  N         -2.2950   -6.3580   18.0140 N.am   55  SER55      -0.1950
     70  CA        -1.6380   -7.1320   19.0530 C.3    55  SER55       0.1924
     71  C         -2.6190   -8.0920   19.7670 C.2    55  SER55       0.2314
     72  O         -3.7640   -7.7240   20.0640 O.2    55  SER55      -0.2863
     73  CB        -0.9820   -6.2100   20.0840 C.3    55  SER55       0.2116
     74  OG        -0.4460   -6.9330   21.1950 O.3    55  SER55      -0.2180
     75  N         -4.5390   -6.6800   22.8320 N.3    58  ARG58      -0.1231
     76  CA        -5.7660   -5.8680   22.7560 C.3    58  ARG58       0.1694
     77  C         -7.0240   -6.6960   23.0320 C.2    58  ARG58       0.2592
     78  O         -7.1530   -7.8150   22.5420 O.2    58  ARG58      -0.2718
     79  CB        -5.9140   -5.1720   21.3820 C.3    58  ARG58       0.0321
     80  CG        -4.6400   -4.5320   20.8120 C.3    58  ARG58       0.0489
     81  CD        -3.9290   -3.5460   21.7520 C.3    58  ARG58       0.2205
     82  NE        -2.7460   -2.9800   21.0890 N.pl3  58  ARG58      -0.0865
     83  CZ        -1.5780   -2.6880   21.6760 C.cat  58  ARG58       0.5346
     84  NH1       -1.4030   -2.8790   22.9820 N.pl3  58  ARG58       0.1354
     85  NH2       -0.5680   -2.1980   20.9480 N.pl3  58  ARG58       0.1354
     86  N         -7.9550   -6.1250   23.7930 N.am   59  PHE59      -0.1962
     87  CA        -9.2860   -6.7130   23.9830 C.3    59  PHE59       0.1771
     88  C         -9.9310   -6.9350   22.5960 C.2    59  PHE59       0.2620
     89  O        -10.5650   -7.9410   22.3570 O.2    59  PHE59      -0.2715
     90  CB       -10.1120   -5.7730   24.8900 C.3    59  PHE59       0.0574
     91  CG       -11.5300   -6.2160   25.1570 C.ar   59  PHE59      -0.0200
     92  CD1      -11.8050   -7.4120   25.8200 C.ar   59  PHE59      -0.0042
     93  CD2      -12.5950   -5.4030   24.7920 C.ar   59  PHE59      -0.0042
     94  CE1      -13.1060   -7.8020   26.0950 C.ar   59  PHE59      -0.0003
     95  CE2      -13.9070   -5.7850   25.0550 C.ar   59  PHE59      -0.0003
     96  CZ       -14.1600   -6.9900   25.7090 C.ar   59  PHE59      -0.0000
     97  N         -9.7260   -5.9980   21.6750 N.am   60  THR60      -0.1951
     98  CA       -10.2320   -6.1100   20.3040 C.3    60  THR60       0.1897
     99  C         -9.7540   -7.3730   19.6070 C.2    60  THR60       0.2313
    100  O        -10.4760   -7.9330   18.8030 O.2    60  THR60      -0.2863
    101  CB        -9.7890   -4.9090   19.4670 C.3    60  THR60       0.1794
    102  OG1      -10.2760   -3.7120   20.0760 O.3    60  THR60      -0.2208
    103  CG2      -10.2710   -5.0030   18.0180 C.3    60  THR60       0.0378
    104  N        -10.1960    9.8240   18.8730 N.3    83  VAL83      -0.1231
    105  CA        -9.3830    8.7240   18.3520 C.3    83  VAL83       0.1692
    106  C         -8.3170    8.3750   19.3640 C.2    83  VAL83       0.2592
    107  O         -8.1610    7.2000   19.6940 O.2    83  VAL83      -0.2718
    108  CB        -8.8210    9.0010   16.9380 C.3    83  VAL83       0.0266
    109  CG1       -7.7130    8.0230   16.5820 C.3    83  VAL83       0.0020
    110  CG2       -9.9540    8.9080   15.9130 C.3    83  VAL83       0.0020
    111  N         -7.6350    9.3870   19.9030 N.am   84  HIS84      -0.1976
    112  CA        -6.5990    9.1390   20.8980 C.3    84  HIS84       0.1656
    113  C         -7.0960    8.4410   22.1460 C.2    84  HIS84       0.2291
    114  O         -6.4520    7.5040   22.6530 O.2    84  HIS84      -0.2864
    115  CB        -5.8580   10.3820   21.3180 C.3    84  HIS84       0.0771
    116  CG        -4.7180   10.0760   22.2310 C.ar   84  HIS84       0.0820
    117  ND1       -3.5920    9.3950   21.8080 N.ar   84  HIS84      -0.2267
    118  CD2       -4.5490   10.2990   23.5570 C.ar   84  HIS84       0.1154
    119  CE1       -2.7610    9.2510   22.8240 C.ar   84  HIS84       0.1986
    120  NE2       -3.3220    9.7820   23.8980 N.ar   84  HIS84      -0.2212
    121  N         -9.6630    6.4490   22.3480 N.3    86  LEU86      -0.1231
    122  CA       -10.0170    5.0590   22.1140 C.3    86  LEU86       0.1693
    123  C         -8.7640    4.1950   22.0210 C.2    86  LEU86       0.2593
    124  O         -8.8420    2.9940   22.2090 O.2    86  LEU86      -0.2718
    125  CB       -10.8460    4.8870   20.8410 C.3    86  LEU86       0.0284
    126  CG       -12.2450    5.4820   20.7260 C.3    86  LEU86       0.0019
    127  CD1      -12.6090    5.5340   19.2580 C.3    86  LEU86       0.0001
    128  CD2      -13.2790    4.7020   21.5460 C.3    86  LEU86       0.0001
    129  N         -7.6260    4.8180   21.7250 N.am   87  GLY87      -0.1942
    130  CA        -6.3630    4.1260   21.6570 C.3    87  GLY87       0.2014
    131  C         -5.5060    4.2160   22.9020 C.2    87  GLY87       0.2640
    132  O         -4.3530    3.8400   22.8600 O.2    87  GLY87      -0.2714
    133  N         -6.0510    4.7380   23.9950 N.am   88  SER88      -0.1935
    134  CA        -5.3010    4.8630   25.2390 C.3    88  SER88       0.2055
    135  C         -6.0920    4.2700   26.3430 C.2    88  SER88       0.2643
    136  O         -5.7050    4.4000   27.4700 O.2    88  SER88      -0.2714
    137  CB        -5.0370    6.3230   25.6340 C.3    88  SER88       0.2130
    138  OG        -4.7950    7.1440   24.5200 O.3    88  SER88      -0.2179
    139  N         -7.2200    3.6530   26.0320 N.am   89  HIS89      -0.1959
    140  CA        -7.9880    2.9090   27.0350 C.3    89  HIS89       0.1787
    141  C         -8.4260    1.5740   26.4630 C.2    89  HIS89       0.2621
    142  O         -8.5890    1.4420   25.2450 O.2    89  HIS89      -0.2715
    143  CB        -9.1790    3.7270   27.5210 C.3    89  HIS89       0.0785
    144  CG        -8.7800    5.0170   28.1550 C.ar   89  HIS89       0.0821
    145  ND1       -8.4110    5.1160   29.4800 N.ar   89  HIS89      -0.2267
    146  CD2       -8.6290    6.2540   27.6300 C.ar   89  HIS89       0.1154
    147  CE1       -8.0700    6.3630   29.7520 C.ar   89  HIS89       0.1986
    148  NE2       -8.1940    7.0750   28.6460 N.ar   89  HIS89      -0.2212
    149  N         -8.5890    0.5840   27.3350 N.am   90  SER90      -0.1936
    150  CA        -9.0120   -0.7590   26.9130 C.3    90  SER90       0.2055
    151  C        -10.5100   -1.0660   27.1830 C.2    90  SER90       0.2644
    152  O        -11.0750   -0.6670   28.2210 O.2    90  SER90      -0.2714
    153  CB        -8.1210   -1.8190   27.5720 C.3    90  SER90       0.2130
    154  OG        -8.5520   -3.1400   27.1820 O.3    90  SER90      -0.2179
    155  N        -11.1430   -1.7970   26.2620 N.am   91  GLY91      -0.1939
    156  CA       -12.5070   -2.3080   26.4650 C.3    91  GLY91       0.2014
    157  C        -12.5920   -3.1450   27.7400 C.2    91  GLY91       0.2638
    158  O        -13.6660   -3.3110   28.3120 O.2    91  GLY91      -0.2714
    159  N        -11.4520   -3.6680   28.1950 N.am   92  ARG92      -0.1977
    160  CA       -11.4100   -4.4250   29.4560 C.3    92  ARG92       0.1597
    161  C        -11.7310   -3.5490   30.6670 C.2    92  ARG92       0.2287
    162  O        -12.2200   -4.0530   31.6700 O.2    92  ARG92      -0.2864
    163  CB       -10.0600   -5.1180   29.6580 C.3    92  ARG92       0.0334
    164  CG       -10.0220   -6.5590   29.1700 C.3    92  ARG92       0.0492
    165  CD        -8.6260   -7.1710   29.3570 C.3    92  ARG92       0.2205
    166  NE        -7.6080   -6.3380   28.6980 N.pl3  92  ARG92      -0.0865
    167  CZ        -7.0520   -6.5920   27.5040 C.cat  92  ARG92       0.5346
    168  NH1       -7.3630   -7.7040   26.8140 N.pl3  92  ARG92       0.1354
    169  NH2       -6.1600   -5.7280   27.0170 N.pl3  92  ARG92       0.1354
    170  N        -16.4050    1.1550   25.5460 N.3    96  LYS96      -0.1245
    171  CA       -16.1820    1.9910   24.3800 C.3    96  LYS96       0.1561
    172  C        -17.4180    2.0320   23.4920 C.2    96  LYS96       0.2260
    173  O        -17.5270    2.8830   22.6280 O.2    96  LYS96      -0.2867
    174  CB       -14.9480    1.5190   23.6030 C.3    96  LYS96       0.0271
    175  CG       -13.6790    1.5760   24.4350 C.3    96  LYS96       0.0035
    176  CD       -12.4520    1.8150   23.5790 C.3    96  LYS96       0.0206
    177  CE       -11.3110    0.9530   24.0410 C.3    96  LYS96       0.1093
    178  NZ       -10.2610    0.8130   22.9820 N.3    96  LYS96      -0.1314
    179  N          2.3670   -9.1970   16.4610 N.3   131  HIS131     -0.1241
    180  CA         1.0010   -8.7580   16.1020 C.3   131  HIS131      0.1621
    181  C          0.4350   -9.7250   15.1060 C.2   131  HIS131      0.2264
    182  O          1.1870  -10.3850   14.3860 O.2   131  HIS131     -0.2867
    183  CB         0.9950   -7.3810   15.4000 C.3   131  HIS131      0.0745
    184  CG         1.1830   -6.2140   16.3140 C.ar  131  HIS131      0.0817
    185  ND1        2.2820   -6.0740   17.1340 N.ar  131  HIS131     -0.2268
    186  CD2        0.4280   -5.1030   16.5000 C.ar  131  HIS131      0.1154
    187  CE1        2.1970   -4.9250   17.7850 C.ar  131  HIS131      0.1986
    188  NE2        1.0780   -4.3220   17.4260 N.ar  131  HIS131     -0.2212
    189  N         -1.1690   10.0630   12.0450 N.3   162  TYR162     -0.1241
    190  CA        -0.5240    9.6890   13.2860 C.3   162  TYR162      0.1605
    191  C          0.9690    9.4910   13.0990 C.2   162  TYR162      0.2264
    192  O          1.4230    8.7880   12.1880 O.2   162  TYR162     -0.2867
    193  CB        -1.1800    8.4440   13.8970 C.3   162  TYR162      0.0534
    194  CG        -0.6810    8.0210   15.2850 C.ar  162  TYR162     -0.0201
    195  CD1       -0.7390    8.9010   16.3670 C.ar  162  TYR162     -0.0009
    196  CD2       -0.1920    6.7120   15.5240 C.ar  162  TYR162     -0.0009
    197  CE1       -0.3080    8.5230   17.6380 C.ar  162  TYR162      0.0417
    198  CE2        0.2290    6.3150   16.8030 C.ar  162  TYR162      0.0417
    199  CZ         0.1600    7.2260   17.8570 C.ar  162  TYR162      0.1957
    200  OH         0.5760    6.8950   19.1260 O.3   162  TYR162     -0.2866
    201  N         -0.0560   13.5170   16.7150 N.3   168  TYR168     -0.1241
    202  CA        -0.9410   13.5500   15.5470 C.3   168  TYR168      0.1605
    203  C         -0.6800   14.7820   14.7060 C.2   168  TYR168      0.2264
    204  O         -0.0580   15.7340   15.1860 O.2   168  TYR168     -0.2867
    205  CB        -2.4120   13.5540   15.9640 C.3   168  TYR168      0.0534
    206  CG        -2.7980   12.3400   16.7730 C.ar  168  TYR168     -0.0201
    207  CD1       -2.3890   12.2040   18.1040 C.ar  168  TYR168     -0.0009
    208  CD2       -3.5420   11.3050   16.1920 C.ar  168  TYR168     -0.0009
    209  CE1       -2.7360   11.0840   18.8540 C.ar  168  TYR168      0.0417
    210  CE2       -3.8870   10.1760   16.9200 C.ar  168  TYR168      0.0417
    211  CZ        -3.4800   10.0730   18.2480 C.ar  168  TYR168      0.1957
    212  OH        -3.8320    8.9680   18.9640 O.3   168  TYR168     -0.2866
@<TRIPOS>BOND
     1    43    44    2
     2    43    42    1
     3    37    36    2
     4     1     7    1
     5     1     2    1
     6     4     3    2
     7    42    45    1
     8    42    41    1
     9     3     2    1
    10    36    41   am
    11    36    35    1
    12    55    56    1
    13     7     6    1
    14     2     5    1
    15    45    46    1
    16    40    38    1
    17    59    56    1
    18    59    60    1
    19    32    31    2
    20   189   190    1
    21   192   191    2
    22    47    46   ar
    23    47    49   ar
    24    56    57    1
    25    46    48   ar
    26    35    38    1
    27    35    34    1
    28    49    50   ar
    29     6     5    1
    30    38    39    1
    31   191   190    1
    32    31    34   am
    33    31    30    1
    34   190   193    1
    35    48    50   ar
    36    48    51   ar
    37    33    30    1
    38    50    52   ar
    39    51    53   ar
    40    57    58    2
    41    57    61   am
    42   193   194    1
    43    30    29    1
    44   182   181    2
    45    52    54   ar
    46    61    62    1
    47    53    54   ar
    48    29    24   am
    49   203   204    2
    50   203   202    1
    51    66    68    1
    52    66    65    1
    53   181   180    1
    54   194   196   ar
    55   194   195   ar
    56   183   180    1
    57   183   184    1
    58   196   198   ar
    59   202   205    1
    60   202   201    1
    61   110   108    1
    62   205   206    1
    63    62    65    1
    64    62    63    1
    65    24    23    1
    66    24    25    2
    67    65    67    1
    68   180   179    1
    69   208   206   ar
    70   208   210   ar
    71    19    18    2
    72   184   186   ar
    73   184   185   ar
    74    23    26    1
    75    23    22    1
    76   195   197   ar
    77   186   188   ar
    78   109   108    1
    79    64    63    2
    80   206   207   ar
    81   198   199   ar
    82    26    27    1
    83   210   211   ar
    84    63    69   am
    85   108   105    1
    86   185   187   ar
    87    18    22   am
    88    18    17    1
    89   188   187   ar
    90    22    28    1
    91   197   199   ar
    92   199   200    1
    93    69    70    1
    94   103   101    1
    95   207   209   ar
    96    27    28    1
    97   211   209   ar
    98   211   212    1
    99   105   104    1
   100   105   106    1
   101    16    17    1
   102    21    20    1
   103    17    20    1
   104    11    10    2
   105   100    99    2
   106    70    71    1
   107    70    73    1
   108   127   126    1
   109   106   107    2
   110   106   111   am
   111   101   102    1
   112   101    98    1
   113    99    98    1
   114    71    72    2
   115    10     9    1
   116   111   112    1
   117    73    74    1
   118    98    97    1
   119     8     9    1
   120   126   125    1
   121   126   128    1
   122    80    79    1
   123    80    81    1
   124   125   122    1
   125   112   115    1
   126   112   113    1
   127    85    83    1
   128     9    12    1
   129    82    83    2
   130    82    81    1
   131   115   116    1
   132    79    76    1
   133    12    13    1
   134   130   129    1
   135   130   131    1
   136    97    88   am
   137    83    84    1
   138   129   123   am
   139   117   116   ar
   140   117   119   ar
   141   123   122    1
   142   123   124    2
   143    15    13   am
   144   122   121    1
   145   113   114    2
   146   116   118   ar
   147    13    14    2
   148    89    88    2
   149    78    77    2
   150    88    87    1
   151   173   172    2
   152    76    75    1
   153    76    77    1
   154   119   120   ar
   155   132   131    2
   156   131   133   am
   157   178   177    1
   158    77    86   am
   159   172   171    1
   160   118   120   ar
   161   176   177    1
   162   176   175    1
   163   174   171    1
   164   174   175    1
   165    86    87    1
   166    87    90    1
   167   133   134    1
   168   171   170    1
   169   138   137    1
   170    93    95   ar
   171    93    91   ar
   172    90    91    1
   173    95    96   ar
   174    91    92   ar
   175   134   137    1
   176   134   135    1
   177   142   141    2
   178    96    94   ar
   179    92    94   ar
   180   139   135   am
   181   139   140    1
   182   155   156    1
   183   155   151   am
   184   135   136    2
   185   141   140    1
   186   141   149   am
   187   156   157    1
   188   168   167    1
   189   150   151    1
   190   150   149    1
   191   150   153    1
   192   169   167    1
   193   140   143    1
   194   154   153    1
   195   151   152    2
   196   167   166    2
   197   143   144    1
   198   146   144   ar
   199   146   148   ar
   200   157   159   am
   201   157   158    2
   202   144   145   ar
   203   159   160    1
   204   148   147   ar
   205   166   165    1
   206   164   165    1
   207   164   163    1
   208   160   163    1
   209   160   161    1
   210   145   147   ar
   211   161   162    2
