@<TRIPOS>MOLECULE
tmp/3zogA01.pdb
 122 122 0 0 0
SMALL
GASTEIGER

@<TRIPOS>ATOM
      1  N         20.5750   32.7750  -12.1770 N.3     1  HIS1       -0.1241
      2  CA        21.5160   31.6920  -11.7690 C.3     1  HIS1        0.1621
      3  C         22.6670   32.2910  -10.9620 C.2     1  HIS1        0.2264
      4  O         23.1020   33.4160  -11.2330 O.2     1  HIS1       -0.2867
      5  CB        22.0540   30.9620  -13.0080 C.3     1  HIS1        0.0745
      6  CG        22.2880   29.4940  -12.8040 C.ar    1  HIS1        0.0817
      7  ND1       23.4150   28.9950  -12.1870 N.ar    1  HIS1       -0.2268
      8  CD2       21.5450   28.4160  -13.1540 C.ar    1  HIS1        0.1154
      9  CE1       23.3530   27.6750  -12.1570 C.ar    1  HIS1        0.1986
     10  NE2       22.2290   27.2980  -12.7400 N.ar    1  HIS1       -0.2212
     11  N         21.4280   29.5630  -21.6050 N.3    12  TYR12      -0.1227
     12  CA        20.4660   28.4600  -21.4560 C.3    12  TYR12       0.1736
     13  C         18.9940   28.8720  -21.4750 C.2    12  TYR12       0.2595
     14  O         18.1230   28.0420  -21.7930 O.2    12  TYR12      -0.2718
     15  CB        20.8010   27.5900  -20.2430 C.3    12  TYR12       0.0548
     16  CG        20.3830   28.1100  -18.8930 C.ar   12  TYR12      -0.0200
     17  CD1       19.0350   28.2080  -18.5370 C.ar   12  TYR12      -0.0009
     18  CD2       21.3400   28.4160  -17.9210 C.ar   12  TYR12      -0.0009
     19  CE1       18.6450   28.6560  -17.2850 C.ar   12  TYR12       0.0417
     20  CE2       20.9590   28.8510  -16.6560 C.ar   12  TYR12       0.0417
     21  CZ        19.6090   28.9720  -16.3480 C.ar   12  TYR12       0.1957
     22  OH        19.2200   29.4020  -15.1080 O.3    12  TYR12      -0.2866
     23  N         18.6990   30.1300  -21.1490 N.am   13  ARG13      -0.1980
     24  CA        17.3090   30.5860  -21.1560 C.3    13  ARG13       0.1597
     25  C         16.6990   30.5850  -22.5620 C.2    13  ARG13       0.2287
     26  O         15.4740   30.6790  -22.7090 O.2    13  ARG13      -0.2864
     27  CB        17.1570   31.9600  -20.4910 C.3    13  ARG13       0.0334
     28  CG        15.7290   32.3210  -20.1000 C.3    13  ARG13       0.0492
     29  CD        15.2130   31.4570  -18.9560 C.3    13  ARG13       0.2205
     30  NE        15.9370   31.7200  -17.7170 N.pl3  13  ARG13      -0.0865
     31  CZ        15.9770   30.8880  -16.6820 C.cat  13  ARG13       0.5346
     32  NH1       15.3390   29.7280  -16.7390 N.pl3  13  ARG13       0.1354
     33  NH2       16.6650   31.2130  -15.5970 N.pl3  13  ARG13       0.1354
     34  N         14.2500   27.8390  -22.9430 N.3    16  TYR16      -0.1241
     35  CA        13.0860   27.9170  -22.0620 C.3    16  TYR16       0.1605
     36  C         11.8550   28.4800  -22.7940 C.2    16  TYR16       0.2264
     37  O         12.0240   29.1650  -23.7920 O.2    16  TYR16      -0.2867
     38  CB        13.4400   28.7390  -20.8160 C.3    16  TYR16       0.0534
     39  CG        14.1600   27.8900  -19.7830 C.ar   16  TYR16      -0.0201
     40  CD1       15.4540   27.4150  -20.0240 C.ar   16  TYR16      -0.0009
     41  CD2       13.5240   27.5230  -18.5940 C.ar   16  TYR16      -0.0009
     42  CE1       16.1030   26.6080  -19.0940 C.ar   16  TYR16       0.0417
     43  CE2       14.1690   26.7280  -17.6510 C.ar   16  TYR16       0.0417
     44  CZ        15.4580   26.2740  -17.9110 C.ar   16  TYR16       0.1957
     45  OH        16.0740   25.4580  -16.9880 O.3    16  TYR16      -0.2866
     46  N         14.1070   19.3550  -11.2300 N.3    36  ALA36      -0.1231
     47  CA        15.0050   19.2980  -12.3780 C.3    36  ALA36       0.1694
     48  C         14.2940   19.6450  -13.6600 C.2    36  ALA36       0.2592
     49  O         13.2810   19.0360  -13.9990 O.2    36  ALA36      -0.2718
     50  CB        15.6040   17.9080  -12.5160 C.3    36  ALA36       0.0304
     51  N         14.8810   20.5760  -14.3930 N.am   37  ASP37      -0.1960
     52  CA        14.4130   20.9560  -15.7180 C.3    37  ASP37       0.1840
     53  C         15.2070   20.1970  -16.7600 C.2    37  ASP37       0.2622
     54  O         14.7530   19.9930  -17.8550 O.2    37  ASP37      -0.2715
     55  CB        14.7010   22.4400  -15.9710 C.3    37  ASP37       0.1450
     56  CG        13.7750   23.3770  -15.2410 C.2    37  ASP37       0.3671
     57  OD1       12.7120   22.9520  -14.6970 O.co2  37  ASP37      -0.2456
     58  OD2       14.1620   24.5740  -15.2070 O.co2  37  ASP37      -0.2456
     59  N         16.4370   19.8020  -16.4440 N.am   38  TRP38      -0.1974
     60  CA        17.3510   19.3750  -17.4990 C.3    38  TRP38       0.1640
     61  C         17.3050   17.8680  -17.6440 C.2    38  TRP38       0.2290
     62  O         18.2240   17.1410  -17.2540 O.2    38  TRP38      -0.2864
     63  CB        18.7600   19.8920  -17.2460 C.3    38  TRP38       0.0576
     64  CG        18.8380   21.3920  -17.2980 C.ar   38  TRP38       0.0006
     65  CD1       17.8470   22.2570  -17.6710 C.ar   38  TRP38       0.0946
     66  CD2       20.0060   22.2120  -17.0510 C.ar   38  TRP38       0.0152
     67  NE1       18.2990   23.5600  -17.6220 N.ar   38  TRP38      -0.2442
     68  CE2       19.6190   23.5610  -17.2480 C.ar   38  TRP38       0.0810
     69  CE3       21.3290   21.9330  -16.6670 C.ar   38  TRP38       0.0012
     70  CZ2       20.5020   24.6290  -17.0780 C.ar   38  TRP38       0.0191
     71  CZ3       22.2230   23.0120  -16.5070 C.ar   38  TRP38       0.0001
     72  CH2       21.7960   24.3330  -16.7060 C.ar   38  TRP38       0.0015
     73  N         20.6340   16.0600  -16.0130 N.3    52  ALA52      -0.1245
     74  CA        21.8480   16.8150  -15.6780 C.3    52  ALA52       0.1562
     75  C         21.7430   17.2960  -14.2370 C.2    52  ALA52       0.2260
     76  O         20.8350   18.0600  -13.8760 O.2    52  ALA52      -0.2867
     77  CB        21.9900   18.0030  -16.6230 C.3    52  ALA52       0.0290
     78  N         24.5070   19.0800   -5.6250 N.3    57  ARG57      -0.1245
     79  CA        23.1910   18.6390   -5.1540 C.3    57  ARG57       0.1563
     80  C         23.3630   17.3990   -4.2990 C.2    57  ARG57       0.2260
     81  O         24.1480   16.5200   -4.6470 O.2    57  ARG57      -0.2867
     82  CB        22.2700   18.2690   -6.3260 C.3    57  ARG57       0.0307
     83  CG        22.2460   19.2550   -7.4940 C.3    57  ARG57       0.0489
     84  CD        21.8150   20.6530   -7.0790 C.3    57  ARG57       0.2205
     85  NE        21.7930   21.5290   -8.2430 N.pl3  57  ARG57      -0.0865
     86  CZ        22.1490   22.8080   -8.2390 C.cat  57  ARG57       0.5346
     87  NH1       22.5400   23.4120   -7.1160 N.pl3  57  ARG57       0.1354
     88  NH2       22.1110   23.4940   -9.3600 N.pl3  57  ARG57       0.1354
     89  N         27.8540   20.1360  -14.6750 N.3   132  HIS132     -0.1241
     90  CA        26.8800   19.1030  -14.2580 C.3   132  HIS132      0.1621
     91  C         27.3340   17.7130  -14.6610 C.2   132  HIS132      0.2264
     92  O         28.1180   17.5580  -15.6040 O.2   132  HIS132     -0.2867
     93  CB        25.5120   19.3420  -14.9210 C.3   132  HIS132      0.0745
     94  CG        24.7290   20.4760  -14.3330 C.ar  132  HIS132      0.0817
     95  ND1       25.1570   21.7870  -14.3810 N.ar  132  HIS132     -0.2268
     96  CD2       23.5320   20.4930  -13.7040 C.ar  132  HIS132      0.1154
     97  CE1       24.2630   22.5590  -13.7870 C.ar  132  HIS132      0.1986
     98  NE2       23.2530   21.7990  -13.3890 N.ar  132  HIS132     -0.2212
     99  N          8.7560   25.5190  -16.5450 N.3   163  HIS163     -0.1241
    100  CA         9.4950   26.5810  -15.8840 C.3   163  HIS163      0.1621
    101  C          9.8220   27.6770  -16.8940 C.2   163  HIS163      0.2264
    102  O         10.3620   27.3840  -17.9390 O.2   163  HIS163     -0.2867
    103  CB        10.7870   25.9600  -15.3290 C.3   163  HIS163      0.0745
    104  CG        11.5060   26.8090  -14.3360 C.ar  163  HIS163      0.0817
    105  ND1       12.8160   26.5680  -13.9760 N.ar  163  HIS163     -0.2268
    106  CD2       11.1110   27.8940  -13.6270 C.ar  163  HIS163      0.1154
    107  CE1       13.1960   27.4680  -13.0860 C.ar  163  HIS163      0.1986
    108  NE2       12.1810   28.2820  -12.8580 N.ar  163  HIS163     -0.2212
    109  N         13.3460   32.0770  -13.2380 N.3   166  TRP166     -0.1241
    110  CA        13.5480   31.6070  -11.8570 C.3   166  TRP166      0.1605
    111  C         12.3220   31.1570  -11.0410 C.2   166  TRP166      0.2264
    112  O         12.2030   29.9690  -10.7290 O.2   166  TRP166     -0.2867
    113  CB        14.4650   32.5250  -11.0280 C.3   166  TRP166      0.0550
    114  CG        14.8890   31.8620   -9.7140 C.ar  166  TRP166      0.0003
    115  CD1       14.8720   32.4230   -8.4660 C.ar  166  TRP166      0.0946
    116  CD2       15.3440   30.4980   -9.5340 C.ar  166  TRP166      0.0152
    117  NE1       15.3050   31.5100   -7.5300 N.ar  166  TRP166     -0.2442
    118  CE2       15.5990   30.3230   -8.1530 C.ar  166  TRP166      0.0810
    119  CE3       15.5640   29.4120  -10.4080 C.ar  166  TRP166      0.0012
    120  CZ2       16.0640   29.1020   -7.6180 C.ar  166  TRP166      0.0191
    121  CZ3       16.0250   28.1980   -9.8780 C.ar  166  TRP166      0.0001
    122  CH2       16.2710   28.0570   -8.4940 C.ar  166  TRP166      0.0015
@<TRIPOS>BOND
     1    37    36    2
     2    34    35    1
     3    36    35    1
     4    26    25    2
     5    25    24    1
     6    35    38    1
     7    14    13    2
     8    11    12    1
     9    13    12    1
    10    13    23   am
    11    12    15    1
    12    24    23    1
    13    24    27    1
    14    38    39    1
    15    27    28    1
    16    15    16    1
    17    28    29    1
    18    40    39   ar
    19    40    42   ar
    20    39    41   ar
    21    42    44   ar
    22    29    30    1
    23    16    17   ar
    24    16    18   ar
    25    41    43   ar
    26    17    19   ar
    27   102   101    2
    28    18    20   ar
    29    44    43   ar
    30    44    45    1
    31    54    53    2
    32    30    31    2
    33    65    67   ar
    34    65    64   ar
    35    61    60    1
    36    61    62    2
    37    67    68   ar
    38    60    63    1
    39    60    59    1
    40    64    63    1
    41    64    66   ar
    42    19    21   ar
    43    68    70   ar
    44    68    66   ar
    45    70    72   ar
    46    66    69   ar
    47   101   100    1
    48    53    59   am
    49    53    52    1
    50    32    31    1
    51    72    71   ar
    52    31    33    1
    53    69    71   ar
    54    20    21   ar
    55    77    74    1
    56    99   100    1
    57    21    22    1
    58    73    74    1
    59    55    52    1
    60    55    56    1
    61   100   103    1
    62    52    51    1
    63    74    75    1
    64    92    91    2
    65   103   104    1
    66    56    58   ar
    67    56    57   ar
    68    93    94    1
    69    93    90    1
    70    89    90    1
    71    91    90    1
    72    51    48   am
    73    95    94   ar
    74    95    97   ar
    75   104   105   ar
    76   104   106   ar
    77    94    96   ar
    78    75    76    2
    79    49    48    2
    80   105   107   ar
    81    97    98   ar
    82    96    98   ar
    83    48    47    1
    84   106   108   ar
    85   109   110    1
    86     8     6   ar
    87     8    10   ar
    88   107   108   ar
    89     5     6    1
    90     5     2    1
    91     6     7   ar
    92    10     9   ar
    93    50    47    1
    94    47    46    1
    95     7     9   ar
    96     1     2    1
    97   110   111    1
    98   110   113    1
    99     2     3    1
   100     4     3    2
   101   111   112    2
   102   113   114    1
   103   119   121   ar
   104   119   116   ar
   105   121   122   ar
   106   114   116   ar
   107   114   115   ar
   108   116   118   ar
   109    88    86    1
   110   122   120   ar
   111   115   117   ar
   112    85    86    2
   113    85    84    1
   114    86    87    1
   115   118   120   ar
   116   118   117   ar
   117    83    84    1
   118    83    82    1
   119    82    79    1
   120    78    79    1
   121    79    80    1
   122    81    80    2
