@<TRIPOS>MOLECULE
tmp/3zogA00.pdb
 219 216 0 0 0
SMALL
GASTEIGER

@<TRIPOS>ATOM
      1  N          9.3920   21.0220  -16.0380 N.3    20  THR20      -0.1218
      2  CA         9.9890   20.7910  -14.7220 C.3    20  THR20       0.1862
      3  C          9.5550   19.4290  -14.1840 C.2    20  THR20       0.2287
      4  O          8.3720   19.0960  -14.1930 O.2    20  THR20      -0.2866
      5  CB         9.5930   21.9020  -13.7340 C.3    20  THR20       0.1770
      6  OG1       10.0860   23.1380  -14.2380 O.3    20  THR20      -0.2211
      7  CG2       10.1880   21.6510  -12.3490 C.3    20  THR20       0.0375
      8  N         15.3770   11.5480   -0.8570 N.3    32  ASN32      -0.1240
      9  CA        15.4520   12.9630   -1.1730 C.3    32  ASN32       0.1653
     10  C         14.6850   13.2690   -2.4570 C.2    32  ASN32       0.2266
     11  O         14.4290   12.3720   -3.2550 O.2    32  ASN32      -0.2867
     12  CB        16.9130   13.3610   -1.3660 C.3    32  ASN32       0.1155
     13  CG        17.1160   14.8650   -1.3650 C.2    32  ASN32       0.2627
     14  OD1       16.5290   15.5760   -0.5630 O.2    32  ASN32      -0.2716
     15  ND2       17.9610   15.3580   -2.2680 N.am   32  ASN32      -0.0877
     16  N         14.5820   16.5250   -5.5100 N.3    34  MET34      -0.1230
     17  CA        14.9140   17.8690   -6.0040 C.3    34  MET34       0.1702
     18  C         14.1310   18.1500   -7.2930 C.2    34  MET34       0.2592
     19  O         13.5980   17.2140   -7.9180 O.2    34  MET34      -0.2718
     20  CB        16.4210   18.0220   -6.2650 C.3    34  MET34       0.0401
     21  CG        16.9090   17.3480   -7.5320 C.3    34  MET34       0.0596
     22  SD        18.5890   17.9140   -7.9100 S.3    34  MET34      -0.1393
     23  CE        18.5650   17.7420   -9.6920 C.3    34  MET34       0.0692
     24  N         14.0260   19.4210   -7.6580 N.am   35  ALA35      -0.1966
     25  CA        13.4580   19.8000   -8.9520 C.3    35  ALA35       0.1728
     26  C         14.5260   19.7170  -10.0200 C.2    35  ALA35       0.2616
     27  O         15.7120   19.9980   -9.7540 O.2    35  ALA35      -0.2715
     28  CB        12.8900   21.2230   -8.9040 C.3    35  ALA35       0.0334
     29  N         14.1070   19.3550  -11.2300 N.am   36  ALA36      -0.1963
     30  CA        15.0050   19.2980  -12.3780 C.3    36  ALA36       0.1728
     31  C         14.2940   19.6450  -13.6600 C.2    36  ALA36       0.2616
     32  O         13.2810   19.0360  -13.9990 O.2    36  ALA36      -0.2715
     33  CB        15.6040   17.9080  -12.5160 C.3    36  ALA36       0.0334
     34  N         14.8810   20.5760  -14.3930 N.am   37  ASP37      -0.1957
     35  CA        14.4130   20.9560  -15.7180 C.3    37  ASP37       0.1840
     36  C         15.2070   20.1970  -16.7600 C.2    37  ASP37       0.2622
     37  O         14.7530   19.9930  -17.8550 O.2    37  ASP37      -0.2715
     38  CB        14.7010   22.4400  -15.9710 C.3    37  ASP37       0.1450
     39  CG        13.7750   23.3770  -15.2410 C.2    37  ASP37       0.3671
     40  OD1       12.7120   22.9520  -14.6970 O.co2  37  ASP37      -0.2456
     41  OD2       14.1620   24.5740  -15.2070 O.co2  37  ASP37      -0.2456
     42  N         16.4370   19.8020  -16.4440 N.am   38  TRP38      -0.1974
     43  CA        17.3510   19.3750  -17.4990 C.3    38  TRP38       0.1640
     44  C         17.3050   17.8680  -17.6440 C.2    38  TRP38       0.2290
     45  O         18.2240   17.1410  -17.2540 O.2    38  TRP38      -0.2864
     46  CB        18.7600   19.8920  -17.2460 C.3    38  TRP38       0.0576
     47  CG        18.8380   21.3920  -17.2980 C.ar   38  TRP38       0.0006
     48  CD1       17.8470   22.2570  -17.6710 C.ar   38  TRP38       0.0946
     49  CD2       20.0060   22.2120  -17.0510 C.ar   38  TRP38       0.0152
     50  NE1       18.2990   23.5600  -17.6220 N.ar   38  TRP38      -0.2442
     51  CE2       19.6190   23.5610  -17.2480 C.ar   38  TRP38       0.0810
     52  CE3       21.3290   21.9330  -16.6670 C.ar   38  TRP38       0.0012
     53  CZ2       20.5020   24.6290  -17.0780 C.ar   38  TRP38       0.0191
     54  CZ3       22.2230   23.0120  -16.5070 C.ar   38  TRP38       0.0001
     55  CH2       21.7960   24.3330  -16.7060 C.ar   38  TRP38       0.0015
     56  N         20.6340   16.0600  -16.0130 N.3    52  ALA52      -0.1231
     57  CA        21.8480   16.8150  -15.6780 C.3    52  ALA52       0.1694
     58  C         21.7430   17.2960  -14.2370 C.2    52  ALA52       0.2592
     59  O         20.8350   18.0600  -13.8760 O.2    52  ALA52      -0.2718
     60  CB        21.9900   18.0030  -16.6230 C.3    52  ALA52       0.0304
     61  N         22.6620   16.8460  -13.3950 N.am   53  VAL53      -0.1966
     62  CA        22.6010   17.1330  -11.9640 C.3    53  VAL53       0.1727
     63  C         23.9570   17.6850  -11.5190 C.2    53  VAL53       0.2616
     64  O         24.9880   17.0320  -11.7390 O.2    53  VAL53      -0.2715
     65  CB        22.3230   15.8430  -11.1520 C.3    53  VAL53       0.0290
     66  CG1       22.2960   16.1210   -9.6500 C.3    53  VAL53       0.0023
     67  CG2       21.0270   15.1700  -11.6070 C.3    53  VAL53       0.0023
     68  N         23.9680   18.8480  -10.8910 N.am   54  ALA54      -0.1977
     69  CA        25.2440   19.4530  -10.4550 C.3    54  ALA54       0.1597
     70  C         25.8210   18.6330   -9.3000 C.2    54  ALA54       0.2287
     71  O         25.0630   18.1670   -8.4400 O.2    54  ALA54      -0.2864
     72  CB        25.0410   20.9070  -10.0450 C.3    54  ALA54       0.0319
     73  N         27.0890   19.5360   -6.6760 N.3    56  LYS56      -0.1231
     74  CA        26.7430   20.0790   -5.3590 C.3    56  LYS56       0.1693
     75  C         25.3670   19.6730   -4.7970 C.2    56  LYS56       0.2592
     76  O         25.1010   19.8740   -3.6130 O.2    56  LYS56      -0.2718
     77  CB        26.9240   21.5970   -5.3140 C.3    56  LYS56       0.0285
     78  CG        25.7980   22.3820   -5.9480 C.3    56  LYS56       0.0035
     79  CD        25.8640   23.8640   -5.5930 C.3    56  LYS56       0.0206
     80  CE        27.0360   24.5720   -6.2630 C.3    56  LYS56       0.1093
     81  NZ        28.2400   24.6290   -5.3940 N.3    56  LYS56      -0.1314
     82  N         24.5070   19.0800   -5.6250 N.am   57  ARG57      -0.1966
     83  CA        23.1910   18.6390   -5.1540 C.3    57  ARG57       0.1729
     84  C         23.3630   17.3990   -4.2990 C.2    57  ARG57       0.2617
     85  O         24.1480   16.5200   -4.6470 O.2    57  ARG57      -0.2715
     86  CB        22.2700   18.2690   -6.3260 C.3    57  ARG57       0.0348
     87  CG        22.2460   19.2550   -7.4940 C.3    57  ARG57       0.0492
     88  CD        21.8150   20.6530   -7.0790 C.3    57  ARG57       0.2205
     89  NE        21.7930   21.5290   -8.2430 N.pl3  57  ARG57      -0.0865
     90  CZ        22.1490   22.8080   -8.2390 C.cat  57  ARG57       0.5346
     91  NH1       22.5400   23.4120   -7.1160 N.pl3  57  ARG57       0.1354
     92  NH2       22.1110   23.4940   -9.3600 N.pl3  57  ARG57       0.1354
     93  N         22.6210   17.3210   -3.1930 N.am   58  THR58      -0.1937
     94  CA        22.5560   16.0820   -2.4070 C.3    58  THR58       0.2028
     95  C         22.1040   14.9260   -3.2780 C.2    58  THR58       0.2642
     96  O         22.6000   13.8210   -3.1650 O.2    58  THR58      -0.2714
     97  CB        21.5660   16.2340   -1.2340 C.3    58  THR58       0.1808
     98  OG1       21.7990   17.4850   -0.5920 O.3    58  THR58      -0.2208
     99  CG2       21.7340   15.0820   -0.2340 C.3    58  THR58       0.0379
    100  N         21.1340   15.1910   -4.1530 N.am   59  THR59      -0.1950
    101  CA        20.6920   14.2450   -5.1610 C.3    59  THR59       0.1897
    102  C         21.8630   13.5950   -5.9280 C.2    59  THR59       0.2313
    103  O         21.8340   12.3890   -6.1810 O.2    59  THR59      -0.2863
    104  CB        19.7260   14.9560   -6.1430 C.3    59  THR59       0.1794
    105  OG1       18.6130   15.4570   -5.3970 O.3    59  THR59      -0.2208
    106  CG2       19.2310   14.0100   -7.2360 C.3    59  THR59       0.0378
    107  N          7.2130   21.5060   -5.4470 N.3    82  VAL82      -0.1231
    108  CA         8.2860   21.6190   -6.4560 C.3    82  VAL82       0.1692
    109  C          9.2820   22.7100   -6.0510 C.2    82  VAL82       0.2592
    110  O         10.5150   22.5260   -6.0990 O.2    82  VAL82      -0.2718
    111  CB         7.7100   21.9140   -7.8590 C.3    82  VAL82       0.0266
    112  CG1        8.8310   22.2600   -8.8400 C.3    82  VAL82       0.0020
    113  CG2        6.9020   20.7310   -8.3550 C.3    82  VAL82       0.0020
    114  N          8.7410   23.8470   -5.6210 N.am   83  TRP83      -0.1976
    115  CA         9.5670   24.9510   -5.1670 C.3    83  TRP83       0.1640
    116  C         10.4210   24.5800   -3.9610 C.2    83  TRP83       0.2290
    117  O         11.6230   24.8860   -3.9350 O.2    83  TRP83      -0.2864
    118  CB         8.6980   26.1910   -4.8960 C.3    83  TRP83       0.0576
    119  CG         9.5130   27.4020   -4.7210 C.ar   83  TRP83       0.0006
    120  CD1        9.6410   28.1440   -3.5810 C.ar   83  TRP83       0.0946
    121  CD2       10.3830   27.9930   -5.6950 C.ar   83  TRP83       0.0152
    122  NE1       10.5200   29.1800   -3.7990 N.ar   83  TRP83      -0.2442
    123  CE2       10.9880   29.1120   -5.0850 C.ar   83  TRP83       0.0810
    124  CE3       10.6890   27.7010   -7.0370 C.ar   83  TRP83       0.0012
    125  CZ2       11.8870   29.9430   -5.7660 C.ar   83  TRP83       0.0191
    126  CZ3       11.5830   28.5250   -7.7160 C.ar   83  TRP83       0.0001
    127  CH2       12.1730   29.6320   -7.0750 C.ar   83  TRP83       0.0015
    128  N         11.3370   21.4570   -3.2210 N.3    85  ALA85      -0.1231
    129  CA        12.3270   20.5200   -3.7870 C.3    85  ALA85       0.1694
    130  C         13.4650   21.2450   -4.5020 C.2    85  ALA85       0.2593
    131  O         14.6000   20.7680   -4.4900 O.2    85  ALA85      -0.2718
    132  CB        11.6580   19.5330   -4.7360 C.3    85  ALA85       0.0304
    133  N         13.1670   22.3850   -5.1180 N.am   86  GLY86      -0.1942
    134  CA        14.1650   23.1020   -5.9120 C.3    86  GLY86       0.2014
    135  C         14.9130   24.1880   -5.1640 C.2    86  GLY86       0.2640
    136  O         15.7400   24.8780   -5.7530 O.2    86  GLY86      -0.2714
    137  N         14.6050   24.3540   -3.8740 N.am   87  THR87      -0.1936
    138  CA        15.2470   25.4090   -3.0540 C.3    87  THR87       0.2028
    139  C         15.8700   24.8740   -1.7570 C.2    87  THR87       0.2642
    140  O         16.9360   25.3380   -1.3530 O.2    87  THR87      -0.2714
    141  CB        14.2890   26.5790   -2.7200 C.3    87  THR87       0.1808
    142  OG1       13.0760   26.0620   -2.1460 O.3    87  THR87      -0.2208
    143  CG2       13.9620   27.3870   -3.9480 C.3    87  THR87       0.0379
    144  N         15.2360   23.9010   -1.1060 N.am   88  LYS88      -0.1963
    145  CA        15.8010   23.3590    0.1300 C.3    88  LYS88       0.1728
    146  C         16.7500   22.2130   -0.2070 C.2    88  LYS88       0.2616
    147  O         16.7080   21.6660   -1.3180 O.2    88  LYS88      -0.2715
    148  CB        14.7100   22.9170    1.1180 C.3    88  LYS88       0.0311
    149  CG        13.7550   24.0270    1.5570 C.3    88  LYS88       0.0038
    150  CD        14.4930   25.2230    2.1590 C.3    88  LYS88       0.0206
    151  CE        13.5360   26.3650    2.4830 C.3    88  LYS88       0.1093
    152  NZ        12.5630   25.9710    3.5350 N.3    88  LYS88      -0.1314
    153  N         17.6110   21.8610    0.7460 N.am   89  LYS89      -0.1963
    154  CA        18.6730   20.8820    0.4940 C.3    89  LYS89       0.1728
    155  C         18.5220   19.6530    1.3620 C.2    89  LYS89       0.2616
    156  O         18.4110   19.7610    2.5840 O.2    89  LYS89      -0.2715
    157  CB        20.0500   21.5090    0.7560 C.3    89  LYS89       0.0311
    158  CG        20.2340   22.9110    0.1880 C.3    89  LYS89       0.0038
    159  CD        20.2510   22.8720   -1.3250 C.3    89  LYS89       0.0206
    160  CE        20.3970   24.2570   -1.9290 C.3    89  LYS89       0.1093
    161  NZ        19.9650   24.2420   -3.3580 N.3    89  LYS89      -0.1314
    162  N         18.4960   18.4880    0.7380 N.am   90  GLY90      -0.1955
    163  CA        18.5840   17.2500    1.4720 C.3    90  GLY90       0.1869
    164  C         17.2800   16.7400    2.0380 C.2    90  GLY90       0.2309
    165  O         16.2710   17.4500    2.0420 O.2    90  GLY90      -0.2863
    166  N         14.0240   18.2780    3.8360 N.3    93  LYS93      -0.1245
    167  CA        13.0040   19.0860    3.1670 C.3    93  LYS93       0.1561
    168  C         11.6360   18.3850    3.0450 C.2    93  LYS93       0.2260
    169  O         10.6160   19.0550    2.8860 O.2    93  LYS93      -0.2867
    170  CB        13.4830   19.5480    1.7790 C.3    93  LYS93       0.0271
    171  CG        13.4580   18.4390    0.7340 C.3    93  LYS93       0.0035
    172  CD        13.8860   18.9470   -0.6310 C.3    93  LYS93       0.0206
    173  CE        15.3960   18.8580   -0.7490 C.3    93  LYS93       0.1093
    174  NZ        15.8230   19.1330   -2.1540 N.3    93  LYS93      -0.1314
    175  N         27.8540   20.1360  -14.6750 N.3   132  HIS132     -0.1241
    176  CA        26.8800   19.1030  -14.2580 C.3   132  HIS132      0.1621
    177  C         27.3340   17.7130  -14.6610 C.2   132  HIS132      0.2264
    178  O         28.1180   17.5580  -15.6040 O.2   132  HIS132     -0.2867
    179  CB        25.5120   19.3420  -14.9210 C.3   132  HIS132      0.0745
    180  CG        24.7290   20.4760  -14.3330 C.ar  132  HIS132      0.0817
    181  ND1       25.1570   21.7870  -14.3810 N.ar  132  HIS132     -0.2268
    182  CD2       23.5320   20.4930  -13.7040 C.ar  132  HIS132      0.1154
    183  CE1       24.2630   22.5590  -13.7870 C.ar  132  HIS132      0.1986
    184  NE2       23.2530   21.7990  -13.3890 N.ar  132  HIS132     -0.2212
    185  N          8.7560   25.5190  -16.5450 N.3   163  HIS163     -0.1241
    186  CA         9.4950   26.5810  -15.8840 C.3   163  HIS163      0.1621
    187  C          9.8220   27.6770  -16.8940 C.2   163  HIS163      0.2264
    188  O         10.3620   27.3840  -17.9390 O.2   163  HIS163     -0.2867
    189  CB        10.7870   25.9600  -15.3290 C.3   163  HIS163      0.0745
    190  CG        11.5060   26.8090  -14.3360 C.ar  163  HIS163      0.0817
    191  ND1       12.8160   26.5680  -13.9760 N.ar  163  HIS163     -0.2268
    192  CD2       11.1110   27.8940  -13.6270 C.ar  163  HIS163      0.1154
    193  CE1       13.1960   27.4680  -13.0860 C.ar  163  HIS163      0.1986
    194  NE2       12.1810   28.2820  -12.8580 N.ar  163  HIS163     -0.2212
    195  N         13.3460   32.0770  -13.2380 N.3   166  TRP166     -0.1241
    196  CA        13.5480   31.6070  -11.8570 C.3   166  TRP166      0.1605
    197  C         12.3220   31.1570  -11.0410 C.2   166  TRP166      0.2264
    198  O         12.2030   29.9690  -10.7290 O.2   166  TRP166     -0.2867
    199  CB        14.4650   32.5250  -11.0280 C.3   166  TRP166      0.0550
    200  CG        14.8890   31.8620   -9.7140 C.ar  166  TRP166      0.0003
    201  CD1       14.8720   32.4230   -8.4660 C.ar  166  TRP166      0.0946
    202  CD2       15.3440   30.4980   -9.5340 C.ar  166  TRP166      0.0152
    203  NE1       15.3050   31.5100   -7.5300 N.ar  166  TRP166     -0.2442
    204  CE2       15.5990   30.3230   -8.1530 C.ar  166  TRP166      0.0810
    205  CE3       15.5640   29.4120  -10.4080 C.ar  166  TRP166      0.0012
    206  CZ2       16.0640   29.1020   -7.6180 C.ar  166  TRP166      0.0191
    207  CZ3       16.0250   28.1980   -9.8780 C.ar  166  TRP166      0.0001
    208  CH2       16.2710   28.0570   -8.4940 C.ar  166  TRP166      0.0015
    209  N          6.3630   29.9040  -13.3160 N.3   169  PHE169     -0.1241
    210  CA         5.9940   28.6410  -13.9590 C.3   169  PHE169      0.1605
    211  C          4.7220   28.8350  -14.7700 C.2   169  PHE169      0.2264
    212  O          3.9510   29.7710  -14.5020 O.2   169  PHE169     -0.2867
    213  CB         5.7930   27.5500  -12.9020 C.3   169  PHE169      0.0534
    214  CG         7.0490   27.2250  -12.1430 C.ar  169  PHE169     -0.0203
    215  CD1        7.5020   28.0610  -11.1140 C.ar  169  PHE169     -0.0042
    216  CD2        7.8040   26.0960  -12.4780 C.ar  169  PHE169     -0.0042
    217  CE1        8.6800   27.7720  -10.4400 C.ar  169  PHE169     -0.0003
    218  CE2        8.9630   25.7980  -11.7950 C.ar  169  PHE169     -0.0003
    219  CZ         9.4090   26.6400  -10.7780 C.ar  169  PHE169     -0.0000
@<TRIPOS>BOND
     1   188   187    2
     2    37    36    2
     3    48    50   ar
     4    48    47   ar
     5    44    43    1
     6    44    45    2
     7    50    51   ar
     8    43    46    1
     9    43    42    1
    10    47    46    1
    11    47    49   ar
    12    51    53   ar
    13    51    49   ar
    14    53    55   ar
    15    49    52   ar
    16   187   186    1
    17    36    42   am
    18    36    35    1
    19    55    54   ar
    20    52    54   ar
    21    60    57    1
    22   185   186    1
    23     1     2    1
    24    56    57    1
    25    38    35    1
    26    38    39    1
    27   186   189    1
    28    35    34    1
    29    57    58    1
    30   178   177    2
    31   189   190    1
    32    39    41   ar
    33    39    40   ar
    34   179   180    1
    35   179   176    1
    36   211   212    2
    37   211   210    1
    38     2     3    1
    39     2     5    1
    40   175   176    1
    41   177   176    1
    42    34    31   am
    43   181   180   ar
    44   181   183   ar
    45   190   191   ar
    46   190   192   ar
    47   180   182   ar
    48     6     5    1
    49    58    59    2
    50    58    61   am
    51     4     3    2
    52    32    31    2
    53   191   193   ar
    54   210   209    1
    55   210   213    1
    56   183   184   ar
    57     5     7    1
    58   182   184   ar
    59    31    30    1
    60   192   194   ar
    61    61    62    1
    62   195   196    1
    63   193   194   ar
    64   213   214    1
    65    33    30    1
    66   216   214   ar
    67   216   218   ar
    68    30    29    1
    69   214   215   ar
    70    62    63    1
    71    62    65    1
    72   196   197    1
    73   196   199    1
    74   218   219   ar
    75    64    63    2
    76    67    65    1
    77    63    68   am
    78    29    26   am
    79    65    66    1
    80   215   217   ar
    81   197   198    2
    82   199   200    1
    83    68    69    1
    84   219   217   ar
    85    69    72    1
    86    69    70    1
    87   205   207   ar
    88   205   202   ar
    89    26    27    2
    90    26    25    1
    91   207   208   ar
    92   200   202   ar
    93   200   201   ar
    94    23    22    1
    95   202   204   ar
    96    92    90    1
    97    70    71    2
    98    25    28    1
    99    25    24    1
   100   112   111    1
   101   208   206   ar
   102   201   203   ar
   103   113   111    1
   104    89    90    2
   105    89    88    1
   106    90    91    1
   107   204   206   ar
   108   204   203   ar
   109    19    18    2
   110    22    21    1
   111   111   108    1
   112   126   127   ar
   113   126   124   ar
   114    24    18   am
   115    21    20    1
   116    87    88    1
   117    87    86    1
   118    18    17    1
   119   106   104    1
   120   127   125   ar
   121   124   121   ar
   122    73    74    1
   123   108   109    1
   124   108   107    1
   125    86    83    1
   126    20    17    1
   127    80    79    1
   128    80    81    1
   129   103   102    2
   130   104   105    1
   131   104   101    1
   132   110   109    2
   133   109   114   am
   134    17    16    1
   135    78    79    1
   136    78    77    1
   137   102   101    1
   138   134   135    1
   139   134   133    1
   140   125   123   ar
   141   136   135    2
   142   121   123   ar
   143   121   119   ar
   144    82    83    1
   145    82    75   am
   146   114   115    1
   147    74    77    1
   148    74    75    1
   149   115   118    1
   150   115   116    1
   151   135   137   am
   152   101   100    1
   153    83    84    1
   154   133   130   am
   155   123   122   ar
   156   118   119    1
   157    75    76    2
   158   132   129    1
   159   119   120   ar
   160    85    84    2
   161   130   131    2
   162   130   129    1
   163    84    93   am
   164   100    95   am
   165   116   117    2
   166   143   141    1
   167   137   138    1
   168   122   120   ar
   169   129   128    1
   170   161   160    1
   171    95    96    2
   172    95    94    1
   173    11    10    2
   174    93    94    1
   175   138   141    1
   176   138   139    1
   177   141   142    1
   178    10     9    1
   179    94    97    1
   180    15    13   am
   181   174   173    1
   182   160   159    1
   183   139   140    2
   184   139   144   am
   185    12    13    1
   186    12     9    1
   187    13    14    2
   188   159   158    1
   189   147   146    2
   190    97    98    1
   191    97    99    1
   192     9     8    1
   193   144   145    1
   194   173   172    1
   195   172   171    1
   196   146   145    1
   197   146   153   am
   198   145   148    1
   199   158   157    1
   200   154   153    1
   201   154   157    1
   202   154   155    1
   203   171   170    1
   204   162   155   am
   205   162   163    1
   206   148   149    1
   207   155   156    2
   208   163   164    1
   209   149   150    1
   210   170   167    1
   211   164   165    2
   212   150   151    1
   213   151   152    1
   214   169   168    2
   215   168   167    1
   216   167   166    1
