@<TRIPOS>MOLECULE
tmp/3zohD00.pdb
 98 96 0 0 0
SMALL
GASTEIGER

@<TRIPOS>ATOM
      1  N        -40.5340  -19.3080   -5.6020 N.3    14  TYR14      -0.1241
      2  CA       -39.6240  -20.3100   -6.1370 C.3    14  TYR14       0.1605
      3  C        -40.0300  -20.8620   -7.4930 C.2    14  TYR14       0.2264
      4  O        -39.4290  -21.8140   -7.9760 O.2    14  TYR14      -0.2867
      5  CB       -39.4400  -21.4230   -5.1160 C.3    14  TYR14       0.0534
      6  CG       -38.8030  -20.9090   -3.8600 C.ar   14  TYR14      -0.0201
      7  CD1      -37.4660  -20.5100   -3.8650 C.ar   14  TYR14      -0.0009
      8  CD2      -39.5260  -20.7860   -2.6790 C.ar   14  TYR14      -0.0009
      9  CE1      -36.8560  -20.0170   -2.7380 C.ar   14  TYR14       0.0417
     10  CE2      -38.9170  -20.2950   -1.5300 C.ar   14  TYR14       0.0417
     11  CZ       -37.5850  -19.9050   -1.5710 C.ar   14  TYR14       0.1957
     12  OH       -36.9500  -19.4220   -0.4500 O.3    14  TYR14      -0.2866
     13  N        -37.2820  -21.6170  -10.0870 N.3    17  TYR17      -0.1241
     14  CA       -36.1390  -22.4630   -9.6850 C.3    17  TYR17       0.1605
     15  C        -36.2220  -23.8560  -10.3470 C.2    17  TYR17       0.2264
     16  O        -37.2800  -24.2270  -10.8480 O.2    17  TYR17      -0.2867
     17  CB       -36.1150  -22.6340   -8.1550 C.3    17  TYR17       0.0534
     18  CG       -35.7160  -21.4100   -7.3430 C.ar   17  TYR17      -0.0201
     19  CD1      -36.3880  -20.1890   -7.4820 C.ar   17  TYR17      -0.0009
     20  CD2      -34.7000  -21.4920   -6.3940 C.ar   17  TYR17      -0.0009
     21  CE1      -36.0270  -19.0850   -6.7200 C.ar   17  TYR17       0.0417
     22  CE2      -34.3400  -20.3950   -5.6240 C.ar   17  TYR17       0.0417
     23  CZ       -35.0020  -19.1990   -5.7910 C.ar   17  TYR17       0.1957
     24  OH       -34.6560  -18.1200   -5.0090 O.3    17  TYR17      -0.2866
     25  N        -25.2340  -16.5980   -4.6970 N.3    37  ALA37      -0.1231
     26  CA       -26.3020  -15.7780   -5.2290 C.3    37  ALA37       0.1694
     27  C        -27.0580  -16.5620   -6.3020 C.2    37  ALA37       0.2592
     28  O        -26.5940  -16.6760   -7.4260 O.2    37  ALA37      -0.2718
     29  CB       -25.7360  -14.4620   -5.7820 C.3    37  ALA37       0.0304
     30  N        -28.2340  -17.0920   -5.9540 N.am   38  VAL38      -0.1966
     31  CA       -29.0670  -17.7650   -6.9520 C.3    38  VAL38       0.1727
     32  C        -29.7720  -16.7500   -7.8780 C.2    38  VAL38       0.2616
     33  O        -30.1610  -17.0700   -9.0110 O.2    38  VAL38      -0.2715
     34  CB       -30.0630  -18.7640   -6.3070 C.3    38  VAL38       0.0290
     35  CG1      -31.2000  -18.0250   -5.6210 C.3    38  VAL38       0.0023
     36  CG2      -30.5920  -19.7430   -7.3590 C.3    38  VAL38       0.0023
     37  N        -29.9180  -15.5130   -7.4090 N.am   39  TRP39      -0.1974
     38  CA       -30.4480  -14.4870   -8.2880 C.3    39  TRP39       0.1640
     39  C        -29.2940  -13.9280   -9.0850 C.2    39  TRP39       0.2290
     40  O        -28.6000  -13.0120   -8.6500 O.2    39  TRP39      -0.2864
     41  CB       -31.1990  -13.4050   -7.5230 C.3    39  TRP39       0.0576
     42  CG       -32.4610  -13.8840   -6.9010 C.ar   39  TRP39       0.0006
     43  CD1      -33.0410  -15.1460   -6.9980 C.ar   39  TRP39       0.0946
     44  CD2      -33.3220  -13.1170   -6.0740 C.ar   39  TRP39       0.0152
     45  NE1      -34.2060  -15.1840   -6.2680 N.ar   39  TRP39      -0.2442
     46  CE2      -34.4050  -13.9540   -5.6950 C.ar   39  TRP39       0.0810
     47  CE3      -33.2960  -11.7940   -5.6200 C.ar   39  TRP39       0.0012
     48  CZ2      -35.4410  -13.5100   -4.8810 C.ar   39  TRP39       0.0191
     49  CZ3      -34.3410  -11.3570   -4.7990 C.ar   39  TRP39       0.0001
     50  CH2      -35.3860  -12.2140   -4.4400 C.ar   39  TRP39       0.0015
     51  N        -27.8370  -10.2930   -7.8690 N.3    53  SER53      -0.1217
     52  CA       -28.7390   -9.4720   -7.0680 C.3    53  SER53       0.1889
     53  C        -28.4740   -9.7760   -5.5910 C.2    53  SER53       0.2288
     54  O        -28.6600  -10.9070   -5.1430 O.2    53  SER53      -0.2866
     55  CB       -30.1840   -9.7600   -7.4650 C.3    53  SER53       0.2089
     56  OG       -31.0930   -9.0110   -6.6750 O.3    53  SER53      -0.2183
     57  N        -26.6650   -8.1420    3.3370 N.3    58  ARG58      -0.1245
     58  CA       -25.4900   -9.0150    3.2620 C.3    58  ARG58       0.1563
     59  C        -24.2240   -8.2070    3.4910 C.2    58  ARG58       0.2260
     60  O        -24.0660   -7.1180    2.9410 O.2    58  ARG58      -0.2867
     61  CB       -25.4060   -9.7270    1.9000 C.3    58  ARG58       0.0307
     62  CG       -26.7150  -10.2980    1.3710 C.3    58  ARG58       0.0489
     63  CD       -27.3110  -11.4360    2.1970 C.3    58  ARG58       0.2205
     64  NE       -28.5180  -11.9120    1.5120 N.pl3  58  ARG58      -0.0865
     65  CZ       -29.7590  -11.8740    1.9930 C.cat  58  ARG58       0.5346
     66  NH1      -30.0020  -11.4340    3.2170 N.pl3  58  ARG58       0.1354
     67  NH2      -30.7690  -12.3040    1.2370 N.pl3  58  ARG58       0.1354
     68  N        -33.5950   -5.9700   -3.0480 N.3   131  HIS131     -0.1241
     69  CA       -32.2420   -6.3490   -3.4820 C.3   131  HIS131      0.1621
     70  C        -31.6620   -5.3490   -4.4670 C.2   131  HIS131      0.2264
     71  O        -32.4070   -4.6860   -5.2110 O.2   131  HIS131     -0.2867
     72  CB       -32.2440   -7.7340   -4.1290 C.3   131  HIS131      0.0745
     73  CG       -32.3460   -8.8590   -3.1560 C.ar  131  HIS131      0.0817
     74  ND1      -33.4340   -9.0370   -2.3280 N.ar  131  HIS131     -0.2268
     75  CD2      -31.5130   -9.8980   -2.9130 C.ar  131  HIS131      0.1154
     76  CE1      -33.2540  -10.1240   -1.5980 C.ar  131  HIS131      0.1986
     77  NE2      -32.0920  -10.6590   -1.9290 N.ar  131  HIS131     -0.2212
     78  N        -29.8560  -25.0890   -7.1910 N.3   162  TYR162     -0.1241
     79  CA       -30.4990  -24.6980   -5.9350 C.3   162  TYR162      0.1605
     80  C        -31.9890  -24.5430   -6.1610 C.2   162  TYR162      0.2264
     81  O        -32.4030  -23.9210   -7.1340 O.2   162  TYR162     -0.2867
     82  CB       -29.9010  -23.3960   -5.4000 C.3   162  TYR162      0.0534
     83  CG       -30.3910  -22.9620   -4.0280 C.ar  162  TYR162     -0.0201
     84  CD1      -30.3600  -23.8270   -2.9340 C.ar  162  TYR162     -0.0009
     85  CD2      -30.8370  -21.6490   -3.8130 C.ar  162  TYR162     -0.0009
     86  CE1      -30.7820  -23.4140   -1.6780 C.ar  162  TYR162      0.0417
     87  CE2      -31.2690  -21.2320   -2.5660 C.ar  162  TYR162      0.0417
     88  CZ       -31.2370  -22.1100   -1.5000 C.ar  162  TYR162      0.1957
     89  OH       -31.6340  -21.6890   -0.2520 O.3   162  TYR162     -0.2866
     90  N        -34.7620  -22.4390   -0.2120 N.3   165  LYS165     -0.1245
     91  CA       -34.8600  -22.9560    1.1640 C.3   165  LYS165      0.1561
     92  C        -34.0260  -24.2170    1.4390 C.2   165  LYS165      0.2260
     93  O        -34.5320  -25.2470    1.9050 O.2   165  LYS165     -0.2867
     94  CB       -36.3280  -23.1260    1.5740 C.3   165  LYS165      0.0271
     95  CG       -36.9970  -21.7850    1.8450 C.3   165  LYS165      0.0035
     96  CD       -38.5010  -21.9050    2.0160 C.3   165  LYS165      0.0206
     97  CE       -39.1130  -20.5830    2.4520 C.3   165  LYS165      0.1093
     98  NZ       -40.5730  -20.7090    2.7400 N.3   165  LYS165     -0.1314
@<TRIPOS>BOND
     1    16    15    2
     2    15    14    1
     3    13    14    1
     4    14    17    1
     5    39    40    2
     6    39    38    1
     7    33    32    2
     8    38    41    1
     9    38    37    1
    10    17    18    1
    11     4     3    2
    12    32    37   am
    13    32    31    1
    14    51    52    1
    15    41    42    1
    16     3     2    1
    17    19    18   ar
    18    19    21   ar
    19    55    52    1
    20    55    56    1
    21    28    27    2
    22    36    34    1
    23    18    20   ar
    24    78    79    1
    25    81    80    2
    26    52    53    1
    27    43    42   ar
    28    43    45   ar
    29    31    34    1
    30    31    30    1
    31    42    44   ar
    32    21    23   ar
    33    20    22   ar
    34    34    35    1
    35    27    30   am
    36    27    26    1
    37    45    46   ar
    38    80    79    1
    39     2     1    1
    40     2     5    1
    41    44    46   ar
    42    44    47   ar
    43    79    82    1
    44    23    22   ar
    45    23    24    1
    46    29    26    1
    47    46    48   ar
    48    47    49   ar
    49    53    54    2
    50    82    83    1
    51    26    25    1
    52    71    70    2
    53     5     6    1
    54    48    50   ar
    55    49    50   ar
    56    70    69    1
    57    72    69    1
    58    72    73    1
    59    83    85   ar
    60    83    84   ar
    61     7     6   ar
    62     7     9   ar
    63     6     8   ar
    64    85    87   ar
    65    69    68    1
    66    73    75   ar
    67    73    74   ar
    68    84    86   ar
    69    75    77   ar
    70     9    11   ar
    71     8    10   ar
    72    87    88   ar
    73    74    76   ar
    74    77    76   ar
    75    86    88   ar
    76    11    10   ar
    77    11    12    1
    78    88    89    1
    79    90    91    1
    80    91    92    1
    81    91    94    1
    82    67    65    1
    83    62    61    1
    84    62    63    1
    85    92    93    2
    86    64    65    2
    87    64    63    1
    88    94    95    1
    89    95    96    1
    90    61    58    1
    91    65    66    1
    92    96    97    1
    93    97    98    1
    94    60    59    2
    95    58    57    1
    96    58    59    1
