@<TRIPOS>MOLECULE
tmp/3zoiA00.pdb
 210 193 0 0 0
SMALL
GASTEIGER

@<TRIPOS>ATOM
      1  N         21.0760   35.6880   10.9240 N.3    85  ARG85      -0.1245
      2  CA        20.0230   35.2410    9.9880 C.3    85  ARG85       0.1563
      3  C         19.3400   33.9290   10.2960 C.2    85  ARG85       0.2260
      4  O         18.0920   33.8350   10.2050 O.2    85  ARG85      -0.2867
      5  CB        20.6130   35.1150    8.5700 C.3    85  ARG85       0.0307
      6  CG        21.0490   36.4190    7.9360 C.3    85  ARG85       0.0489
      7  CD        21.7040   36.1110    6.5670 C.3    85  ARG85       0.2205
      8  NE        20.6960   35.7720    5.5800 N.pl3  85  ARG85      -0.0865
      9  CZ        20.9130   35.3530    4.3650 C.cat  85  ARG85       0.5346
     10  NH1       22.1340   35.0580    3.9530 N.pl3  85  ARG85       0.1354
     11  NH2       19.8870   35.1570    3.5600 N.pl3  85  ARG85       0.1354
     12  N         13.0450   32.6960   15.2320 N.3    89  TYR89      -0.1241
     13  CA        12.5560   34.0280   15.4660 C.3    89  TYR89       0.1605
     14  C         11.3240   33.8970   16.3200 C.2    89  TYR89       0.2264
     15  O         10.2550   33.4690   15.8140 O.2    89  TYR89      -0.2867
     16  CB        12.2310   34.6720   14.1430 C.3    89  TYR89       0.0534
     17  CG        13.3700   34.9120   13.1490 C.ar   89  TYR89      -0.0201
     18  CD1       14.3280   33.9030   12.8060 C.ar   89  TYR89      -0.0009
     19  CD2       13.4690   36.1450   12.5020 C.ar   89  TYR89      -0.0009
     20  CE1       15.3390   34.1670   11.8910 C.ar   89  TYR89       0.0417
     21  CE2       14.4970   36.4070   11.5780 C.ar   89  TYR89       0.0417
     22  CZ        15.4000   35.4390   11.2560 C.ar   89  TYR89       0.1957
     23  OH        16.4150   35.8830   10.3900 O.3    89  TYR89      -0.2866
     24  N         14.4770   30.2220   10.1600 N.3   102  CYS102     -0.1235
     25  CA        15.1500   30.5170    8.9080 C.3   102  CYS102      0.1677
     26  C         16.4100   29.6780    8.7710 C.2   102  CYS102      0.2270
     27  O         17.1280   29.4250    9.7750 O.2   102  CYS102     -0.2867
     28  CB        15.4600   32.0180    8.8190 C.3   102  CYS102      0.0956
     29  SG        16.5890   32.5470    7.5270 S.3   102  CYS102     -0.0801
     30  N         17.7910   31.9510    1.2160 N.3   181  SER181     -0.1217
     31  CA        17.2530   31.4510    2.4900 C.3   181  SER181      0.1889
     32  C         15.8430   30.9070    2.3080 C.2   181  SER181      0.2288
     33  O         15.0920   31.3530    1.4290 O.2   181  SER181     -0.2866
     34  CB        17.2510   32.6020    3.5400 C.3   181  SER181      0.2089
     35  OG        16.4110   33.6270    3.0850 O.3   181  SER181     -0.2183
     36  N         12.4780   30.4990    4.8270 N.3   183  VAL183     -0.1245
     37  CA        11.8560   30.8510    6.0920 C.3   183  VAL183      0.1561
     38  C         10.5550   30.0700    6.2260 C.2   183  VAL183      0.2260
     39  O          9.7340   30.1250    5.3350 O.2   183  VAL183     -0.2867
     40  CB        11.6330   32.3630    6.2010 C.3   183  VAL183      0.0252
     41  CG1       11.2850   32.7570    7.6420 C.3   183  VAL183      0.0019
     42  CG2       12.8720   33.1250    5.7490 C.3   183  VAL183      0.0019
     43  N          7.5630   30.2140    8.1890 N.3   185  ILE185     -0.1245
     44  CA         6.8370   31.2020    8.9940 C.3   185  ILE185      0.1561
     45  C          5.4980   30.6360    9.4530 C.2   185  ILE185      0.2260
     46  O          4.7430   30.1310    8.6550 O.2   185  ILE185     -0.2867
     47  CB         6.5570   32.5310    8.3280 C.3   185  ILE185      0.0252
     48  CG1        7.7920   33.1640    7.7530 C.3   185  ILE185      0.0019
     49  CG2        5.8740   33.4630    9.3300 C.3   185  ILE185      0.0019
     50  CD1        7.5300   34.2470    6.7240 C.3   185  ILE185      0.0001
     51  N          2.0220   31.8600   11.0740 N.3   187  TYR187     -0.1241
     52  CA         1.0960   32.9040   11.4570 C.3   187  TYR187      0.1605
     53  C         -0.0030   32.1620   12.2370 C.2   187  TYR187      0.2264
     54  O         -0.7070   31.3580   11.6630 O.2   187  TYR187     -0.2867
     55  CB         0.5060   33.6260   10.2540 C.3   187  TYR187      0.0534
     56  CG         1.3800   34.7600    9.7150 C.ar  187  TYR187     -0.0201
     57  CD1        1.3290   36.0170   10.3040 C.ar  187  TYR187     -0.0009
     58  CD2        2.2320   34.5780    8.6080 C.ar  187  TYR187     -0.0009
     59  CE1        2.1090   37.0960    9.8040 C.ar  187  TYR187      0.0417
     60  CE2        3.0230   35.6480    8.1150 C.ar  187  TYR187      0.0417
     61  CZ         2.9300   36.9150    8.7300 C.ar  187  TYR187      0.1957
     62  OH         3.6560   37.9730    8.2420 O.3   187  TYR187     -0.2866
     63  N          2.1710   42.9210    8.4290 N.3   209  PHE209     -0.1241
     64  CA         3.4460   43.4520    7.9590 C.3   209  PHE209      0.1605
     65  C          3.1710   44.5240    6.9290 C.2   209  PHE209      0.2264
     66  O          2.3160   44.3110    6.0330 O.2   209  PHE209     -0.2867
     67  CB         4.2500   42.2790    7.3560 C.3   209  PHE209      0.0534
     68  CG         5.7110   42.5240    7.1840 C.ar  209  PHE209     -0.0203
     69  CD1        6.6130   42.1850    8.1920 C.ar  209  PHE209     -0.0042
     70  CD2        6.2190   42.9740    5.9490 C.ar  209  PHE209     -0.0042
     71  CE1        8.0000   42.3980    8.0110 C.ar  209  PHE209     -0.0003
     72  CE2        7.5890   43.1970    5.7850 C.ar  209  PHE209     -0.0003
     73  CZ         8.4750   42.8940    6.8030 C.ar  209  PHE209     -0.0000
     74  N          6.3980   47.2440    1.5960 N.3   212  HIS212     -0.1241
     75  CA         7.8000   47.0920    1.3920 C.3   212  HIS212      0.1621
     76  C          8.0530   46.5570    0.0300 C.2   212  HIS212      0.2264
     77  O          7.1310   46.0140   -0.6400 O.2   212  HIS212     -0.2867
     78  CB         8.4440   46.1220    2.4000 C.3   212  HIS212      0.0745
     79  CG         7.9670   44.7230    2.2750 C.ar  212  HIS212      0.0817
     80  ND1        6.6980   44.3430    2.6660 N.ar  212  HIS212     -0.2268
     81  CD2        8.5250   43.6560    1.6730 C.ar  212  HIS212      0.1154
     82  CE1        6.5390   43.0560    2.3830 C.ar  212  HIS212      0.1986
     83  NE2        7.6580   42.6090    1.8090 N.ar  212  HIS212     -0.2212
     84  N         10.7930   43.6630   -1.7210 N.3   214  ASP214     -0.1225
     85  CA        11.5440   42.4730   -1.2490 C.3   214  ASP214      0.1805
     86  C         13.0660   42.7230   -1.4380 C.2   214  ASP214      0.2597
     87  O         13.4860   43.3280   -2.4290 O.2   214  ASP214     -0.2718
     88  CB        11.2030   41.1550   -2.0070 C.3   214  ASP214      0.1424
     89  CG         9.8600   40.5320   -1.5110 C.2   214  ASP214      0.3668
     90  OD1        9.2530   41.1780   -0.5990 O.co2 214  ASP214     -0.2456
     91  OD2        9.4260   39.4290   -1.9720 O.co2 214  ASP214     -0.2456
     92  N         13.8300   42.1400   -0.5230 N.am  215  VAL215     -0.1980
     93  CA        15.2920   42.0780   -0.5740 C.3   215  VAL215      0.1595
     94  C         15.5730   40.6970   -1.1280 C.2   215  VAL215      0.2287
     95  O         15.5920   39.6840   -0.4030 O.2   215  VAL215     -0.2864
     96  CB        15.8810   42.2440    0.7980 C.3   215  VAL215      0.0276
     97  CG1       17.4040   42.1590    0.7610 C.3   215  VAL215      0.0022
     98  CG2       15.5190   43.5770    1.3330 C.3   215  VAL215      0.0022
     99  N         11.5160   36.2820   -5.3460 N.3   219  THR219     -0.1218
    100  CA        10.9950   35.6190   -4.1470 C.3   219  THR219      0.1862
    101  C         10.0500   34.5250   -4.6600 C.2   219  THR219      0.2287
    102  O          9.2770   34.7560   -5.5540 O.2   219  THR219     -0.2866
    103  CB        10.2710   36.6450   -3.2500 C.3   219  THR219      0.1770
    104  OG1       11.1840   37.7110   -2.9200 O.3   219  THR219     -0.2211
    105  CG2        9.6800   35.9910   -2.0750 C.3   219  THR219      0.0375
    106  N          7.4950   31.7860   -3.2870 N.3   221  LEU221     -0.1245
    107  CA         6.7040   31.6980   -2.0440 C.3   221  LEU221      0.1561
    108  C          5.5970   30.6450   -2.0990 C.2   221  LEU221      0.2260
    109  O          4.7600   30.6540   -2.9740 O.2   221  LEU221     -0.2867
    110  CB         6.0260   33.0850   -1.7100 C.3   221  LEU221      0.0270
    111  CG         5.0800   33.1710   -0.5080 C.3   221  LEU221      0.0019
    112  CD1        5.8030   32.9800    0.8070 C.3   221  LEU221      0.0001
    113  CD2        4.4010   34.5390   -0.6360 C.3   221  LEU221      0.0001
    114  N          2.3460   29.6230    0.2670 N.3   223  GLN223     -0.1245
    115  CA         1.4830   29.8760    1.4190 C.3   223  GLN223      0.1566
    116  C          0.2480   28.9450    1.4420 C.2   223  GLN223      0.2260
    117  O         -0.2500   28.5060    0.4270 O.2   223  GLN223     -0.2867
    118  CB         0.9750   31.3000    1.4580 C.3   223  GLN223      0.0367
    119  CG         2.0660   32.3480    1.2600 C.3   223  GLN223      0.0905
    120  CD         1.5150   33.7330    1.4430 C.2   223  GLN223      0.2608
    121  OE1        0.5240   34.1120    0.8090 O.2   223  GLN223     -0.2717
    122  NE2        2.0350   34.4260    2.4080 N.am  223  GLN223     -0.0878
    123  N         -2.1380   38.5750    1.0240 N.3   229  LEU229     -0.1245
    124  CA        -1.2750   39.5420    0.3500 C.3   229  LEU229      0.1561
    125  C         -2.0190   40.5740   -0.4410 C.2   229  LEU229      0.2260
    126  O         -3.0300   40.2810   -1.0810 O.2   229  LEU229     -0.2867
    127  CB        -0.3120   38.7850   -0.5880 C.3   229  LEU229      0.0270
    128  CG         1.0060   38.3930    0.0780 C.3   229  LEU229      0.0019
    129  CD1        1.7950   37.3150   -0.7070 C.3   229  LEU229      0.0001
    130  CD2        1.8960   39.6740    0.2350 C.3   229  LEU229      0.0001
    131  N          4.2250   45.6370   -1.6760 N.3   268  HIS268     -0.1241
    132  CA         3.1750   44.7840   -1.1840 C.3   268  HIS268      0.1621
    133  C          3.2160   44.7660    0.2940 C.2   268  HIS268      0.2264
    134  O          4.1590   45.2770    0.9200 O.2   268  HIS268     -0.2867
    135  CB         3.3400   43.4020   -1.8060 C.3   268  HIS268      0.0745
    136  CG         4.6340   42.7600   -1.5080 C.ar  268  HIS268      0.0817
    137  ND1        5.8010   43.1060   -2.1690 N.ar  268  HIS268     -0.2268
    138  CD2        4.9690   41.7730   -0.6380 C.ar  268  HIS268      0.1154
    139  CE1        6.8040   42.4240   -1.6730 C.ar  268  HIS268      0.1986
    140  NE2        6.3280   41.6140   -0.7330 N.ar  268  HIS268     -0.2212
    141  N          1.1530   42.5690    3.9360 N.3   270  VAL270     -0.1245
    142  CA         0.4450   41.3780    4.4590 C.3   270  VAL270      0.1561
    143  C         -0.6630   41.8050    5.3940 C.2   270  VAL270      0.2260
    144  O         -0.4020   42.3850    6.4790 O.2   270  VAL270     -0.2867
    145  CB         1.3710   40.3870    5.1990 C.3   270  VAL270      0.0252
    146  CG1        0.5390   39.1970    5.7330 C.3   270  VAL270      0.0019
    147  CG2        2.4570   39.8690    4.2810 C.3   270  VAL270      0.0019
    148  N          3.5590   30.5750    5.8020 N.3   279  SER279     -0.1217
    149  CA         4.0740   31.4190    4.7470 C.3   279  SER279      0.1889
    150  C          5.5600   30.9810    4.6360 C.2   279  SER279      0.2288
    151  O          6.3510   31.1130    5.6100 O.2   279  SER279     -0.2866
    152  CB         3.8930   32.9400    5.0210 C.3   279  SER279      0.2089
    153  OG         4.3700   33.7480    3.9440 O.3   279  SER279     -0.2183
    154  N          8.5520   31.4090    2.3890 N.3   281  PRO281     -0.2116
    155  CA         9.3570   31.9580    1.3070 C.3   281  PRO281      0.1372
    156  C         10.7480   31.2910    1.1290 C.2   281  PRO281      0.2244
    157  O         11.3860   30.9100    2.1190 O.2   281  PRO281     -0.2868
    158  CB         9.5740   33.4140    1.7410 C.3   281  PRO281      0.0268
    159  CG         9.6410   33.3110    3.2150 C.3   281  PRO281      0.0207
    160  CD         8.4910   32.3680    3.5180 C.3   281  PRO281      0.0892
    161  N         13.9480   33.1360   -0.6000 N.3   283  PHE283     -0.1241
    162  CA        14.5280   34.3460   -1.1440 C.3   283  PHE283      0.1605
    163  C         15.7130   33.9640   -2.0210 C.2   283  PHE283      0.2264
    164  O         16.7400   33.3990   -1.5420 O.2   283  PHE283     -0.2867
    165  CB        14.8860   35.3430   -0.0360 C.3   283  PHE283      0.0534
    166  CG        13.6990   35.7450    0.7850 C.ar  283  PHE283     -0.0203
    167  CD1       12.7910   36.6610    0.2670 C.ar  283  PHE283     -0.0042
    168  CD2       13.4990   35.2560    2.0690 C.ar  283  PHE283     -0.0042
    169  CE1       11.6890   37.0740    0.9950 C.ar  283  PHE283     -0.0003
    170  CE2       12.3650   35.6010    2.7970 C.ar  283  PHE283     -0.0003
    171  CZ        11.4690   36.5450    2.2730 C.ar  283  PHE283     -0.0000
    172  N         18.6670   34.7180   -3.6340 N.3   285  ASN285     -0.1240
    173  CA        19.8440   35.5740   -3.4490 C.3   285  ASN285      0.1653
    174  C         21.0210   34.9470   -4.2090 C.2   285  ASN285      0.2266
    175  O         21.1640   33.7110   -4.2730 O.2   285  ASN285     -0.2867
    176  CB        20.1820   35.6750   -1.9760 C.3   285  ASN285      0.1155
    177  CG        19.1160   36.4090   -1.1510 C.2   285  ASN285      0.2627
    178  OD1       18.4910   37.3200   -1.6300 O.2   285  ASN285     -0.2716
    179  ND2       18.9070   35.9710    0.0940 N.am  285  ASN285     -0.0877
    180  N         22.5000   42.7200   -0.0820 N.3   315  LEU315     -0.1245
    181  CA        21.7770   41.8710    0.8640 C.3   315  LEU315      0.1561
    182  C         21.9670   42.3370    2.3160 C.2   315  LEU315      0.2260
    183  O         20.9930   42.4060    3.0660 O.2   315  LEU315     -0.2867
    184  CB        22.1520   40.4310    0.6860 C.3   315  LEU315      0.0270
    185  CG        21.4110   39.4250    1.5630 C.3   315  LEU315      0.0019
    186  CD1       19.9160   39.3610    1.1530 C.3   315  LEU315      0.0001
    187  CD2       22.0100   38.0110    1.4680 C.3   315  LEU315      0.0001
    188  N         18.7730   43.8250    4.3800 N.3   319  LEU319     -0.1245
    189  CA        18.1460   43.1160    5.4620 C.3   319  LEU319      0.1561
    190  C         18.0810   43.9470    6.7130 C.2   319  LEU319      0.2260
    191  O         17.0930   43.9140    7.4640 O.2   319  LEU319     -0.2867
    192  CB        18.7990   41.7840    5.7360 C.3   319  LEU319      0.0270
    193  CG        18.6770   40.7460    4.6270 C.3   319  LEU319      0.0019
    194  CD1       19.2670   39.4450    5.0960 C.3   319  LEU319      0.0001
    195  CD2       17.2340   40.4820    4.2370 C.3   319  LEU319      0.0001
    196  N         15.2920   46.7070    6.0520 N.3   322  LEU322     -0.1245
    197  CA        13.9510   46.1790    6.1600 C.3   322  LEU322      0.1561
    198  C         13.5610   45.9820    7.6350 C.2   322  LEU322      0.2260
    199  O         12.3840   46.2070    8.0640 O.2   322  LEU322     -0.2867
    200  CB        13.8910   44.7890    5.4550 C.3   322  LEU322      0.0270
    201  CG        12.6730   44.3110    4.6540 C.3   322  LEU322      0.0019
    202  CD1       12.4750   42.7810    4.5670 C.3   322  LEU322      0.0001
    203  CD2       11.4080   45.1300    4.8610 C.3   322  LEU322      0.0001
    204  N         11.3110   40.6400   12.7450 N.3   329  THR329     -0.1218
    205  CA        10.3300   39.5520   12.6260 C.3   329  THR329      0.1862
    206  C         10.6890   38.4290   13.5920 C.2   329  THR329      0.2287
    207  O          9.9170   37.4110   13.6670 O.2   329  THR329     -0.2866
    208  CB        10.2420   39.0000   11.1840 C.3   329  THR329      0.1770
    209  OG1       11.4930   38.4820   10.7780 O.3   329  THR329     -0.2211
    210  CG2        9.7860   40.0980   10.2010 C.3   329  THR329      0.0375
@<TRIPOS>BOND
     1   102   101    2
     2    99   100    1
     3   101   100    1
     4   175   174    2
     5   174   173    1
     6   100   103    1
     7   172   173    1
     8   173   176    1
     9   106   107    1
    10   103   104    1
    11   103   105    1
    12   109   108    2
    13    87    86    2
    14   137   139   ar
    15   137   136   ar
    16   108   107    1
    17   107   110    1
    18   163   164    2
    19   163   162    1
    20    88    89    1
    21    88    85    1
    22   176   177    1
    23    91    89   ar
    24   135   136    1
    25   135   132    1
    26    84    85    1
    27   110   111    1
    28   131   132    1
    29   139   140   ar
    30   178   177    2
    31    89    90   ar
    32   136   138   ar
    33    86    85    1
    34    86    92   am
    35   132   133    1
    36   177   179   am
    37   162   161    1
    38   162   165    1
    39    94    93    1
    40    94    95    2
    41   126   125    2
    42   140   138   ar
    43   129   128    1
    44    77    76    2
    45   113   111    1
    46   127   128    1
    47   127   124    1
    48    93    92    1
    49    93    96    1
    50   111   112    1
    51   125   124    1
    52   180   181    1
    53   165   166    1
    54    76    75    1
    55   128   130    1
    56   167   166   ar
    57   167   169   ar
    58   114   115    1
    59   133   134    2
    60   124   123    1
    61   117   116    2
    62   184   181    1
    63   184   185    1
    64    97    96    1
    65   166   168   ar
    66    96    98    1
    67   121   120    2
    68   181   182    1
    69   169   171   ar
    70   156   155    1
    71   156   157    2
    72   186   185    1
    73    30    31    1
    74   119   120    1
    75   119   118    1
    76   155   158    1
    77   155   154    1
    78    75    74    1
    79    75    78    1
    80   115   116    1
    81   115   118    1
    82    33    32    2
    83   120   122   am
    84   187   185    1
    85    81    83   ar
    86    81    79   ar
    87   158   159    1
    88    83    82   ar
    89   168   170   ar
    90   171   170   ar
    91    79    78    1
    92    79    80   ar
    93    32    31    1
    94   182   183    2
    95    82    80   ar
    96   154   160    1
    97    31    34    1
    98    35    34    1
    99   159   160    1
   100    11     9    1
   101   141   142    1
   102   153   152    1
   103    10     9    1
   104   195   193    1
   105   147   145    1
   106     9     8    2
   107   188   189    1
   108   142   145    1
   109   142   143    1
   110   202   201    1
   111   193   194    1
   112   193   192    1
   113   150   149    1
   114   150   151    2
   115   201   203    1
   116   201   200    1
   117   149   152    1
   118   149   148    1
   119    36    37    1
   120   145   146    1
   121    39    38    2
   122   143   144    2
   123   200   197    1
   124   189   192    1
   125   189   190    1
   126     8     7    1
   127    42    40    1
   128    72    70   ar
   129    72    73   ar
   130    70    68   ar
   131    66    65    2
   132   196   197    1
   133    37    40    1
   134    37    38    1
   135   197   198    1
   136    40    41    1
   137     7     6    1
   138   190   191    2
   139    50    48    1
   140    73    71   ar
   141    65    64    1
   142    68    67    1
   143    68    69   ar
   144    67    64    1
   145    29    28    1
   146   198   199    2
   147    48    47    1
   148     6     5    1
   149    64    63    1
   150    71    69   ar
   151    60    58   ar
   152    60    61   ar
   153    43    44    1
   154    62    61    1
   155    47    44    1
   156    47    49    1
   157     5     2    1
   158    58    56   ar
   159    46    45    2
   160    61    59   ar
   161    26    25    1
   162    26    27    2
   163    28    25    1
   164    25    24    1
   165    44    45    1
   166    56    55    1
   167    56    57   ar
   168    59    57   ar
   169     2     3    1
   170     2     1    1
   171   210   208    1
   172     4     3    2
   173    55    52    1
   174    23    22    1
   175   209   208    1
   176    51    52    1
   177   208   205    1
   178    22    21   ar
   179    22    20   ar
   180    52    53    1
   181    21    19   ar
   182    54    53    2
   183    20    18   ar
   184    19    17   ar
   185   205   204    1
   186   205   206    1
   187    18    17   ar
   188    17    16    1
   189   206   207    2
   190    16    13    1
   191    12    13    1
   192    13    14    1
   193    15    14    2
