@<TRIPOS>MOLECULE
tmp/3zokB01.pdb
 89 85 0 0 0
SMALL
GASTEIGER

@<TRIPOS>ATOM
      1  N          1.8200    2.7950    8.2260 N.3    43  SER43      -0.1217
      2  CA         0.7530    3.7050    7.9430 C.3    43  SER43       0.1889
      3  C          0.4740    3.7850    6.4150 C.2    43  SER43       0.2288
      4  O         -0.6040    4.1820    6.0080 O.2    43  SER43      -0.2866
      5  CB         1.0820    5.0670    8.5430 C.3    43  SER43       0.2089
      6  OG         2.3700    5.4910    8.1410 O.3    43  SER43      -0.2183
      7  N          0.1420   -0.0750   14.3500 N.3    70  ILE70      -0.1231
      8  CA         0.5040    0.7240   13.1810 C.3    70  ILE70       0.1692
      9  C          1.8360    1.4350   13.3640 C.2    70  ILE70       0.2592
     10  O          1.9710    2.3940   14.1350 O.2    70  ILE70      -0.2718
     11  CB        -0.5700    1.7950   12.8790 C.3    70  ILE70       0.0266
     12  CG1       -1.9690    1.1650   12.7570 C.3    70  ILE70       0.0019
     13  CG2       -0.2200    2.5600   11.6030 C.3    70  ILE70       0.0020
     14  CD1       -2.2340    0.5070   11.4250 C.3    70  ILE70       0.0001
     15  N          2.8360    1.0040   12.6200 N.am   71  LEU71      -0.1966
     16  CA         4.1640    1.5830   12.7910 C.3    71  LEU71       0.1713
     17  C          4.3950    2.6700   11.7740 C.2    71  LEU71       0.2458
     18  O          3.7620    2.6720   10.7170 O.2    71  LEU71      -0.2730
     19  CB         5.2380    0.5060   12.6320 C.3    71  LEU71       0.0310
     20  CG         5.2850   -0.6280   13.6480 C.3    71  LEU71       0.0022
     21  CD1        6.5980   -1.3780   13.4560 C.3    71  LEU71       0.0001
     22  CD2        5.1500   -0.1170   15.0810 C.3    71  LEU71       0.0001
     23  N          5.3220    3.5910   12.0710 N.am   72  PRO72      -0.2716
     24  CA         5.6800    4.5560   11.0300 C.3    72  PRO72       0.1536
     25  C          6.4060    3.8940    9.8760 C.2    72  PRO72       0.2598
     26  O          7.1030    2.8990   10.0830 O.2    72  PRO72      -0.2715
     27  CB         6.5970    5.5380   11.7440 C.3    72  PRO72       0.0310
     28  CG         7.0940    4.8110   12.9680 C.3    72  PRO72       0.0237
     29  CD         5.9530    3.9070   13.3630 C.3    72  PRO72       0.0939
     30  N          6.2170    4.4490    8.6810 N.am   73  ASP73      -0.1972
     31  CA         6.7290    3.9060    7.4360 C.3    73  ASP73       0.1709
     32  C          8.0860    4.4950    7.1370 C.2    73  ASP73       0.2293
     33  O          8.2200    5.7070    6.9610 O.2    73  ASP73      -0.2864
     34  CB         5.7680    4.2750    6.2970 C.3    73  ASP73       0.1436
     35  CG         6.1850    3.6970    4.9210 C.2    73  ASP73       0.3671
     36  OD1        7.2070    3.0050    4.7600 O.co2  73  ASP73      -0.2456
     37  OD2        5.4300    3.9590    3.9750 O.co2  73  ASP73      -0.2456
     38  N         12.9230    4.1770   10.4610 N.3    77  TYR77      -0.1241
     39  CA        12.2680    3.6950   11.6500 C.3    77  TYR77       0.1605
     40  C         12.5810    2.2420   11.9790 C.2    77  TYR77       0.2264
     41  O         12.0060    1.6900   12.8940 O.2    77  TYR77      -0.2867
     42  CB        10.7690    3.9110   11.5330 C.3    77  TYR77       0.0534
     43  CG        10.4020    5.3490   11.3170 C.ar   77  TYR77      -0.0201
     44  CD1       10.5970    6.2810   12.3130 C.ar   77  TYR77      -0.0009
     45  CD2        9.8710    5.7810   10.1120 C.ar   77  TYR77      -0.0009
     46  CE1       10.2660    7.5960   12.1280 C.ar   77  TYR77       0.0417
     47  CE2        9.5460    7.1000    9.9170 C.ar   77  TYR77       0.0417
     48  CZ         9.7440    8.0020   10.9330 C.ar   77  TYR77       0.1957
     49  OH         9.4260    9.3120   10.7600 O.3    77  TYR77      -0.2866
     50  N         13.7460    1.7050   19.1050 N.3    81  ASP81      -0.1225
     51  CA        12.7490    2.5900   19.6990 C.3    81  ASP81       0.1805
     52  C         11.3540    2.3390   19.1730 C.2    81  ASP81       0.2598
     53  O         10.3820    2.3390   19.9550 O.2    81  ASP81      -0.2718
     54  CB        13.0890    4.0580   19.4570 C.3    81  ASP81       0.1424
     55  CG        14.2890    4.5180   20.2530 C.2    81  ASP81       0.3668
     56  OD1       14.7310    3.8160   21.1980 O.co2  81  ASP81      -0.2456
     57  OD2       14.7790    5.6160   19.9530 O.co2  81  ASP81      -0.2456
     58  N         11.2670    2.1290   17.8570 N.am   82  THR82      -0.1953
     59  CA        10.0120    1.9530   17.1470 C.3    82  THR82       0.1897
     60  C          9.4320    0.6090   17.4470 C.2    82  THR82       0.2313
     61  O          8.2250    0.4450   17.5300 O.2    82  THR82      -0.2863
     62  CB        10.2290    1.9930   15.5920 C.3    82  THR82       0.1794
     63  OG1       10.8030    3.2420   15.2290 O.3    82  THR82      -0.2208
     64  CG2        8.9030    1.8100   14.8380 C.3    82  THR82       0.0378
     65  N          9.6170   -0.8670   20.1780 N.3    84  MET84      -0.1230
     66  CA         8.9380   -0.7850   21.4800 C.3    84  MET84       0.1702
     67  C          7.4470   -0.6050   21.3230 C.2    84  MET84       0.2592
     68  O          6.6980   -0.9710   22.2300 O.2    84  MET84      -0.2718
     69  CB         9.4680    0.3580   22.3680 C.3    84  MET84       0.0401
     70  CG        10.9080    0.2220   22.8040 C.3    84  MET84       0.0596
     71  SD        11.3110   -1.3900   23.5240 S.3    84  MET84      -0.1393
     72  CE        10.0110   -1.5230   24.7680 C.3    84  MET84       0.0692
     73  N          7.0120   -0.0250   20.2000 N.am   85  LYS85      -0.1980
     74  CA         5.5840    0.1630   19.9870 C.3    85  LYS85       0.1596
     75  C          4.8940   -1.1760   19.8390 C.2    85  LYS85       0.2287
     76  O          3.7670   -1.3480   20.3160 O.2    85  LYS85      -0.2864
     77  CB         5.2700    1.0650   18.8010 C.3    85  LYS85       0.0298
     78  CG         3.8260    1.5650   18.8330 C.3    85  LYS85       0.0038
     79  CD         3.3960    2.2040   17.5250 C.3    85  LYS85       0.0206
     80  CE         1.9810    2.7530   17.6970 C.3    85  LYS85       0.1093
     81  NZ         1.5120    3.4860   16.4800 N.3    85  LYS85      -0.1314
     82  N          4.9370   -2.7180   23.5280 N.3    88  ASP88      -0.1239
     83  CA         4.0140   -1.9790   24.3730 C.3    88  ASP88       0.1674
     84  C          2.5630   -2.3310   24.0700 C.2    88  ASP88       0.2266
     85  O          1.7670   -2.5920   24.9890 O.2    88  ASP88      -0.2867
     86  CB         4.2210   -0.4850   24.2230 C.3    88  ASP88       0.1410
     87  CG         5.4390    0.0260   24.9780 C.2    88  ASP88       0.3668
     88  OD1        6.2150   -0.7590   25.5640 O.co2  88  ASP88      -0.2456
     89  OD2        5.6210    1.2620   24.9690 O.co2  88  ASP88      -0.2456
@<TRIPOS>BOND
     1    37    35   ar
     2    36    35   ar
     3    35    34    1
     4     4     3    2
     5    34    31    1
     6     3     2    1
     7    33    32    2
     8    32    31    1
     9    31    30    1
    10     2     1    1
    11     2     5    1
    12     6     5    1
    13    30    25   am
    14    25    26    2
    15    25    24    1
    16    47    45   ar
    17    47    48   ar
    18    45    43   ar
    19    38    39    1
    20    18    17    2
    21    49    48    1
    22    48    46   ar
    23    24    27    1
    24    24    23    1
    25    43    42    1
    26    43    44   ar
    27    14    12    1
    28    42    39    1
    29    13    11    1
    30    39    40    1
    31    27    28    1
    32    17    23   am
    33    17    16    1
    34    40    41    2
    35    23    29    1
    36    46    44   ar
    37    15    16    1
    38    15     9   am
    39    19    16    1
    40    19    20    1
    41    12    11    1
    42    11     8    1
    43    28    29    1
    44     8     9    1
    45     8     7    1
    46     9    10    2
    47    21    20    1
    48    20    22    1
    49    64    62    1
    50    63    62    1
    51    62    59    1
    52    81    80    1
    53    59    60    1
    54    59    58    1
    55    60    61    2
    56    79    80    1
    57    79    78    1
    58    58    52   am
    59    77    78    1
    60    77    74    1
    61    50    51    1
    62    52    51    1
    63    52    53    2
    64    54    51    1
    65    54    55    1
    66    75    74    1
    67    75    76    2
    68    57    55   ar
    69    74    73    1
    70    65    66    1
    71    73    67   am
    72    55    56   ar
    73    67    66    1
    74    67    68    2
    75    66    69    1
    76    69    70    1
    77    70    71    1
    78    71    72    1
    79    82    83    1
    80    84    83    1
    81    84    85    2
    82    86    83    1
    83    86    87    1
    84    89    87   ar
    85    87    88   ar
