@<TRIPOS>MOLECULE
tmp/3zonA00.pdb
 139 130 0 0 0
SMALL
GASTEIGER

@<TRIPOS>ATOM
      1  N          6.3770   27.3320    6.9180 N.3    19  LEU19      -0.1231
      2  CA         6.6420   25.9240    6.5730 C.3    19  LEU19       0.1693
      3  C          6.3260   24.9690    7.7270 C.2    19  LEU19       0.2593
      4  O          6.1200   23.7750    7.5190 O.2    19  LEU19      -0.2718
      5  CB         8.0950   25.7220    6.1090 C.3    19  LEU19       0.0284
      6  CG         8.5590   26.4500    4.8350 C.3    19  LEU19       0.0019
      7  CD1       10.0440   26.2300    4.5690 C.3    19  LEU19       0.0001
      8  CD2        7.7580   25.9860    3.6240 C.3    19  LEU19       0.0001
      9  N          6.2680   25.4980    8.9400 N.am   20  GLY20      -0.1942
     10  CA         6.1880   24.6720   10.1280 C.3    20  GLY20       0.2014
     11  C          7.0040   25.3070   11.2270 C.2    20  GLY20       0.2639
     12  O          7.4230   26.4700   11.0980 O.2    20  GLY20      -0.2714
     13  N          7.2110   24.5450   12.3000 N.am   21  GLN21      -0.1963
     14  CA         7.8310   25.0160   13.5250 C.3    21  GLN21       0.1733
     15  C          8.9720   24.1110   13.9310 C.2    21  GLN21       0.2616
     16  O          8.8650   22.9060   13.8090 O.2    21  GLN21      -0.2715
     17  CB         6.8190   25.0010   14.6600 C.3    21  GLN21       0.0408
     18  CG         5.7420   26.0590   14.5440 C.3    21  GLN21       0.0908
     19  CD         4.7030   25.9750   15.6440 C.2    21  GLN21       0.2608
     20  OE1        4.4510   24.9210   16.2190 O.2    21  GLN21      -0.2717
     21  NE2        4.0950   27.0970   15.9380 N.am   21  GLN21      -0.0878
     22  N         10.0670   24.6930   14.3990 N.am   22  GLY22      -0.1955
     23  CA        11.1580   23.9170   14.9920 C.3    22  GLY22       0.1869
     24  C         11.1970   24.2260   16.4780 C.2    22  GLY22       0.2309
     25  O         10.2560   24.8190   17.0230 O.2    22  GLY22      -0.2863
     26  N          9.3440   28.6910   10.9970 N.3    27  VAL27      -0.1245
     27  CA        10.1820   28.4680    9.8190 C.3    27  VAL27       0.1561
     28  C          9.4220   28.8980    8.5920 C.2    27  VAL27       0.2260
     29  O          8.2890   28.4910    8.4080 O.2    27  VAL27      -0.2867
     30  CB        10.5630   26.9810    9.7130 C.3    27  VAL27       0.0252
     31  CG1       11.4060   26.7210    8.4670 C.3    27  VAL27       0.0019
     32  CG2       11.3120   26.5460   10.9620 C.3    27  VAL27       0.0019
     33  N         15.5310   29.4030    3.4780 N.3    39  VAL39      -0.1245
     34  CA        14.6140   29.1880    4.5740 C.3    39  VAL39       0.1561
     35  C         14.9590   30.1840    5.6870 C.2    39  VAL39       0.2260
     36  O         16.1490   30.4480    5.9440 O.2    39  VAL39      -0.2867
     37  CB        14.6960   27.7320    5.0600 C.3    39  VAL39       0.0252
     38  CG1       13.9760   27.5430    6.3910 C.3    39  VAL39       0.0019
     39  CG2       14.0970   26.7820    4.0270 C.3    39  VAL39       0.0019
     40  N         14.4400   30.8630    9.7750 N.3    41  LYS41      -0.1245
     41  CA        14.1130   30.3010   11.0810 C.3    41  LYS41       0.1561
     42  C         14.0290   31.4360   12.1340 C.2    41  LYS41       0.2260
     43  O         15.0470   31.9550   12.5990 O.2    41  LYS41      -0.2867
     44  CB        15.1680   29.2700   11.4420 C.3    41  LYS41       0.0271
     45  CG        15.2410   28.1940   10.3770 C.3    41  LYS41       0.0035
     46  CD        16.2230   27.1050   10.7180 C.3    41  LYS41       0.0206
     47  CE        16.0120   25.9270    9.8180 C.3    41  LYS41       0.1093
     48  NZ        16.9770   24.8610   10.1360 N.3    41  LYS41      -0.1314
     49  N         23.5530   21.0490    4.7930 N.3    70  ALA70      -0.1245
     50  CA        22.8230   22.2070    4.2400 C.3    70  ALA70       0.1562
     51  C         23.5330   23.5240    4.6030 C.2    70  ALA70       0.2260
     52  O         24.0750   23.6240    5.7010 O.2    70  ALA70      -0.2867
     53  CB        21.3970   22.1930    4.7680 C.3    70  ALA70       0.0290
     54  N         18.9170   29.9650    5.9520 N.3    86  THR86      -0.1203
     55  CA        19.4700   28.6670    5.5810 C.3    86  THR86       0.1994
     56  C         19.0250   28.2180    4.2090 C.2    86  THR86       0.2618
     57  O         18.1230   28.8010    3.6050 O.2    86  THR86      -0.2717
     58  CB        19.1010   27.5590    6.6060 C.3    86  THR86       0.1784
     59  OG1       17.6620   27.4050    6.7200 O.3    86  THR86      -0.2211
     60  CG2       19.6660   27.9150    7.9500 C.3    86  THR86       0.0376
     61  N         19.6990   27.1820    3.7220 N.am   87  GLU87      -0.1965
     62  CA        19.4070   26.6110    2.4240 C.3    87  GLU87       0.1733
     63  C         18.0070   26.0600    2.2980 C.2    87  GLU87       0.2616
     64  O         17.5900   25.2360    3.1040 O.2    87  GLU87      -0.2715
     65  CB        20.3880   25.4950    2.1150 C.3    87  GLU87       0.0429
     66  CG        20.4090   25.0720    0.6590 C.3    87  GLU87       0.1163
     67  CD        21.4030   23.9470    0.4110 C.2    87  GLU87       0.3649
     68  OE1       22.2730   23.7180    1.2640 O.co2  87  GLU87      -0.2457
     69  OE2       21.3170   23.2670   -0.6180 O.co2  87  GLU87      -0.2457
     70  N         17.2850   26.4980    1.2750 N.am   88  TYR88      -0.1960
     71  CA        16.0830   25.7830    0.8670 C.3    88  TYR88       0.1771
     72  C         16.4930   24.5660    0.0680 C.2    88  TYR88       0.2619
     73  O         17.0800   24.6830   -1.0110 O.2    88  TYR88      -0.2715
     74  CB        15.1170   26.6430    0.0530 C.3    88  TYR88       0.0574
     75  CG        13.7100   26.0530    0.0740 C.ar   88  TYR88      -0.0198
     76  CD1       13.4030   24.8930   -0.6460 C.ar   88  TYR88      -0.0009
     77  CD2       12.6920   26.6420    0.8110 C.ar   88  TYR88      -0.0009
     78  CE1       12.1460   24.3400   -0.6010 C.ar   88  TYR88       0.0417
     79  CE2       11.4260   26.0960    0.8430 C.ar   88  TYR88       0.0417
     80  CZ        11.1670   24.9490    0.1400 C.ar   88  TYR88       0.1957
     81  OH         9.9150   24.3910    0.1600 O.3    88  TYR88      -0.2866
     82  N         16.1830   23.3990    0.6180 N.am   89  VAL89      -0.1977
     83  CA        16.3900   22.1230   -0.0440 C.3    89  VAL89       0.1596
     84  C         15.0300   21.6590   -0.5650 C.2    89  VAL89       0.2287
     85  O         14.0770   21.5200    0.2130 O.2    89  VAL89      -0.2864
     86  CB        16.9590   21.0860    0.9560 C.3    89  VAL89       0.0276
     87  CG1       17.2240   19.7510    0.2710 C.3    89  VAL89       0.0022
     88  CG2       18.2450   21.6040    1.5770 C.3    89  VAL89       0.0022
     89  N         12.1030   19.0780    0.9530 N.3    92  GLY92      -0.1210
     90  CA        11.7810   19.2270    2.3640 C.3    92  GLY92       0.1940
     91  C         12.2680   18.0740    3.2420 C.2    92  GLY92       0.2453
     92  O         13.1090   17.2560    2.8060 O.2    92  GLY92      -0.2732
     93  N         11.7310   18.0010    4.4850 N.am   93  PRO93      -0.2728
     94  CA        12.1260   17.0150    5.4990 C.3    93  PRO93       0.1401
     95  C         11.8770   15.6090    5.0540 C.2    93  PRO93       0.2269
     96  O         10.8340   15.3110    4.4510 O.2    93  PRO93      -0.2865
     97  CB        11.2060   17.3190    6.6890 C.3    93  PRO93       0.0296
     98  CG        10.7130   18.7260    6.4520 C.3    93  PRO93       0.0237
     99  CD        10.6190   18.8470    4.9680 C.3    93  PRO93       0.0939
    100  N          8.7320   13.6310    6.8240 N.3    96  VAL96      -0.1245
    101  CA         7.4170   13.9700    6.2410 C.3    96  VAL96       0.1561
    102  C          7.2570   13.2390    4.9140 C.2    96  VAL96       0.2260
    103  O          6.1830   12.6900    4.5960 O.2    96  VAL96      -0.2867
    104  CB         7.2580   15.4850    6.0250 C.3    96  VAL96       0.0252
    105  CG1        5.9200   15.8080    5.3820 C.3    96  VAL96       0.0019
    106  CG2        7.3630   16.2340    7.3440 C.3    96  VAL96       0.0019
    107  N         13.5630   14.6970   10.5430 N.3   137  ARG137     -0.1245
    108  CA        13.1000   16.0600   10.3090 C.3   137  ARG137      0.1563
    109  C         14.2250   17.0010    9.9490 C.2   137  ARG137      0.2260
    110  O         13.9980   17.9870    9.2500 O.2   137  ARG137     -0.2867
    111  CB        12.4060   16.6190   11.5550 C.3   137  ARG137      0.0307
    112  CG        11.9690   18.0610   11.4070 C.3   137  ARG137      0.0489
    113  CD        10.7950   18.1920   10.4650 C.3   137  ARG137      0.2205
    114  NE         9.5900   18.2930   11.2910 N.pl3 137  ARG137     -0.0865
    115  CZ         8.5430   17.4860   11.2630 C.cat 137  ARG137      0.5346
    116  NH1        8.4430   16.5000   10.4000 N.pl3 137  ARG137      0.1354
    117  NH2        7.5480   17.7090   12.0980 N.pl3 137  ARG137      0.1354
    118  N         17.0230   16.8130    4.9190 N.3   140  LEU140     -0.1245
    119  CA        16.2900   17.4450    3.8290 C.3   140  LEU140      0.1561
    120  C         16.6430   16.7260    2.5300 C.2   140  LEU140      0.2260
    121  O         17.8010   16.3550    2.3110 O.2   140  LEU140     -0.2867
    122  CB        16.6500   18.9140    3.7450 C.3   140  LEU140      0.0270
    123  CG        16.3920   19.6660    5.0400 C.3   140  LEU140      0.0019
    124  CD1       17.1030   21.0000    5.0780 C.3   140  LEU140      0.0001
    125  CD2       14.8940   19.8510    5.2370 C.3   140  LEU140      0.0001
    126  N         20.4490   19.1850    7.9810 N.3   157  SER157     -0.1202
    127  CA        20.2530   20.5940    8.3210 C.3   157  SER157      0.2020
    128  C         20.9190   20.9470    9.6440 C.2   157  SER157      0.2618
    129  O         21.4080   20.0710   10.3680 O.2   157  SER157     -0.2717
    130  CB        18.7550   20.9480    8.3320 C.3   157  SER157      0.2103
    131  OG        18.1650   20.7500    9.6040 O.3   157  SER157     -0.2182
    132  N         20.9160   22.2400    9.9700 N.am  158  ASP158     -0.1973
    133  CA        21.4780   22.7130   11.2150 C.3   158  ASP158      0.1709
    134  C         20.6880   22.1390   12.3920 C.2   158  ASP158      0.2293
    135  O         19.4980   21.8240   12.2620 O.2   158  ASP158     -0.2864
    136  CB        21.4720   24.2470   11.2730 C.3   158  ASP158      0.1436
    137  CG        20.0680   24.8200   11.2850 C.2   158  ASP158      0.3671
    138  OD1       19.4790   24.9330   12.3700 O.co2 158  ASP158     -0.2456
    139  OD2       19.5400   25.1320   10.2030 O.co2 158  ASP158     -0.2456
@<TRIPOS>BOND
     1    73    72    2
     2    76    78   ar
     3    76    75   ar
     4    69    67   ar
     5    78    80   ar
     6    84    83    1
     7    84    85    2
     8    83    82    1
     9    83    86    1
    10    74    75    1
    11    74    71    1
    12    72    82   am
    13    72    71    1
    14    75    77   ar
    15    80    81    1
    16    80    79   ar
    17    87    86    1
    18    67    66    1
    19    67    68   ar
    20    66    65    1
    21    77    79   ar
    22    71    70    1
    23    89    90    1
    24    86    88    1
    25    70    63   am
    26    65    62    1
    27    63    62    1
    28    63    64    2
    29   121   120    2
    30    90    91    1
    31    62    61    1
    32   120   119    1
    33    92    91    2
    34    91    93   am
    35    33    34    1
    36    57    56    2
    37     8     6    1
    38    61    56   am
    39   122   119    1
    40   122   123    1
    41   119   118    1
    42    39    37    1
    43    56    55    1
    44    50    51    1
    45    50    53    1
    46    50    49    1
    47    96    95    2
    48    93    99    1
    49    93    94    1
    50     7     6    1
    51    34    37    1
    52    34    35    1
    53   103   102    2
    54    51    52    2
    55     6     5    1
    56   102   101    1
    57    99    98    1
    58   123   124    1
    59   123   125    1
    60    95    94    1
    61    37    38    1
    62   105   104    1
    63    94    97    1
    64    55    54    1
    65    55    58    1
    66    35    36    2
    67   104   101    1
    68   104   106    1
    69     5     2    1
    70   101   100    1
    71    98    97    1
    72     2     1    1
    73     2     3    1
    74    58    59    1
    75    58    60    1
    76     4     3    2
    77     3     9   am
    78   126   127    1
    79   127   130    1
    80   127   128    1
    81   130   131    1
    82    29    28    2
    83    31    30    1
    84    28    27    1
    85     9    10    1
    86   110   109    2
    87   128   132   am
    88   128   129    2
    89    30    27    1
    90    30    32    1
    91    40    41    1
    92    47    48    1
    93    47    46    1
    94    27    26    1
    95   109   108    1
    96   132   133    1
    97    10    11    1
    98   139   137   ar
    99   108   107    1
   100   108   111    1
   101    45    46    1
   102    45    44    1
   103   116   115    1
   104   113   114    1
   105   113   112    1
   106    41    44    1
   107    41    42    1
   108    12    11    2
   109   133   136    1
   110   133   134    1
   111    11    13   am
   112   115   114    2
   113   115   117    1
   114   136   137    1
   115   137   138   ar
   116   112   111    1
   117    42    43    2
   118   135   134    2
   119    13    14    1
   120    14    15    1
   121    14    17    1
   122    16    15    2
   123    15    22   am
   124    22    23    1
   125    18    17    1
   126    18    19    1
   127    23    24    1
   128    19    21   am
   129    19    20    2
   130    24    25    2
