@<TRIPOS>MOLECULE
tmp/3zosA01.pdb
 119 112 0 0 0
SMALL
GASTEIGER

@<TRIPOS>ATOM
      1  N          0.6840    2.0490  -32.6090 N.3   153  ARG153     -0.1245
      2  CA         0.2640    2.1950  -31.2030 C.3   153  ARG153      0.1563
      3  C         -0.9870    1.3990  -30.7310 C.2   153  ARG153      0.2260
      4  O         -1.2610    1.3890  -29.5480 O.2   153  ARG153     -0.2867
      5  CB         0.1220    3.6740  -30.7630 C.3   153  ARG153      0.0307
      6  CG         1.3100    4.5920  -31.0490 C.3   153  ARG153      0.0489
      7  CD         1.1540    5.9650  -30.3910 C.3   153  ARG153      0.2205
      8  NE         2.0880    6.9160  -30.9910 N.pl3 153  ARG153     -0.0865
      9  CZ         1.8240    8.1990  -31.2540 C.cat 153  ARG153      0.5346
     10  NH1        0.6540    8.7620  -30.9410 N.pl3 153  ARG153      0.1354
     11  NH2        2.7530    8.9450  -31.8430 N.pl3 153  ARG153      0.1354
     12  N         -7.0090    3.6560  -17.1540 N.3   187  VAL187     -0.1231
     13  CA        -5.8550    3.9910  -16.3090 C.3   187  VAL187      0.1692
     14  C         -5.9400    5.3310  -15.5740 C.2   187  VAL187      0.2591
     15  O         -5.2810    5.5110  -14.5590 O.2   187  VAL187     -0.2718
     16  CB        -4.5010    3.9280  -17.0690 C.3   187  VAL187      0.0266
     17  CG1       -4.2780    2.5410  -17.6270 C.3   187  VAL187      0.0020
     18  CG2       -4.4040    4.9740  -18.1880 C.3   187  VAL187      0.0020
     19  N         -6.7490    6.2610  -16.0750 N.am  188  GLN188     -0.1979
     20  CA        -6.8020    7.6220  -15.5450 C.3   188  GLN188      0.1601
     21  C         -8.0180    8.2640  -16.1850 C.2   188  GLN188      0.2287
     22  O         -8.2860    7.9880  -17.3590 O.2   188  GLN188     -0.2864
     23  CB        -5.5680    8.4120  -16.0260 C.3   188  GLN188      0.0394
     24  CG        -5.4890    9.8740  -15.5680 C.3   188  GLN188      0.0908
     25  CD        -6.1050   10.9230  -16.5110 C.2   188  GLN188      0.2608
     26  OE1       -6.3520   10.6810  -17.6980 O.2   188  GLN188     -0.2717
     27  NE2       -6.3620   12.1030  -15.9710 N.am  188  GLN188     -0.0878
     28  N         -9.1690    8.0910  -19.9370 N.3   191  ALA191     -0.1245
     29  CA        -8.1960    7.4700  -20.8010 C.3   191  ALA191      0.1562
     30  C         -8.2220    5.9420  -20.6730 C.2   191  ALA191      0.2260
     31  O         -7.9680    5.4260  -19.6150 O.2   191  ALA191     -0.2867
     32  CB        -6.8100    7.9470  -20.4080 C.3   191  ALA191      0.0290
     33  N         -6.6860    2.1630  -22.1870 N.3   193  LEU193     -0.1245
     34  CA        -5.5130    1.6830  -22.8730 C.3   193  LEU193      0.1561
     35  C         -5.5830    0.1710  -23.1140 C.2   193  LEU193      0.2260
     36  O         -6.0640   -0.5710  -22.2430 O.2   193  LEU193     -0.2867
     37  CB        -4.2490    2.0180  -22.0550 C.3   193  LEU193      0.0270
     38  CG        -3.8770    3.5210  -21.8970 C.3   193  LEU193      0.0019
     39  CD1       -2.6930    3.6310  -20.9460 C.3   193  LEU193      0.0001
     40  CD2       -3.5280    4.1240  -23.2480 C.3   193  LEU193      0.0001
     41  N          5.4820    0.6420  -22.4950 N.3   202  CYS202     -0.1221
     42  CA         4.2930    1.4490  -22.8160 C.3   202  CYS202      0.1808
     43  C          3.4910    1.7200  -21.5500 C.2   202  CYS202      0.2601
     44  O          3.0800    2.8530  -21.3070 O.2   202  CYS202     -0.2717
     45  CB         3.3810    0.7430  -23.8190 C.3   202  CYS202      0.0970
     46  SG         4.1710    0.2560  -25.3750 S.3   202  CYS202     -0.0800
     47  N          3.2880    0.6620  -20.7590 N.am  203  ILE203     -0.1965
     48  CA         2.4610    0.7110  -19.5480 C.3   203  ILE203      0.1727
     49  C          3.1670    1.5070  -18.4640 C.2   203  ILE203      0.2616
     50  O          2.5390    2.3140  -17.7660 O.2   203  ILE203     -0.2715
     51  CB         2.0990   -0.7150  -19.0350 C.3   203  ILE203      0.0290
     52  CG1        1.2800   -1.4730  -20.0930 C.3   203  ILE203      0.0022
     53  CG2        1.3260   -0.6640  -17.7080 C.3   203  ILE203      0.0023
     54  CD1        1.0750   -2.9520  -19.8280 C.3   203  ILE203      0.0001
     55  N          4.4620    1.2710  -18.2770 N.am  204  LEU204     -0.1963
     56  CA         5.1660    1.9170  -17.1790 C.3   204  LEU204      0.1728
     57  C          5.5400    3.3550  -17.5110 C.2   204  LEU204      0.2616
     58  O          5.4790    4.2240  -16.6430 O.2   204  LEU204     -0.2715
     59  CB         6.4310    1.1600  -16.7700 C.3   204  LEU204      0.0311
     60  CG         6.2590    0.1490  -15.6250 C.3   204  LEU204      0.0022
     61  CD1        5.2680   -0.9220  -15.9860 C.3   204  LEU204      0.0001
     62  CD2        7.5800   -0.4950  -15.2660 C.3   204  LEU204      0.0001
     63  N          5.9550    3.5970  -18.7550 N.am  205  MET205     -0.1963
     64  CA         6.5390    4.9070  -19.1030 C.3   205  MET205      0.1736
     65  C          5.8900    5.6010  -20.2880 C.2   205  MET205      0.2617
     66  O          6.3970    6.6330  -20.7240 O.2   205  MET205     -0.2715
     67  CB         8.0190    4.7540  -19.4170 C.3   205  MET205      0.0427
     68  CG         8.8870    4.3560  -18.2440 C.3   205  MET205      0.0599
     69  SD         9.7410    2.8110  -18.5950 S.3   205  MET205     -0.1393
     70  CE        10.8570    3.2340  -19.9290 C.3   205  MET205      0.0692
     71  N          4.7680    5.0940  -20.7950 N.am  206  GLY206     -0.1955
     72  CA         4.1180    5.7280  -21.9490 C.3   206  GLY206      0.1869
     73  C          5.0160    5.8700  -23.1780 C.2   206  GLY206      0.2309
     74  O          4.8780    6.8330  -23.9550 O.2   206  GLY206     -0.2863
     75  N          6.0460    4.6240  -26.7440 N.3   208  PHE208     -0.1241
     76  CA         5.5600    3.8750  -27.9030 C.3   208  PHE208      0.1605
     77  C          6.4930    4.0470  -29.0870 C.2   208  PHE208      0.2264
     78  O          6.7940    5.1840  -29.5000 O.2   208  PHE208     -0.2867
     79  CB         4.1580    4.3460  -28.3270 C.3   208  PHE208      0.0534
     80  CG         3.1060    4.1110  -27.2870 C.ar  208  PHE208     -0.0203
     81  CD1        2.9400    5.0120  -26.2280 C.ar  208  PHE208     -0.0042
     82  CD2        2.2970    2.9750  -27.3400 C.ar  208  PHE208     -0.0042
     83  CE1        1.9630    4.7680  -25.2550 C.ar  208  PHE208     -0.0003
     84  CE2        1.3330    2.7370  -26.3870 C.ar  208  PHE208     -0.0003
     85  CZ         1.1610    3.6320  -25.3450 C.ar  208  PHE208     -0.0000
     86  N         -1.2180   -5.2800  -15.4250 N.3   242  ILE242     -0.1245
     87  CA        -0.3480   -4.1460  -15.0650 C.3   242  ILE242      0.1561
     88  C          0.8230   -4.5980  -14.1830 C.2   242  ILE242      0.2260
     89  O          1.9650   -4.2230  -14.4170 O.2   242  ILE242     -0.2867
     90  CB        -1.1770   -2.9960  -14.4600 C.3   242  ILE242      0.0252
     91  CG1       -1.9410   -2.2960  -15.5920 C.3   242  ILE242      0.0019
     92  CG2       -0.3030   -1.9690  -13.7370 C.3   242  ILE242      0.0019
     93  CD1       -3.1970   -1.6080  -15.1500 C.3   242  ILE242      0.0001
     94  N          5.1590   -4.6590  -14.5960 N.3   246  GLY246     -0.1225
     95  CA         6.1180   -4.3500  -13.5600 C.3   246  GLY246      0.1811
     96  C          7.1550   -5.4560  -13.4070 C.2   246  GLY246      0.2280
     97  O          8.3030   -5.1740  -13.1050 O.2   246  GLY246     -0.2866
     98  N          9.8200   -5.2300  -16.0010 N.3   249  PHE249     -0.1227
     99  CA        10.7240   -4.2130  -15.5130 C.3   249  PHE249      0.1736
    100  C         11.7040   -4.7150  -14.4570 C.2   249  PHE249      0.2595
    101  O         12.9070   -4.4780  -14.5740 O.2   249  PHE249     -0.2718
    102  CB         9.9630   -3.0200  -14.9360 C.3   249  PHE249      0.0547
    103  CG        10.8520   -2.0070  -14.2590 C.ar  249  PHE249     -0.0202
    104  CD1       11.7340   -1.2240  -15.0120 C.ar  249  PHE249     -0.0042
    105  CD2       10.8470   -1.8590  -12.8780 C.ar  249  PHE249     -0.0042
    106  CE1       12.5570   -0.2890  -14.3970 C.ar  249  PHE249     -0.0003
    107  CE2       11.6690   -0.9240  -12.2630 C.ar  249  PHE249     -0.0003
    108  CZ        12.5210   -0.1410  -13.0260 C.ar  249  PHE249     -0.0000
    109  N         11.1760   -5.3810  -13.4290 N.am  250  ARG250     -0.1980
    110  CA        11.9890   -5.9280  -12.3550 C.3   250  ARG250      0.1597
    111  C         12.9580   -7.0050  -12.8600 C.2   250  ARG250      0.2287
    112  O         14.0820   -7.0890  -12.3710 O.2   250  ARG250     -0.2864
    113  CB        11.1030   -6.4450  -11.2090 C.3   250  ARG250      0.0334
    114  CG        10.5450   -5.3010  -10.3430 C.3   250  ARG250      0.0492
    115  CD         9.5450   -5.8030   -9.2550 C.3   250  ARG250      0.2205
    116  NE         8.9770   -4.7130   -8.4340 N.pl3 250  ARG250     -0.0865
    117  CZ         8.2760   -3.6810   -8.9210 C.cat 250  ARG250      0.5346
    118  NH1        8.0280   -3.5740  -10.2270 N.pl3 250  ARG250      0.1354
    119  NH2        7.8610   -2.7180   -8.1100 N.pl3 250  ARG250      0.1354
@<TRIPOS>BOND
     1     1     2    1
     2    11     9    1
     3     9     8    2
     4     9    10    1
     5     2     5    1
     6     2     3    1
     7     6     5    1
     8     6     7    1
     9     8     7    1
    10     3     4    2
    11    78    77    2
    12    77    76    1
    13    79    76    1
    14    79    80    1
    15    76    75    1
    16    82    80   ar
    17    82    84   ar
    18    80    81   ar
    19    84    85   ar
    20    81    83   ar
    21    46    45    1
    22    85    83   ar
    23    74    73    2
    24    45    42    1
    25    40    38    1
    26    73    72    1
    27    35    34    1
    28    35    36    2
    29    34    33    1
    30    34    37    1
    31    42    41    1
    32    42    43    1
    33    37    38    1
    34    72    71    1
    35    38    39    1
    36    43    44    2
    37    43    47   am
    38    29    30    1
    39    29    32    1
    40    29    28    1
    41    71    65   am
    42    47    48    1
    43    66    65    2
    44    30    31    2
    45    65    64    1
    46    52    54    1
    47    52    51    1
    48    70    69    1
    49    48    51    1
    50    48    49    1
    51    67    64    1
    52    67    68    1
    53    64    63    1
    54    51    53    1
    55    63    57   am
    56    69    68    1
    57    49    55   am
    58    49    50    2
    59    55    56    1
    60    18    16    1
    61    26    25    2
    62    17    16    1
    63    57    56    1
    64    57    58    2
    65    22    21    2
    66    56    59    1
    67    12    13    1
    68    16    13    1
    69    59    60    1
    70    25    27   am
    71    25    24    1
    72    13    14    1
    73    21    20    1
    74    19    14   am
    75    19    20    1
    76    23    24    1
    77    23    20    1
    78    98    99    1
    79    61    60    1
    80    60    62    1
    81    91    93    1
    82    91    90    1
    83    14    15    2
    84    99   102    1
    85    99   100    1
    86    86    87    1
    87    87    90    1
    88    87    88    1
    89   104   106   ar
    90   104   103   ar
    91   102   103    1
    92    94    95    1
    93   101   100    2
    94    90    92    1
    95   100   109   am
    96    89    88    2
    97   106   108   ar
    98   103   105   ar
    99    95    96    1
   100   109   110    1
   101    96    97    2
   102   108   107   ar
   103   105   107   ar
   104   111   112    2
   105   111   110    1
   106   110   113    1
   107   113   114    1
   108   114   115    1
   109   118   117    1
   110   115   116    1
   111   117   116    2
   112   117   119    1
