@<TRIPOS>MOLECULE
tmp/3zotA00.pdb
 144 141 0 0 0
SMALL
GASTEIGER

@<TRIPOS>ATOM
      1  N          5.4150   -6.4300  -52.8810 N.3    58  MET58      -0.1230
      2  CA         4.1670   -6.5020  -52.1600 C.3    58  MET58       0.1702
      3  C          3.9060   -7.9160  -51.6370 C.2    58  MET58       0.2592
      4  O          3.2550   -8.1030  -50.6090 O.2    58  MET58      -0.2718
      5  CB         3.0390   -6.0620  -53.0940 C.3    58  MET58       0.0401
      6  CG         1.6860   -5.9990  -52.4320 C.3    58  MET58       0.0596
      7  SD         0.7150   -4.5650  -52.9380 S.3    58  MET58      -0.1393
      8  CE        -0.9050   -5.0400  -52.3160 C.3    58  MET58       0.0692
      9  N          4.4190   -8.9030  -52.3640 N.am   59  HIS59      -0.1976
     10  CA         4.2160  -10.3060  -52.0330 C.3    59  HIS59       0.1656
     11  C          4.8960  -10.5740  -50.6940 C.2    59  HIS59       0.2291
     12  O          4.2560  -10.9890  -49.7330 O.2    59  HIS59      -0.2864
     13  CB         4.7990  -11.1790  -53.1570 C.3    59  HIS59       0.0771
     14  CG         4.4210  -12.6250  -53.0750 C.ar   59  HIS59       0.0820
     15  ND1        5.1120  -13.6090  -53.7530 N.ar   59  HIS59      -0.2267
     16  CD2        3.4270  -13.2590  -52.4020 C.ar   59  HIS59       0.1154
     17  CE1        4.5670  -14.7850  -53.4910 C.ar   59  HIS59       0.1986
     18  NE2        3.5460  -14.6020  -52.6700 N.ar   59  HIS59      -0.2212
     19  N          3.4900   -8.0130  -47.6720 N.3    62  PHE62      -0.1227
     20  CA         2.2420   -8.3870  -47.0260 C.3    62  PHE62       0.1736
     21  C          2.3310   -9.7490  -46.3330 C.2    62  PHE62       0.2595
     22  O          1.8300   -9.9050  -45.2170 O.2    62  PHE62      -0.2718
     23  CB         1.0580   -8.3250  -47.9880 C.3    62  PHE62       0.0547
     24  CG         0.3720   -6.9990  -47.9860 C.ar   62  PHE62      -0.0202
     25  CD1       -0.5540   -6.6900  -47.0060 C.ar   62  PHE62      -0.0042
     26  CD2        0.6770   -6.0410  -48.9430 C.ar   62  PHE62      -0.0042
     27  CE1       -1.1790   -5.4580  -46.9880 C.ar   62  PHE62      -0.0003
     28  CE2        0.0550   -4.8040  -48.9370 C.ar   62  PHE62      -0.0003
     29  CZ        -0.8740   -4.5100  -47.9580 C.ar   62  PHE62      -0.0000
     30  N          2.9680  -10.7230  -46.9840 N.am   63  ASN63      -0.1974
     31  CA         3.1530  -12.0370  -46.3580 C.3    63  ASN63       0.1688
     32  C          3.9010  -11.9250  -45.0310 C.2    63  ASN63       0.2292
     33  O          3.4470  -12.4320  -44.0040 O.2    63  ASN63      -0.2864
     34  CB         3.8610  -13.0120  -47.3010 C.3    63  ASN63       0.1181
     35  CG         2.9200  -13.6290  -48.3150 C.2    63  ASN63       0.2629
     36  OD1        1.7230  -13.3450  -48.3370 O.2    63  ASN63      -0.2716
     37  ND2        3.4620  -14.4760  -49.1680 N.am   63  ASN63      -0.0877
     38  N          1.7410  -10.2200  -42.1610 N.3    66  TRP66      -0.1241
     39  CA         0.8540  -11.1930  -41.5340 C.3    66  TRP66       0.1605
     40  C          1.5850  -12.2800  -40.7400 C.2    66  TRP66       0.2264
     41  O          1.1900  -12.5920  -39.6240 O.2    66  TRP66      -0.2867
     42  CB        -0.0530  -11.8160  -42.5740 C.3    66  TRP66       0.0550
     43  CG        -1.1340  -10.8930  -43.0140 C.ar   66  TRP66       0.0003
     44  CD1       -1.1380  -10.1040  -44.1260 C.ar   66  TRP66       0.0946
     45  CD2       -2.3760  -10.6560  -42.3450 C.ar   66  TRP66       0.0152
     46  NE1       -2.3130   -9.4020  -44.1980 N.ar   66  TRP66      -0.2442
     47  CE2       -3.0910   -9.7220  -43.1160 C.ar   66  TRP66       0.0810
     48  CE3       -2.9590  -11.1540  -41.1740 C.ar   66  TRP66       0.0012
     49  CZ2       -4.3590   -9.2730  -42.7570 C.ar   66  TRP66       0.0191
     50  CZ3       -4.2130  -10.7020  -40.8110 C.ar   66  TRP66       0.0001
     51  CH2       -4.9010   -9.7710  -41.6010 C.ar   66  TRP66       0.0015
     52  N          2.0990  -17.8310  -48.5110 N.3   110  SER110     -0.1217
     53  CA         0.6380  -17.6510  -48.4540 C.3   110  SER110      0.1889
     54  C         -0.1220  -18.7750  -47.7720 C.2   110  SER110      0.2288
     55  O         -1.0610  -18.5160  -47.0180 O.2   110  SER110     -0.2866
     56  CB         0.0310  -17.3970  -49.8300 C.3   110  SER110      0.2089
     57  OG         0.4560  -16.1400  -50.3020 O.3   110  SER110     -0.2183
     58  N          0.2850  -18.4420  -44.0760 N.3   113  VAL113     -0.1231
     59  CA        -0.4940  -17.3410  -43.5110 C.3   113  VAL113      0.1692
     60  C         -1.9580  -17.7150  -43.3500 C.2   113  VAL113      0.2592
     61  O         -2.5560  -17.4620  -42.3100 O.2   113  VAL113     -0.2718
     62  CB        -0.3180  -16.0220  -44.3370 C.3   113  VAL113      0.0266
     63  CG1       -1.2760  -14.9410  -43.8550 C.3   113  VAL113      0.0020
     64  CG2        1.1290  -15.5450  -44.2500 C.3   113  VAL113      0.0020
     65  N         -2.5210  -18.3460  -44.3740 N.am  114  TYR114     -0.1976
     66  CA        -3.8830  -18.8720  -44.3240 C.3   114  TYR114      0.1639
     67  C         -4.0760  -19.8200  -43.1400 C.2   114  TYR114      0.2290
     68  O         -5.0880  -19.7690  -42.4420 O.2   114  TYR114     -0.2864
     69  CB        -4.2260  -19.5860  -45.6430 C.3   114  TYR114      0.0560
     70  CG        -4.8830  -18.6880  -46.6790 C.ar  114  TYR114     -0.0198
     71  CD1       -6.2600  -18.4790  -46.6680 C.ar  114  TYR114     -0.0009
     72  CD2       -4.1310  -18.0450  -47.6550 C.ar  114  TYR114     -0.0009
     73  CE1       -6.8680  -17.6590  -47.5920 C.ar  114  TYR114      0.0417
     74  CE2       -4.7370  -17.2160  -48.5910 C.ar  114  TYR114      0.0417
     75  CZ        -6.1070  -17.0320  -48.5500 C.ar  114  TYR114      0.1957
     76  OH        -6.7310  -16.2310  -49.4740 O.3   114  TYR114     -0.2866
     77  N         -3.9450  -17.5740  -39.8340 N.3   117  MET117     -0.1245
     78  CA        -5.1990  -16.8500  -39.6640 C.3   117  MET117      0.1570
     79  C         -6.3440  -17.8000  -39.3000 C.2   117  MET117      0.2261
     80  O         -7.2170  -17.4810  -38.5020 O.2   117  MET117     -0.2867
     81  CB        -5.5230  -16.0700  -40.9410 C.3   117  MET117      0.0387
     82  CG        -6.7380  -15.1670  -40.8530 C.3   117  MET117      0.0595
     83  SD        -8.2610  -16.0980  -41.1130 S.3   117  MET117     -0.1393
     84  CE        -7.8580  -16.9390  -42.6420 C.3   117  MET117      0.0692
     85  N         -8.3250   -9.3980  -42.8230 N.3   142  ALA142     -0.1245
     86  CA        -8.0220  -10.7220  -43.3440 C.3   142  ALA142      0.1562
     87  C         -8.9750  -11.1490  -44.4620 C.2   142  ALA142      0.2260
     88  O         -8.5280  -11.5920  -45.5240 O.2   142  ALA142     -0.2867
     89  CB        -8.0240  -11.7430  -42.2190 C.3   142  ALA142      0.0290
     90  N         -8.3300   -9.8210  -47.8420 N.3   145  TRP145     -0.1227
     91  CA        -7.2550  -10.5280  -48.5560 C.3   145  TRP145      0.1737
     92  C         -7.7190  -11.8690  -49.1100 C.2   145  TRP145      0.2595
     93  O         -7.4240  -12.2080  -50.2460 O.2   145  TRP145     -0.2718
     94  CB        -6.0010  -10.6830  -47.6910 C.3   145  TRP145      0.0564
     95  CG        -5.0280   -9.5430  -47.8570 C.ar  145  TRP145      0.0003
     96  CD1       -4.5030   -8.7640  -46.8670 C.ar  145  TRP145      0.0946
     97  CD2       -4.4800   -9.0430  -49.0920 C.ar  145  TRP145      0.0152
     98  NE1       -3.6540   -7.8160  -47.4040 N.ar  145  TRP145     -0.2442
     99  CE2       -3.6260   -7.9660  -48.7660 C.ar  145  TRP145      0.0810
    100  CE3       -4.6270   -9.4040  -50.4380 C.ar  145  TRP145      0.0012
    101  CZ2       -2.9240   -7.2440  -49.7390 C.ar  145  TRP145      0.0191
    102  CZ3       -3.9310   -8.6850  -51.4060 C.ar  145  TRP145      0.0001
    103  CH2       -3.0890   -7.6190  -51.0490 C.ar  145  TRP145      0.0015
    104  N         -8.4690  -12.6140  -48.3110 N.am  146  ILE146     -0.1980
    105  CA        -9.0950  -13.8430  -48.7750 C.3   146  ILE146      0.1595
    106  C         -9.9550  -13.6170  -50.0150 C.2   146  ILE146      0.2287
    107  O         -9.8770  -14.3820  -50.9820 O.2   146  ILE146     -0.2864
    108  CB        -9.9790  -14.4410  -47.6910 C.3   146  ILE146      0.0276
    109  CG1       -9.1170  -14.9580  -46.5430 C.3   146  ILE146      0.0022
    110  CG2      -10.8210  -15.5550  -48.2510 C.3   146  ILE146      0.0022
    111  CD1       -9.9250  -15.7050  -45.4880 C.3   146  ILE146      0.0001
    112  N         -7.5180  -12.5440  -53.2490 N.3   149  GLY149     -0.1225
    113  CA        -6.9290  -13.7340  -53.8350 C.3   149  GLY149      0.1811
    114  C         -7.9610  -14.6450  -54.4670 C.2   149  GLY149      0.2280
    115  O         -7.7670  -15.1330  -55.5730 O.2   149  GLY149     -0.2866
    116  N         -5.4330   -9.4140  -57.1700 N.3   154  PHE154     -0.1241
    117  CA        -4.0860   -8.9370  -56.8520 C.3   154  PHE154      0.1605
    118  C         -3.0040   -9.6030  -57.7090 C.2   154  PHE154      0.2264
    119  O         -1.9020   -9.0680  -57.8510 O.2   154  PHE154     -0.2867
    120  CB        -3.7780   -9.1070  -55.3540 C.3   154  PHE154      0.0534
    121  CG        -2.3250   -8.8700  -55.0020 C.ar  154  PHE154     -0.0203
    122  CD1       -1.6810   -7.6890  -55.2980 C.ar  154  PHE154     -0.0042
    123  CD2       -1.6090   -9.8840  -54.3490 C.ar  154  PHE154     -0.0042
    124  CE1       -0.3890   -7.4880  -54.9350 C.ar  154  PHE154     -0.0003
    125  CE2       -0.3240   -9.6540  -53.9660 C.ar  154  PHE154     -0.0003
    126  CZ         0.3360   -8.4750  -54.2470 C.ar  154  PHE154     -0.0000
    127  N         -1.4790  -13.6130  -58.0450 N.3   156  MET156     -0.1245
    128  CA        -0.7350  -14.4120  -57.0770 C.3   156  MET156      0.1570
    129  C         -0.4830  -15.8300  -57.5880 C.2   156  MET156      0.2261
    130  O         -1.2990  -16.3920  -58.3250 O.2   156  MET156     -0.2867
    131  CB        -1.4740  -14.4430  -55.7340 C.3   156  MET156      0.0387
    132  CG        -0.6850  -15.1830  -54.6430 C.3   156  MET156      0.0595
    133  SD        -1.3940  -15.0660  -52.9960 S.3   156  MET156     -0.1393
    134  CE        -1.5680  -13.2780  -52.8050 C.3   156  MET156      0.0692
    135  N         -4.6300  -22.3620  -50.9830 N.3   161  HIS161     -0.1241
    136  CA        -4.9460  -21.4750  -49.8500 C.3   161  HIS161      0.1621
    137  C         -5.9600  -22.1070  -48.9100 C.2   161  HIS161      0.2264
    138  O         -5.8340  -21.9980  -47.6980 O.2   161  HIS161     -0.2867
    139  CB        -5.4520  -20.1270  -50.3450 C.3   161  HIS161      0.0745
    140  CG        -4.4050  -19.3240  -51.0460 C.ar  161  HIS161      0.0817
    141  ND1       -4.7070  -18.2850  -51.9010 N.ar  161  HIS161     -0.2268
    142  CD2       -3.0550  -19.4140  -51.0260 C.ar  161  HIS161      0.1154
    143  CE1       -3.5860  -17.7710  -52.3780 C.ar  161  HIS161      0.1986
    144  NE2       -2.5690  -18.4400  -51.8640 N.ar  161  HIS161     -0.2212
@<TRIPOS>BOND
     1   130   129    2
     2   127   128    1
     3   119   118    2
     4   118   117    1
     5   129   128    1
     6   116   117    1
     7   128   131    1
     8   117   120    1
     9   131   132    1
    10   115   114    2
    11   120   121    1
    12   122   121   ar
    13   122   124   ar
    14   121   123   ar
    15   124   126   ar
    16   132   133    1
    17   114   113    1
    18   123   125   ar
    19   126   125   ar
    20   113   112    1
    21    15    17   ar
    22    15    14   ar
    23    17    18   ar
    24    13    14    1
    25    13    10    1
    26     5     6    1
    27     5     2    1
    28    14    16   ar
    29   133   134    1
    30     7     6    1
    31     7     8    1
    32     1     2    1
    33    18    16   ar
    34   143   141   ar
    35   143   144   ar
    36     9    10    1
    37     9     3   am
    38     2     3    1
    39    10    11    1
    40   141   140   ar
    41   144   142   ar
    42     3     4    2
    43   102   103   ar
    44   102   100   ar
    45   103   101   ar
    46   140   142   ar
    47   140   139    1
    48   135   136    1
    49   107   106    2
    50    11    12    2
    51   100    97   ar
    52   139   136    1
    53    57    56    1
    54    93    92    2
    55   106   105    1
    56   136   137    1
    57    56    53    1
    58   101    99   ar
    59    76    75    1
    60    37    35   am
    61    92    91    1
    62    92   104   am
    63    97    99   ar
    64    97    95   ar
    65    26    28   ar
    66    26    24   ar
    67    28    29   ar
    68   137   138    2
    69   105   104    1
    70   105   108    1
    71    99    98   ar
    72    74    75   ar
    73    74    72   ar
    74    91    90    1
    75    91    94    1
    76    75    73   ar
    77    52    53    1
    78    53    54    1
    79    36    35    2
    80    35    34    1
    81   110   108    1
    82    23    24    1
    83    23    20    1
    84    24    25   ar
    85    29    27   ar
    86    95    94    1
    87    95    96   ar
    88    54    55    2
    89   108   109    1
    90    19    20    1
    91    72    70   ar
    92    73    71   ar
    93    98    96   ar
    94    34    31    1
    95    20    21    1
    96    25    27   ar
    97    30    31    1
    98    30    21   am
    99    70    71   ar
   100    70    69    1
   101   109   111    1
   102    31    32    1
   103    21    22    2
   104    69    66    1
   105    88    87    2
   106    32    33    2
   107    87    86    1
   108    65    66    1
   109    65    60   am
   110    62    64    1
   111    62    63    1
   112    62    59    1
   113    66    67    1
   114    46    44   ar
   115    46    47   ar
   116    44    43   ar
   117    58    59    1
   118    59    60    1
   119    60    61    2
   120    86    85    1
   121    86    89    1
   122    67    68    2
   123    47    49   ar
   124    47    45   ar
   125    43    42    1
   126    43    45   ar
   127    49    51   ar
   128    84    83    1
   129    42    39    1
   130    45    48   ar
   131    38    39    1
   132    51    50   ar
   133    39    40    1
   134    48    50   ar
   135    83    82    1
   136    81    82    1
   137    81    78    1
   138    40    41    2
   139    77    78    1
   140    78    79    1
   141    79    80    2
