@<TRIPOS>MOLECULE
tmp/3zovA00.pdb
 210 201 0 0 0
SMALL
GASTEIGER

@<TRIPOS>ATOM
      1  N        -27.3500   41.2750   82.6750 N.3    14  LYS14      -0.1231
      2  CA       -28.2510   42.4090   82.6630 C.3    14  LYS14       0.1693
      3  C        -27.4360   43.5610   83.1830 C.2    14  LYS14       0.2593
      4  O        -26.5920   43.3900   84.0920 O.2    14  LYS14      -0.2718
      5  CB       -29.4630   42.1860   83.5510 C.3    14  LYS14       0.0285
      6  CG       -30.4350   41.0890   83.0790 C.3    14  LYS14       0.0035
      7  CD       -31.8900   41.6100   83.0050 C.3    14  LYS14       0.0206
      8  CE       -32.1640   42.8170   83.9370 C.3    14  LYS14       0.1093
      9  NZ       -32.0710   42.4960   85.3920 N.3    14  LYS14      -0.1314
     10  N        -27.6510   44.7310   82.5870 N.am   15  SER15      -0.1938
     11  CA       -26.8710   45.8990   82.9680 C.3    15  SER15       0.2055
     12  C        -26.7900   45.9560   84.4920 C.2    15  SER15       0.2644
     13  O        -27.8050   45.8560   85.2140 O.2    15  SER15      -0.2714
     14  CB       -27.4520   47.1970   82.3810 C.3    15  SER15       0.2130
     15  OG       -26.7120   48.3270   82.8310 O.3    15  SER15      -0.2179
     16  N        -25.5560   46.0530   84.9650 N.am   16  GLY16      -0.1939
     17  CA       -25.2900   46.1940   86.3710 C.3    16  GLY16       0.2014
     18  C        -25.2240   44.9110   87.1620 C.2    16  GLY16       0.2639
     19  O        -24.7420   44.9400   88.2910 O.2    16  GLY16      -0.2714
     20  N        -25.6960   43.7900   86.6140 N.am   17  GLN17      -0.1963
     21  CA       -25.7690   42.5690   87.4450 C.3    17  GLN17       0.1733
     22  C        -24.6630   41.5410   87.2000 C.2    17  GLN17       0.2617
     23  O        -24.5400   40.5940   87.9700 O.2    17  GLN17      -0.2715
     24  CB       -27.1540   41.9100   87.3850 C.3    17  GLN17       0.0408
     25  CG       -28.3010   42.7540   87.9810 C.3    17  GLN17       0.0908
     26  CD       -29.6850   42.1310   87.7480 C.2    17  GLN17       0.2608
     27  OE1      -29.8490   41.2020   86.9480 O.2    17  GLN17      -0.2717
     28  NE2      -30.6820   42.6510   88.4390 N.am   17  GLN17      -0.0878
     29  N        -23.8620   41.7270   86.1500 N.am   18  GLY18      -0.1940
     30  CA       -22.7090   40.8480   85.8860 C.3    18  GLY18       0.2014
     31  C        -22.9050   39.8670   84.7350 C.2    18  GLY18       0.2638
     32  O        -24.0310   39.6550   84.2920 O.2    18  GLY18      -0.2714
     33  N        -21.8240   39.2650   84.2490 N.am   19  TYR19      -0.1973
     34  CA       -21.9450   38.2860   83.1600 C.3    19  TYR19       0.1639
     35  C        -21.8740   36.8690   83.7190 C.2    19  TYR19       0.2290
     36  O        -21.0290   36.5640   84.5430 O.2    19  TYR19      -0.2864
     37  CB       -20.8900   38.4900   82.0470 C.3    19  TYR19       0.0560
     38  CG       -20.9650   39.8350   81.3330 C.ar   19  TYR19      -0.0198
     39  CD1      -20.6300   41.0110   81.9960 C.ar   19  TYR19      -0.0009
     40  CD2      -21.3500   39.9180   79.9830 C.ar   19  TYR19      -0.0009
     41  CE1      -20.6930   42.2260   81.3590 C.ar   19  TYR19       0.0417
     42  CE2      -21.4100   41.1470   79.3190 C.ar   19  TYR19       0.0417
     43  CZ       -21.0810   42.2930   80.0210 C.ar   19  TYR19       0.1957
     44  OH       -21.1230   43.5240   79.4190 O.3    19  TYR19      -0.2866
     45  N        -22.0000   33.4240   87.6930 N.3    35  LEU35      -0.1245
     46  CA       -21.2720   34.6660   87.4810 C.3    35  LEU35       0.1561
     47  C        -19.8130   34.3930   87.1660 C.2    35  LEU35       0.2260
     48  O        -19.1450   33.6560   87.8900 O.2    35  LEU35      -0.2867
     49  CB       -21.3240   35.5370   88.7430 C.3    35  LEU35       0.0270
     50  CG       -20.6590   36.9070   88.5570 C.3    35  LEU35       0.0019
     51  CD1      -21.5180   37.8330   87.6800 C.3    35  LEU35       0.0001
     52  CD2      -20.3310   37.5690   89.8800 C.3    35  LEU35       0.0001
     53  N        -16.1470   35.4550   87.2470 N.3    37  ASP37      -0.1239
     54  CA       -15.4380   36.3800   88.1330 C.3    37  ASP37       0.1674
     55  C        -13.9510   36.1410   88.0860 C.2    37  ASP37       0.2266
     56  O        -13.4720   35.1630   88.6630 O.2    37  ASP37      -0.2867
     57  CB       -15.9230   36.1810   89.5790 C.3    37  ASP37       0.1410
     58  CG       -15.3780   37.2340   90.5490 C.2    37  ASP37       0.3668
     59  OD1      -14.8940   38.2900   90.1050 O.co2  37  ASP37      -0.2456
     60  OD2      -15.4610   37.0310   91.7780 O.co2  37  ASP37      -0.2456
     61  N        -11.9140   38.0760   89.5570 N.3    39  GLY39      -0.1210
     62  CA       -11.4200   38.6370   90.8150 C.3    39  GLY39       0.1956
     63  C        -11.5360   37.7900   92.0670 C.2    39  GLY39       0.2612
     64  O        -11.2920   38.2880   93.1600 O.2    39  GLY39      -0.2717
     65  N        -11.8910   36.5170   91.9270 N.am   40  SER40      -0.1952
     66  CA       -11.9690   35.6190   93.0890 C.3    40  SER40       0.1924
     67  C        -11.6700   34.1920   92.6350 C.2    40  SER40       0.2314
     68  O        -11.5650   33.9400   91.4250 O.2    40  SER40      -0.2863
     69  CB       -13.3450   35.7230   93.7530 C.3    40  SER40       0.2116
     70  OG       -14.3580   35.1310   92.9580 O.3    40  SER40      -0.2180
     71  N        -16.9140   39.7830  102.6950 N.3    76  TYR76      -0.1227
     72  CA       -16.4150   40.7950  101.7510 C.3    76  TYR76       0.1736
     73  C        -16.5890   42.1840  102.3450 C.2    76  TYR76       0.2596
     74  O        -17.1460   42.3280  103.4330 O.2    76  TYR76      -0.2718
     75  CB       -17.2050   40.7730  100.4420 C.3    76  TYR76       0.0548
     76  CG       -17.2410   39.4540   99.7460 C.ar   76  TYR76      -0.0200
     77  CD1      -16.0770   38.8890   99.2190 C.ar   76  TYR76      -0.0009
     78  CD2      -18.4450   38.7640   99.6050 C.ar   76  TYR76      -0.0009
     79  CE1      -16.1010   37.6570   98.5740 C.ar   76  TYR76       0.0417
     80  CE2      -18.4840   37.5540   98.9550 C.ar   76  TYR76       0.0417
     81  CZ       -17.3110   37.0050   98.4420 C.ar   76  TYR76       0.1957
     82  OH       -17.3610   35.7990   97.7970 O.3    76  TYR76      -0.2866
     83  N        -16.1720   43.2080  101.6020 N.am   77  THR77      -0.1953
     84  CA       -16.2930   44.5870  102.0700 C.3    77  THR77       0.1897
     85  C        -17.7160   44.8920  102.5410 C.2    77  THR77       0.2313
     86  O        -17.9140   45.4740  103.6160 O.2    77  THR77      -0.2863
     87  CB       -15.7940   45.5990  101.0140 C.3    77  THR77       0.1794
     88  OG1      -14.4180   45.3230  100.7390 O.3    77  THR77      -0.2208
     89  CG2      -15.9020   47.0400  101.5350 C.3    77  THR77       0.0378
     90  N        -26.3300   39.9760  101.5570 N.3   112  LYS112     -0.1231
     91  CA       -25.9140   41.0000  100.5840 C.3   112  LYS112      0.1693
     92  C        -25.0390   40.4030   99.4710 C.2   112  LYS112      0.2592
     93  O        -24.2460   41.1030   98.8380 O.2   112  LYS112     -0.2718
     94  CB       -25.2150   42.1900  101.2910 C.3   112  LYS112      0.0285
     95  CG       -26.1830   43.1530  101.9950 C.3   112  LYS112      0.0035
     96  CD       -25.4630   44.2680  102.7640 C.3   112  LYS112      0.0206
     97  CE       -26.3400   44.8990  103.8560 C.3   112  LYS112      0.1093
     98  NZ       -27.5010   45.6790  103.2940 N.3   112  LYS112     -0.1314
     99  N        -25.2120   39.1050   99.2320 N.am  113  PHE113     -0.1976
    100  CA       -24.4420   38.3880   98.2230 C.3   113  PHE113      0.1639
    101  C        -25.2440   38.2390   96.9200 C.2   113  PHE113      0.2290
    102  O        -24.8540   38.7890   95.8870 O.2   113  PHE113     -0.2864
    103  CB       -23.9820   37.0520   98.7750 C.3   113  PHE113      0.0560
    104  CG       -23.2140   36.2210   97.7950 C.ar  113  PHE113     -0.0200
    105  CD1      -21.9060   36.5680   97.4220 C.ar  113  PHE113     -0.0042
    106  CD2      -23.7820   35.0870   97.2420 C.ar  113  PHE113     -0.0042
    107  CE1      -21.1990   35.7970   96.5200 C.ar  113  PHE113     -0.0003
    108  CE2      -23.0790   34.3110   96.3370 C.ar  113  PHE113     -0.0003
    109  CZ       -21.7850   34.6590   95.9840 C.ar  113  PHE113     -0.0000
    110  N        -28.3480   38.8360   94.2680 N.3   115  ILE115     -0.1245
    111  CA       -28.9530   40.0860   93.8640 C.3   115  ILE115      0.1561
    112  C        -30.4190   39.8240   93.5770 C.2   115  ILE115      0.2260
    113  O        -30.7510   38.9240   92.8040 O.2   115  ILE115     -0.2867
    114  CB       -28.2420   40.6620   92.6180 C.3   115  ILE115      0.0252
    115  CG1      -26.7810   41.0280   92.9530 C.3   115  ILE115      0.0019
    116  CG2      -29.0420   41.8280   92.0050 C.3   115  ILE115      0.0019
    117  CD1      -26.0010   41.6190   91.7550 C.3   115  ILE115      0.0001
    118  N        -28.4680   34.8630   88.1590 N.3   120  TRP120     -0.1241
    119  CA       -27.4170   33.8890   88.5060 C.3   120  TRP120      0.1605
    120  C        -27.5650   33.3270   89.9230 C.2   120  TRP120      0.2264
    121  O        -28.2090   33.9450   90.7850 O.2   120  TRP120     -0.2867
    122  CB       -25.9990   34.4100   88.2080 C.3   120  TRP120      0.0550
    123  CG       -25.6500   35.7330   88.8460 C.ar  120  TRP120      0.0003
    124  CD1      -25.7550   36.9830   88.2730 C.ar  120  TRP120      0.0946
    125  CD2      -25.1410   35.9410   90.1750 C.ar  120  TRP120      0.0152
    126  NE1      -25.3340   37.9380   89.1600 N.ar  120  TRP120     -0.2442
    127  CE2      -24.9590   37.3300   90.3360 C.ar  120  TRP120      0.0810
    128  CE3      -24.8250   35.0830   91.2470 C.ar  120  TRP120      0.0012
    129  CZ2      -24.4620   37.8880   91.5300 C.ar  120  TRP120      0.0191
    130  CZ3      -24.3330   35.6280   92.4230 C.ar  120  TRP120      0.0001
    131  CH2      -24.1610   37.0170   92.5590 C.ar  120  TRP120      0.0015
    132  N        -21.1650   31.7060   91.7050 N.3   123  ILE123     -0.1245
    133  CA       -20.0240   32.4610   91.1950 C.3   123  ILE123      0.1561
    134  C        -18.8140   31.5760   90.8800 C.2   123  ILE123      0.2260
    135  O        -18.4160   30.7250   91.6940 O.2   123  ILE123     -0.2867
    136  CB       -19.6090   33.5530   92.1960 C.3   123  ILE123      0.0252
    137  CG1      -18.6590   34.5480   91.5430 C.3   123  ILE123      0.0019
    138  CG2      -18.9770   32.9340   93.4390 C.3   123  ILE123      0.0019
    139  CD1      -18.3090   35.6560   92.4450 C.3   123  ILE123      0.0001
    140  N        -27.4800   42.3880   77.9950 N.3   163  VAL163     -0.1245
    141  CA       -26.1010   42.2540   77.4940 C.3   163  VAL163      0.1561
    142  C        -25.6420   40.7990   77.2590 C.2   163  VAL163      0.2260
    143  O        -26.2460   39.8490   77.7650 O.2   163  VAL163     -0.2867
    144  CB       -25.0640   43.0180   78.3810 C.3   163  VAL163      0.0252
    145  CG1      -25.4280   44.5180   78.5040 C.3   163  VAL163      0.0019
    146  CG2      -24.8930   42.3630   79.7590 C.3   163  VAL163      0.0019
    147  N        -10.6060   42.4530   86.8270 N.3   221  ASP221     -0.1225
    148  CA       -11.7020   41.8110   87.5960 C.3   221  ASP221      0.1805
    149  C        -13.0440   41.9160   86.8830 C.2   221  ASP221      0.2598
    150  O        -13.6400   42.9960   86.8480 O.2   221  ASP221     -0.2718
    151  CB       -11.8140   42.4930   88.9550 C.3   221  ASP221      0.1424
    152  CG       -12.7690   41.7820   89.9040 C.2   221  ASP221      0.3668
    153  OD1      -13.2940   40.6760   89.5790 O.co2 221  ASP221     -0.2456
    154  OD2      -12.9720   42.3440   91.0020 O.co2 221  ASP221     -0.2456
    155  N        -13.5290   40.8110   86.3250 N.am  222  SER222     -0.1938
    156  CA       -14.8050   40.8160   85.6210 C.3   222  SER222      0.2055
    157  C        -15.9750   40.8840   86.6080 C.2   222  SER222      0.2644
    158  O        -17.1110   41.1130   86.2110 O.2   222  SER222     -0.2714
    159  CB       -14.9390   39.5990   84.7040 C.3   222  SER222      0.2130
    160  OG       -14.9170   38.3940   85.4390 O.3   222  SER222     -0.2179
    161  N        -15.6720   40.7170   87.8920 N.am  223  GLY223     -0.1939
    162  CA       -16.6940   40.7810   88.9580 C.3   223  GLY223      0.2014
    163  C        -16.8260   42.1370   89.6350 C.2   223  GLY223      0.2640
    164  O        -17.4030   42.2340   90.7000 O.2   223  GLY223     -0.2714
    165  N        -16.2690   43.1700   89.0170 N.am  224  THR224     -0.1936
    166  CA       -16.4000   44.5550   89.4590 C.3   224  THR224      0.2028
    167  C        -16.9470   45.3570   88.2790 C.2   224  THR224      0.2642
    168  O        -16.5640   45.1360   87.1490 O.2   224  THR224     -0.2714
    169  CB       -15.0330   45.1390   89.8510 C.3   224  THR224      0.1808
    170  OG1      -14.5640   44.4760   91.0250 O.3   224  THR224     -0.2208
    171  CG2      -15.1110   46.6110   90.1240 C.3   224  THR224      0.0379
    172  N        -17.8570   46.2750   88.5430 N.am  225  THR225     -0.1950
    173  CA       -18.4380   47.0960   87.4950 C.3   225  THR225      0.1897
    174  C        -17.4490   48.1890   87.1100 C.2   225  THR225      0.2313
    175  O        -17.1300   48.3710   85.9350 O.2   225  THR225     -0.2863
    176  CB       -19.8180   47.7180   87.9570 C.3   225  THR225      0.1794
    177  OG1      -20.7850   46.6700   88.1320 O.3   225  THR225     -0.2208
    178  CG2      -20.3690   48.7060   86.9290 C.3   225  THR225      0.0378
    179  N        -22.0090   54.7210   82.7090 N.3   300  ARG300     -0.1245
    180  CA       -22.8940   53.5740   82.4960 C.3   300  ARG300      0.1563
    181  C        -24.3670   53.9190   82.7340 C.2   300  ARG300      0.2260
    182  O        -24.7240   54.4160   83.8090 O.2   300  ARG300     -0.2867
    183  CB       -22.4430   52.3310   83.2930 C.3   300  ARG300      0.0307
    184  CG       -22.9780   52.2090   84.7160 C.3   300  ARG300      0.0489
    185  CD       -23.0000   50.7450   85.1570 C.3   300  ARG300      0.2205
    186  NE       -23.1970   50.5910   86.5960 N.pl3 300  ARG300     -0.0865
    187  CZ       -24.3770   50.6650   87.2020 C.cat 300  ARG300      0.5346
    188  NH1      -25.4740   50.9020   86.4950 N.pl3 300  ARG300      0.1354
    189  NH2      -24.4620   50.5080   88.5150 N.pl3 300  ARG300      0.1354
    190  N        -15.5920   45.6220   84.6820 N.3   321  ALA321     -0.1231
    191  CA       -16.3150   45.4690   83.4250 C.3   321  ALA321      0.1694
    192  C        -16.3800   46.7600   82.5860 C.2   321  ALA321      0.2591
    193  O        -16.6960   46.7260   81.3980 O.2   321  ALA321     -0.2718
    194  CB       -17.7000   44.9040   83.6880 C.3   321  ALA321      0.0304
    195  N        -16.0480   47.8870   83.2100 N.am  322  VAL322     -0.1980
    196  CA       -15.9230   49.1720   82.5240 C.3   322  VAL322      0.1595
    197  C        -14.8210   49.1500   81.4580 C.2   322  VAL322      0.2287
    198  O        -15.1110   49.3620   80.2830 O.2   322  VAL322     -0.2864
    199  CB       -15.7510   50.3530   83.5290 C.3   322  VAL322      0.0276
    200  CG1      -15.1910   51.6020   82.8340 C.3   322  VAL322      0.0022
    201  CG2      -17.0890   50.6910   84.1600 C.3   322  VAL322      0.0022
    202  N        -15.2120   45.8080   78.8250 N.3   325  GLU325     -0.1245
    203  CA       -16.1740   45.9350   77.7240 C.3   325  GLU325      0.1567
    204  C        -15.5880   46.5730   76.4540 C.2   325  GLU325      0.2260
    205  O        -16.0720   46.3260   75.3510 O.2   325  GLU325     -0.2867
    206  CB       -17.4820   46.6110   78.1650 C.3   325  GLU325      0.0388
    207  CG       -18.4290   45.6610   78.9270 C.3   325  GLU325      0.1160
    208  CD       -19.5990   46.3600   79.6210 C.2   325  GLU325      0.3649
    209  OE1      -19.7880   47.5840   79.4150 O.co2 325  GLU325     -0.2457
    210  OE2      -20.3410   45.6730   80.3750 O.co2 325  GLU325     -0.2457
@<TRIPOS>BOND
     1   205   204    2
     2   204   203    1
     3   142   141    1
     4   142   143    2
     5   141   140    1
     6   141   144    1
     7   203   206    1
     8   203   202    1
     9   206   207    1
    10   144   145    1
    11   144   146    1
    12   207   208    1
    13    42    40   ar
    14    42    43   ar
    15   209   208   ar
    16    44    43    1
    17   208   210   ar
    18    40    38   ar
    19    43    41   ar
    20   198   197    2
    21    38    39   ar
    22    38    37    1
    23    41    39   ar
    24   193   192    2
    25   197   196    1
    26    37    34    1
    27    14    15    1
    28    14    11    1
    29   180   179    1
    30   180   181    1
    31   180   183    1
    32   196   195    1
    33   196   199    1
    34   192   195   am
    35   192   191    1
    36    10    11    1
    37    10     3   am
    38     2     1    1
    39     2     3    1
    40     2     5    1
    41   181   182    2
    42   200   199    1
    43    11    12    1
    44     7     6    1
    45     7     8    1
    46     6     5    1
    47    34    35    1
    48    34    33    1
    49     3     4    2
    50   183   184    1
    51   191   194    1
    52   191   190    1
    53   199   201    1
    54    35    36    2
    55     8     9    1
    56    33    31   am
    57    32    31    2
    58    12    16   am
    59    12    13    2
    60   159   160    1
    61   159   156    1
    62   184   185    1
    63    31    30    1
    64    16    17    1
    65   185   186    1
    66   156   155    1
    67   156   157    1
    68    30    29    1
    69   175   174    2
    70    29    22   am
    71   158   157    2
    72   155   149   am
    73    17    18    1
    74   188   187    1
    75   186   187    2
    76   157   161   am
    77    20    18   am
    78    20    21    1
    79   147   148    1
    80   150   149    2
    81   149   148    1
    82   178   176    1
    83    27    26    2
    84   174   173    1
    85   168   167    2
    86    18    19    2
    87    47    46    1
    88    47    48    2
    89    22    21    1
    90    22    23    2
    91   187   189    1
    92    53    54    1
    93    24    21    1
    94    24    25    1
    95    46    45    1
    96    46    49    1
    97   173   176    1
    98   173   172    1
    99   148   151    1
   100    51    50    1
   101    26    25    1
   102    26    28   am
   103   161   162    1
   104   176   177    1
   105    55    54    1
   106    55    56    2
   107    54    57    1
   108   118   119    1
   109   122   119    1
   110   122   123    1
   111   124   123   ar
   112   124   126   ar
   113   167   172   am
   114   167   166    1
   115   119   120    1
   116    50    49    1
   117    50    52    1
   118   123   125   ar
   119   151   152    1
   120   162   163    1
   121   165   166    1
   122   165   163   am
   123   126   127   ar
   124   166   169    1
   125    61    62    1
   126   153   152   ar
   127    57    58    1
   128   163   164    2
   129   169   171    1
   130   169   170    1
   131   152   154   ar
   132   120   121    2
   133    59    58   ar
   134   125   127   ar
   135   125   128   ar
   136   127   129   ar
   137    58    60   ar
   138    62    63    1
   139   134   133    1
   140   134   135    2
   141   133   132    1
   142   133   136    1
   143   128   130   ar
   144    68    67    2
   145   129   131   ar
   146   137   136    1
   147   137   139    1
   148   117   115    1
   149    65    63   am
   150    65    66    1
   151   116   114    1
   152    63    64    2
   153   136   138    1
   154   130   131   ar
   155   114   115    1
   156   114   111    1
   157    67    66    1
   158   113   112    2
   159    70    69    1
   160    66    69    1
   161   112   111    1
   162   111   110    1
   163   102   101    2
   164   109   108   ar
   165   109   107   ar
   166   108   106   ar
   167   107   105   ar
   168   101   100    1
   169   106   104   ar
   170   105   104   ar
   171   104   103    1
   172    82    81    1
   173   100   103    1
   174   100    99    1
   175    81    79   ar
   176    81    80   ar
   177    79    77   ar
   178    93    92    2
   179    80    78   ar
   180    77    76   ar
   181    99    92   am
   182    92    91    1
   183    78    76   ar
   184    76    75    1
   185    75    72    1
   186    91    94    1
   187    91    90    1
   188    88    87    1
   189    87    89    1
   190    87    84    1
   191    94    95    1
   192    83    84    1
   193    83    73   am
   194    72    73    1
   195    72    71    1
   196    95    96    1
   197    84    85    1
   198    73    74    2
   199    85    86    2
   200    96    97    1
   201    98    97    1
