@<TRIPOS>MOLECULE
tmp/3zp2A00.pdb
 128 121 0 0 0
SMALL
GASTEIGER

@<TRIPOS>ATOM
      1  N        -26.2450   31.1500   87.3400 N.3    91  TYR91      -0.1241
      2  CA       -26.8610   30.4520   88.4540 C.3    91  TYR91       0.1605
      3  C        -28.1390   29.8320   87.9230 C.2    91  TYR91       0.2264
      4  O        -28.9680   30.5320   87.3700 O.2    91  TYR91      -0.2867
      5  CB       -27.1920   31.4500   89.5540 C.3    91  TYR91       0.0534
      6  CG       -27.6290   30.8250   90.8480 C.ar   91  TYR91      -0.0201
      7  CD1      -26.7220   30.5780   91.8590 C.ar   91  TYR91      -0.0009
      8  CD2      -28.9490   30.4920   91.0640 C.ar   91  TYR91      -0.0009
      9  CE1      -27.1170   30.0100   93.0470 C.ar   91  TYR91       0.0417
     10  CE2      -29.3510   29.9220   92.2490 C.ar   91  TYR91       0.0417
     11  CZ       -28.4270   29.6860   93.2340 C.ar   91  TYR91       0.1957
     12  OH       -28.8190   29.1220   94.4120 O.3    91  TYR91      -0.2866
     13  N        -23.4120   40.8310   99.7790 N.3   129  LEU129     -0.1231
     14  CA       -23.1380   39.4360  100.1020 C.3   129  LEU129      0.1693
     15  C        -23.8340   38.4350   99.1850 C.2   129  LEU129      0.2593
     16  O        -23.4980   37.2530   99.2020 O.2   129  LEU129     -0.2718
     17  CB       -23.4760   39.1340  101.5640 C.3   129  LEU129      0.0284
     18  CG       -22.6760   39.7640  102.7180 C.3   129  LEU129      0.0019
     19  CD1      -23.0520   39.0660  104.0260 C.3   129  LEU129      0.0001
     20  CD2      -21.1520   39.7430  102.5080 C.3   129  LEU129      0.0001
     21  N        -24.7880   38.9050   98.3830 N.am  130  GLY130     -0.1942
     22  CA       -25.5250   38.0330   97.4680 C.3   130  GLY130      0.2014
     23  C        -24.7180   37.6390   96.2410 C.2   130  GLY130      0.2639
     24  O        -24.9480   38.1580   95.1410 O.2   130  GLY130     -0.2714
     25  N        -23.7830   36.7100   96.4370 N.am  131  VAL131     -0.1963
     26  CA       -22.8270   36.2980   95.4070 C.3   131  VAL131      0.1727
     27  C        -22.6180   34.7860   95.4350 C.2   131  VAL131      0.2617
     28  O        -22.6540   34.1690   96.4980 O.2   131  VAL131     -0.2715
     29  CB       -21.4520   37.0050   95.5800 C.3   131  VAL131      0.0290
     30  CG1      -21.5410   38.4990   95.2390 C.3   131  VAL131      0.0023
     31  CG2      -20.8970   36.7980   96.9900 C.3   131  VAL131      0.0023
     32  N        -22.3960   34.1950   94.2640 N.am  132  SER132     -0.1936
     33  CA       -22.2130   32.7440   94.1410 C.3   132  SER132      0.2055
     34  C        -20.9430   32.4000   93.3730 C.2   132  SER132      0.2643
     35  O        -20.4930   33.1780   92.5310 O.2   132  SER132     -0.2714
     36  CB       -23.4250   32.1030   93.4520 C.3   132  SER132      0.2130
     37  OG       -23.3350   30.6850   93.4550 O.3   132  SER132     -0.2179
     38  N        -20.3740   31.2310   93.6560 N.am  133  SER133     -0.1949
     39  CA       -19.1900   30.7680   92.9320 C.3   133  SER133      0.1924
     40  C        -19.5160   30.2760   91.5120 C.2   133  SER133      0.2314
     41  O        -18.6150   30.1200   90.6870 O.2   133  SER133     -0.2863
     42  CB       -18.4380   29.7010   93.7360 C.3   133  SER133      0.2116
     43  OG       -19.3330   28.7390   94.2580 O.3   133  SER133     -0.2180
     44  N        -16.3230   35.0070   93.6760 N.3   141  SER141     -0.1217
     45  CA       -17.7690   34.7840   93.6230 C.3   141  SER141      0.1889
     46  C        -18.5200   36.0880   93.3380 C.2   141  SER141      0.2288
     47  O        -18.4350   37.0420   94.1140 O.2   141  SER141     -0.2866
     48  CB       -18.2670   34.1510   94.9230 C.3   141  SER141      0.2089
     49  OG       -17.7250   32.8550   95.0870 O.3   141  SER141     -0.2183
     50  N        -29.0170   40.4570   94.7770 N.3   149  TRP149     -0.1241
     51  CA       -29.4300   39.3920   95.6810 C.3   149  TRP149      0.1605
     52  C        -29.3260   39.8880   97.1370 C.2   149  TRP149      0.2264
     53  O        -28.2400   39.9450   97.7080 O.2   149  TRP149     -0.2867
     54  CB       -28.5350   38.1800   95.4610 C.3   149  TRP149      0.0550
     55  CG       -28.9830   36.9260   96.1290 C.ar  149  TRP149      0.0003
     56  CD1      -30.0170   36.7790   97.0080 C.ar  149  TRP149      0.0946
     57  CD2      -28.3830   35.6350   95.9960 C.ar  149  TRP149      0.0152
     58  NE1      -30.1150   35.4670   97.4090 N.ar  149  TRP149     -0.2442
     59  CE2      -29.1170   34.7460   96.8110 C.ar  149  TRP149      0.0810
     60  CE3      -27.3000   35.1390   95.2590 C.ar  149  TRP149      0.0012
     61  CZ2      -28.8050   33.3890   96.9140 C.ar  149  TRP149      0.0191
     62  CZ3      -26.9860   33.7840   95.3630 C.ar  149  TRP149      0.0001
     63  CH2      -27.7410   32.9270   96.1840 C.ar  149  TRP149      0.0015
     64  N        -29.6390   39.8830  101.1410 N.3   151  ILE151     -0.1245
     65  CA       -29.5060   38.9660  102.2880 C.3   151  ILE151      0.1561
     66  C        -29.7670   39.7250  103.6000 C.2   151  ILE151      0.2260
     67  O        -29.6220   40.9500  103.6590 O.2   151  ILE151     -0.2867
     68  CB       -28.0790   38.3350  102.3490 C.3   151  ILE151      0.0252
     69  CG1      -27.6030   37.8860  100.9620 C.3   151  ILE151      0.0019
     70  CG2      -28.0180   37.1660  103.3350 C.3   151  ILE151      0.0019
     71  CD1      -28.3910   36.7260  100.3540 C.3   151  ILE151      0.0001
     72  N        -35.5010   33.8830   94.5730 N.3   179  HIS179     -0.1241
     73  CA       -34.6260   32.7480   94.8440 C.3   179  HIS179      0.1621
     74  C        -35.4020   31.5970   95.4750 C.2   179  HIS179      0.2264
     75  O        -36.1560   31.7930   96.4280 O.2   179  HIS179     -0.2867
     76  CB       -33.4770   33.1810   95.7560 C.3   179  HIS179      0.0745
     77  CG       -32.6300   32.0500   96.2500 C.ar  179  HIS179      0.0817
     78  ND1      -32.4110   31.8150   97.5910 N.ar  179  HIS179     -0.2268
     79  CD2      -31.9400   31.0960   95.5810 C.ar  179  HIS179      0.1154
     80  CE1      -31.6220   30.7650   97.7250 C.ar  179  HIS179      0.1986
     81  NE2      -31.3240   30.3080   96.5220 N.ar  179  HIS179     -0.2212
     82  N        -33.0860   25.3360   98.5710 N.3   182  ASN182     -0.1240
     83  CA       -33.4440   23.9100   98.4780 C.3   182  ASN182      0.1653
     84  C        -33.8480   23.1780   99.7710 C.2   182  ASN182      0.2266
     85  O        -34.1760   21.9890   99.7220 O.2   182  ASN182     -0.2867
     86  CB       -32.4090   23.1090   97.6640 C.3   182  ASN182      0.1155
     87  CG       -31.0110   23.2620   98.1940 C.2   182  ASN182      0.2627
     88  OD1      -30.6750   22.7120   99.2410 O.2   182  ASN182     -0.2716
     89  ND2      -30.1760   24.0010   97.4670 N.am  182  ASN182     -0.0877
     90  N        -31.5790   26.5550  104.6430 N.3   186  GLU186     -0.1245
     91  CA       -31.0670   27.5870  103.7320 C.3   186  GLU186      0.1567
     92  C        -31.9200   28.8520  103.8030 C.2   186  GLU186      0.2260
     93  O        -31.3940   29.9680  103.7700 O.2   186  GLU186     -0.2867
     94  CB       -31.0160   27.0510  102.3000 C.3   186  GLU186      0.0388
     95  CG       -30.2320   27.9120  101.3190 C.3   186  GLU186      0.1160
     96  CD       -29.7400   27.1160  100.1240 C.2   186  GLU186      0.3649
     97  OE1      -30.3320   27.2580   99.0290 O.co2 186  GLU186     -0.2457
     98  OE2      -28.7700   26.3370  100.2850 O.co2 186  GLU186     -0.2457
     99  N        -31.0390   30.6540  106.9370 N.3   189  LYS189     -0.1231
    100  CA       -29.7030   31.1920  106.8620 C.3   189  LYS189      0.1693
    101  C        -29.6110   32.4250  105.9790 C.2   189  LYS189      0.2591
    102  O        -29.0230   33.4220  106.3770 O.2   189  LYS189     -0.2718
    103  CB       -28.7420   30.1230  106.3510 C.3   189  LYS189      0.0285
    104  CG       -27.4700   30.6830  105.7430 C.3   189  LYS189      0.0035
    105  CD       -26.3760   29.6340  105.6890 C.3   189  LYS189      0.0206
    106  CE       -26.8540   28.3700  104.9970 C.3   189  LYS189      0.1093
    107  NZ       -25.7930   27.7820  104.1360 N.3   189  LYS189     -0.1314
    108  N        -30.1860   32.3610  104.7830 N.am  190  LEU190     -0.1980
    109  CA       -30.2730   33.5290  103.9110 C.3   190  LEU190      0.1596
    110  C        -31.2500   34.5730  104.4100 C.2   190  LEU190      0.2287
    111  O        -30.9850   35.7690  104.3970 O.2   190  LEU190     -0.2864
    112  CB       -30.6430   33.1060  102.4960 C.3   190  LEU190      0.0297
    113  CG       -29.7020   32.0420  101.9500 C.3   190  LEU190      0.0022
    114  CD1      -30.1520   31.5780  100.5800 C.3   190  LEU190      0.0001
    115  CD2      -28.2790   32.5670  101.9140 C.3   190  LEU190      0.0001
    116  N        -25.0970   23.3770   91.8950 N.3   222  GLN222     -0.1245
    117  CA       -26.0640   24.1740   92.6430 C.3   222  GLN222      0.1566
    118  C        -27.4540   23.5460   92.6820 C.2   222  GLN222      0.2260
    119  O        -27.9180   22.9780   91.6890 O.2   222  GLN222     -0.2867
    120  CB       -26.1250   25.5870   92.0710 C.3   222  GLN222      0.0367
    121  CG       -26.0750   26.6850   93.1210 C.3   222  GLN222      0.0905
    122  CD       -24.8170   26.6440   93.9940 C.2   222  GLN222      0.2608
    123  OE1      -24.8670   26.9900   95.1740 O.2   222  GLN222     -0.2717
    124  NE2      -23.6930   26.2170   93.4190 N.am  222  GLN222     -0.0878
    125  N        -30.1260   25.3210   94.5530 N.3   224  GLY224     -0.1225
    126  CA       -31.0170   26.4690   94.4960 C.3   224  GLY224      0.1811
    127  C        -31.4650   26.7540   93.0710 C.2   224  GLY224      0.2280
    128  O        -30.9750   26.1420   92.1190 O.2   224  GLY224     -0.2866
@<TRIPOS>BOND
     1     1     2    1
     2     4     3    2
     3     3     2    1
     4     2     5    1
     5     5     6    1
     6    41    40    2
     7     6     8   ar
     8     6     7   ar
     9     8    10   ar
    10    40    39    1
    11   119   118    2
    12     7     9   ar
    13   116   117    1
    14   120   117    1
    15   120   121    1
    16   128   127    2
    17    10    11   ar
    18    35    34    2
    19   117   118    1
    20    39    38    1
    21    39    42    1
    22     9    11   ar
    23   127   126    1
    24   121   122    1
    25    11    12    1
    26    46    45    1
    27    46    47    2
    28    34    38   am
    29    34    33    1
    30   124   122   am
    31    36    37    1
    32    36    33    1
    33    45    44    1
    34    45    48    1
    35    42    43    1
    36   122   123    2
    37    33    32    1
    38    32    27   am
    39   126   125    1
    40    72    73    1
    41    50    51    1
    42    73    74    1
    43    73    76    1
    44    48    49    1
    45    24    23    2
    46    30    29    1
    47    60    62   ar
    48    60    57   ar
    49    62    63   ar
    50    26    27    1
    51    26    29    1
    52    26    25    1
    53    27    28    2
    54    54    51    1
    55    54    55    1
    56    74    75    2
    57    29    31    1
    58    79    77   ar
    59    79    81   ar
    60    51    52    1
    61    76    77    1
    62    57    55   ar
    63    57    59   ar
    64    55    56   ar
    65    63    61   ar
    66    23    25   am
    67    23    22    1
    68    77    78   ar
    69    81    80   ar
    70    59    61   ar
    71    59    58   ar
    72    56    58   ar
    73    52    53    2
    74    89    87   am
    75    22    21    1
    76    78    80   ar
    77    86    87    1
    78    86    83    1
    79    87    88    2
    80    21    15   am
    81    83    82    1
    82    83    84    1
    83    97    96   ar
    84    15    16    2
    85    15    14    1
    86    85    84    2
    87    13    14    1
    88    14    17    1
    89    96    98   ar
    90    96    95    1
    91    71    69    1
    92   114   113    1
    93    69    68    1
    94    64    65    1
    95    95    94    1
    96    17    18    1
    97   115   113    1
    98   113   112    1
    99    65    68    1
   100    65    66    1
   101    94    91    1
   102    68    70    1
   103   112   109    1
   104    20    18    1
   105    18    19    1
   106    66    67    2
   107    91    92    1
   108    91    90    1
   109    93    92    2
   110   109   110    1
   111   109   108    1
   112   107   106    1
   113   111   110    2
   114   108   101   am
   115   106   105    1
   116   105   104    1
   117   104   103    1
   118   101   102    2
   119   101   100    1
   120   103   100    1
   121   100    99    1
