@<TRIPOS>MOLECULE
tmp/3zp3A00.pdb
 128 121 0 0 0
SMALL
GASTEIGER

@<TRIPOS>ATOM
      1  N        -26.1540   31.1210   87.3230 N.3    91  TYR91      -0.1241
      2  CA       -26.7940   30.4420   88.4310 C.3    91  TYR91       0.1605
      3  C        -28.0600   29.8410   87.8790 C.2    91  TYR91       0.2264
      4  O        -28.8920   30.5520   87.3440 O.2    91  TYR91      -0.2867
      5  CB       -27.1500   31.4360   89.5220 C.3    91  TYR91       0.0534
      6  CG       -27.5590   30.7950   90.8190 C.ar   91  TYR91      -0.0201
      7  CD1      -28.8260   30.2800   90.9890 C.ar   91  TYR91      -0.0009
      8  CD2      -26.6740   30.7070   91.8730 C.ar   91  TYR91      -0.0009
      9  CE1      -29.1960   29.6960   92.1760 C.ar   91  TYR91       0.0417
     10  CE2      -27.0390   30.1250   93.0630 C.ar   91  TYR91       0.0417
     11  CZ       -28.2940   29.6250   93.2060 C.ar   91  TYR91       0.1957
     12  OH       -28.6520   29.0460   94.3880 O.3    91  TYR91      -0.2866
     13  N        -23.4170   40.7710   99.7430 N.3   129  LEU129     -0.1231
     14  CA       -23.1330   39.3730  100.0590 C.3   129  LEU129      0.1693
     15  C        -23.8470   38.3610   99.1710 C.2   129  LEU129      0.2593
     16  O        -23.5030   37.1840   99.1920 O.2   129  LEU129     -0.2718
     17  CB       -23.3900   39.0760  101.5400 C.3   129  LEU129      0.0284
     18  CG       -22.5740   39.8050  102.6280 C.3   129  LEU129      0.0019
     19  CD1      -22.6480   38.9970  103.9250 C.3   129  LEU129      0.0001
     20  CD2      -21.1090   40.0720  102.2420 C.3   129  LEU129      0.0001
     21  N        -24.8140   38.8160   98.3760 N.am  130  GLY130     -0.1942
     22  CA       -25.5380   37.9340   97.4650 C.3   130  GLY130      0.2014
     23  C        -24.7570   37.5610   96.2140 C.2   130  GLY130      0.2639
     24  O        -25.0460   38.0680   95.1230 O.2   130  GLY130     -0.2714
     25  N        -23.7810   36.6610   96.3790 N.am  131  VAL131     -0.1963
     26  CA       -22.8490   36.2580   95.3140 C.3   131  VAL131      0.1727
     27  C        -22.5680   34.7610   95.3520 C.2   131  VAL131      0.2617
     28  O        -22.5160   34.1700   96.4180 O.2   131  VAL131     -0.2715
     29  CB       -21.4950   37.0130   95.4130 C.3   131  VAL131      0.0290
     30  CG1      -21.6530   38.4850   95.0240 C.3   131  VAL131      0.0023
     31  CG2      -20.8880   36.8840   96.8120 C.3   131  VAL131      0.0023
     32  N        -22.3700   34.1560   94.1860 N.am  132  SER132     -0.1936
     33  CA       -22.0920   32.7140   94.0780 C.3   132  SER132      0.2055
     34  C        -20.8160   32.4180   93.2830 C.2   132  SER132      0.2643
     35  O        -20.4050   33.2100   92.4310 O.2   132  SER132     -0.2714
     36  CB       -23.2870   31.9960   93.4420 C.3   132  SER132      0.2130
     37  OG       -23.0600   30.6030   93.3160 O.3   132  SER132     -0.2179
     38  N        -20.1960   31.2740   93.5560 N.am  133  SER133     -0.1949
     39  CA       -18.9910   30.8540   92.8350 C.3   133  SER133      0.1924
     40  C        -19.3200   30.2810   91.4540 C.2   133  SER133      0.2314
     41  O        -18.4260   30.0670   90.6310 O.2   133  SER133     -0.2863
     42  CB       -18.2060   29.8310   93.6550 C.3   133  SER133      0.2116
     43  OG       -19.0620   28.7900   94.0830 O.3   133  SER133     -0.2180
     44  N        -16.2090   35.0040   93.5860 N.3   141  SER141     -0.1217
     45  CA       -17.6600   34.8270   93.5620 C.3   141  SER141      0.1889
     46  C        -18.3910   36.1220   93.1840 C.2   141  SER141      0.2288
     47  O        -18.2260   37.1470   93.8450 O.2   141  SER141     -0.2866
     48  CB       -18.1490   34.3080   94.9060 C.3   141  SER141      0.2089
     49  OG       -17.7030   32.9810   95.1160 O.3   141  SER141     -0.2183
     50  N        -28.8520   40.4400   94.7770 N.3   149  TRP149     -0.1241
     51  CA       -29.2850   39.3440   95.6380 C.3   149  TRP149      0.1605
     52  C        -29.2060   39.7950   97.1040 C.2   149  TRP149      0.2264
     53  O        -28.1430   39.7560   97.7280 O.2   149  TRP149     -0.2867
     54  CB       -28.4170   38.1160   95.4020 C.3   149  TRP149      0.0550
     55  CG       -28.8900   36.8580   96.0740 C.ar  149  TRP149      0.0003
     56  CD1      -29.9610   36.7170   96.9100 C.ar  149  TRP149      0.0946
     57  CD2      -28.2800   35.5680   95.9880 C.ar  149  TRP149      0.0152
     58  NE1      -30.0680   35.4080   97.3310 N.ar  149  TRP149     -0.2442
     59  CE2      -29.0440   34.6860   96.7840 C.ar  149  TRP149      0.0810
     60  CE3      -27.1680   35.0680   95.3050 C.ar  149  TRP149      0.0012
     61  CZ2      -28.7340   33.3370   96.9160 C.ar  149  TRP149      0.0191
     62  CZ3      -26.8550   33.7190   95.4420 C.ar  149  TRP149      0.0001
     63  CH2      -27.6380   32.8710   96.2390 C.ar  149  TRP149      0.0015
     64  N        -29.5590   39.8320  101.0380 N.3   151  ILE151     -0.1245
     65  CA       -29.4450   38.9090  102.1790 C.3   151  ILE151      0.1561
     66  C        -29.7180   39.6600  103.4920 C.2   151  ILE151      0.2260
     67  O        -29.5910   40.8880  103.5590 O.2   151  ILE151     -0.2867
     68  CB       -28.0270   38.2580  102.2410 C.3   151  ILE151      0.0252
     69  CG1      -27.6080   37.6870  100.8780 C.3   151  ILE151      0.0019
     70  CG2      -27.9550   37.1670  103.3030 C.3   151  ILE151      0.0019
     71  CD1      -28.4600   36.5360  100.3740 C.3   151  ILE151      0.0001
     72  N        -35.4080   33.6840   94.5600 N.3   179  HIS179     -0.1241
     73  CA       -34.5340   32.5450   94.8200 C.3   179  HIS179      0.1621
     74  C        -35.3150   31.4250   95.4770 C.2   179  HIS179      0.2264
     75  O        -36.0420   31.6510   96.4390 O.2   179  HIS179     -0.2867
     76  CB       -33.3460   32.9580   95.6850 C.3   179  HIS179      0.0745
     77  CG       -32.4680   31.8200   96.0960 C.ar  179  HIS179      0.0817
     78  ND1      -32.0540   31.6350   97.3990 N.ar  179  HIS179     -0.2268
     79  CD2      -31.9200   30.8090   95.3800 C.ar  179  HIS179      0.1154
     80  CE1      -31.2860   30.5610   97.4650 C.ar  179  HIS179      0.1986
     81  NE2      -31.1910   30.0390   96.2550 N.ar  179  HIS179     -0.2212
     82  N        -33.0310   25.1180   98.4860 N.3   182  ASN182     -0.1240
     83  CA       -33.3620   23.6830   98.4030 C.3   182  ASN182      0.1653
     84  C        -33.7710   22.9880   99.7090 C.2   182  ASN182      0.2266
     85  O        -34.1670   21.8170   99.6780 O.2   182  ASN182     -0.2867
     86  CB       -32.2680   22.8920   97.6760 C.3   182  ASN182      0.1155
     87  CG       -30.9510   22.9670   98.3760 C.2   182  ASN182      0.2627
     88  OD1      -30.6730   22.1830   99.2880 O.2   182  ASN182     -0.2716
     89  ND2      -30.1210   23.9220   97.9680 N.am  182  ASN182     -0.0877
     90  N        -31.4450   26.6040  104.5410 N.3   186  GLU186     -0.1245
     91  CA       -30.9450   27.6620  103.6590 C.3   186  GLU186      0.1567
     92  C        -31.8250   28.9010  103.7410 C.2   186  GLU186      0.2260
     93  O        -31.3250   30.0290  103.7310 O.2   186  GLU186     -0.2867
     94  CB       -30.9160   27.1460  102.2260 C.3   186  GLU186      0.0388
     95  CG       -29.9070   27.8030  101.3000 C.3   186  GLU186      0.1160
     96  CD       -29.7380   27.0010  100.0140 C.2   186  GLU186      0.3649
     97  OE1      -29.2570   25.8420  100.0950 O.co2 186  GLU186     -0.2457
     98  OE2      -30.1140   27.5150   98.9300 O.co2 186  GLU186     -0.2457
     99  N        -30.9410   30.4540  106.8550 N.3   189  LYS189     -0.1231
    100  CA       -29.5890   30.9800  106.7310 C.3   189  LYS189      0.1693
    101  C        -29.5300   32.3200  105.9880 C.2   189  LYS189      0.2591
    102  O        -28.8940   33.2580  106.4610 O.2   189  LYS189     -0.2718
    103  CB       -28.6680   29.9440  106.0790 C.3   189  LYS189      0.0285
    104  CG       -27.1890   30.2910  106.1640 C.3   189  LYS189      0.0035
    105  CD       -26.3770   29.4780  105.1720 C.3   189  LYS189      0.0206
    106  CE       -24.9300   29.9610  105.1330 C.3   189  LYS189      0.1093
    107  NZ       -24.1760   29.2850  104.0420 N.3   189  LYS189     -0.1314
    108  N        -30.2060   32.4090  104.8440 N.am  190  LEU190     -0.1980
    109  CA       -30.1500   33.6100  104.0030 C.3   190  LEU190      0.1596
    110  C        -31.1650   34.6860  104.3770 C.2   190  LEU190      0.2287
    111  O        -30.8540   35.8820  104.3550 O.2   190  LEU190     -0.2864
    112  CB       -30.3350   33.2390  102.5290 C.3   190  LEU190      0.0297
    113  CG       -29.3130   32.2600  101.9520 C.3   190  LEU190      0.0022
    114  CD1      -29.8430   31.6460  100.6690 C.3   190  LEU190      0.0001
    115  CD2      -27.9630   32.9370  101.7340 C.3   190  LEU190      0.0001
    116  N        -25.1160   23.3870   91.8800 N.3   222  GLN222     -0.1245
    117  CA       -26.0910   24.2020   92.5900 C.3   222  GLN222      0.1566
    118  C        -27.4710   23.5450   92.6480 C.2   222  GLN222      0.2260
    119  O        -27.9380   22.9710   91.6570 O.2   222  GLN222     -0.2867
    120  CB       -26.1640   25.5800   91.9440 C.3   222  GLN222      0.0367
    121  CG       -26.1040   26.7280   92.9290 C.3   222  GLN222      0.0905
    122  CD       -24.8530   26.7150   93.8120 C.2   222  GLN222      0.2608
    123  OE1      -24.9090   27.1000   94.9790 O.2   222  GLN222     -0.2717
    124  NE2      -23.7270   26.2690   93.2580 N.am  222  GLN222     -0.0878
    125  N        -30.1370   25.2400   94.5510 N.3   224  GLY224     -0.1225
    126  CA       -31.0090   26.4010   94.4810 C.3   224  GLY224      0.1811
    127  C        -31.4240   26.7110   93.0580 C.2   224  GLY224      0.2280
    128  O        -30.9370   26.0870   92.1100 O.2   224  GLY224     -0.2866
@<TRIPOS>BOND
     1     1     2    1
     2     4     3    2
     3     3     2    1
     4     2     5    1
     5     5     6    1
     6    41    40    2
     7     6     7   ar
     8     6     8   ar
     9     7     9   ar
    10    40    39    1
    11   119   118    2
    12     8    10   ar
    13   116   117    1
    14   120   117    1
    15   120   121    1
    16   128   127    2
    17     9    11   ar
    18    35    34    2
    19   117   118    1
    20    39    38    1
    21    39    42    1
    22   121   122    1
    23   127   126    1
    24    10    11   ar
    25    46    45    1
    26    46    47    2
    27    11    12    1
    28   124   122   am
    29    34    38   am
    30    34    33    1
    31    37    36    1
    32    36    33    1
    33    45    44    1
    34    45    48    1
    35    42    43    1
    36   122   123    2
    37    33    32    1
    38    32    27   am
    39   126   125    1
    40    72    73    1
    41    50    51    1
    42    73    74    1
    43    73    76    1
    44    48    49    1
    45    30    29    1
    46    24    23    2
    47    60    62   ar
    48    60    57   ar
    49    26    27    1
    50    26    29    1
    51    26    25    1
    52    27    28    2
    53    79    77   ar
    54    79    81   ar
    55    54    51    1
    56    54    55    1
    57    29    31    1
    58    62    63   ar
    59    74    75    2
    60    51    52    1
    61    76    77    1
    62    57    55   ar
    63    57    59   ar
    64    55    56   ar
    65    77    78   ar
    66    23    25   am
    67    23    22    1
    68    63    61   ar
    69    81    80   ar
    70    59    61   ar
    71    59    58   ar
    72    56    58   ar
    73    52    53    2
    74    78    80   ar
    75    22    21    1
    76    86    87    1
    77    86    83    1
    78    89    87   am
    79    87    88    2
    80    21    15   am
    81    83    82    1
    82    83    84    1
    83    98    96   ar
    84    15    16    2
    85    15    14    1
    86    85    84    2
    87    13    14    1
    88    96    97   ar
    89    96    95    1
    90    14    17    1
    91    71    69    1
    92   114   113    1
    93    69    68    1
    94    64    65    1
    95    95    94    1
    96    17    18    1
    97   115   113    1
    98   113   112    1
    99    65    68    1
   100    65    66    1
   101    94    91    1
   102    68    70    1
   103    20    18    1
   104   112   109    1
   105    18    19    1
   106    66    67    2
   107    91    92    1
   108    91    90    1
   109    93    92    2
   110   109   110    1
   111   109   108    1
   112   107   106    1
   113   111   110    2
   114   108   101   am
   115   106   105    1
   116   105   104    1
   117   101   102    2
   118   101   100    1
   119   103   104    1
   120   103   100    1
   121   100    99    1
