@<TRIPOS>MOLECULE
tmp/3zp6A00.pdb
 147 140 0 0 0
SMALL
GASTEIGER

@<TRIPOS>ATOM
      1  N        -26.3200   31.3370   87.7500 N.3    91  TYR91      -0.1241
      2  CA       -27.0670   30.7230   88.8300 C.3    91  TYR91       0.1605
      3  C        -28.3250   30.1350   88.1980 C.2    91  TYR91       0.2264
      4  O        -29.1240   30.8790   87.6250 O.2    91  TYR91      -0.2867
      5  CB       -27.4430   31.7560   89.8950 C.3    91  TYR91       0.0534
      6  CG       -27.8960   31.1390   91.2000 C.ar   91  TYR91      -0.0201
      7  CD1      -29.1420   30.5190   91.3060 C.ar   91  TYR91      -0.0009
      8  CD2      -27.0690   31.1550   92.3240 C.ar   91  TYR91      -0.0009
      9  CE1      -29.5580   29.9440   92.5000 C.ar   91  TYR91       0.0417
     10  CE2      -27.4790   30.5810   93.5270 C.ar   91  TYR91       0.0417
     11  CZ       -28.7210   29.9770   93.6050 C.ar   91  TYR91       0.1957
     12  OH       -29.1380   29.4090   94.7850 O.3    91  TYR91      -0.2866
     13  N        -23.5710   41.0840  100.1830 N.3   129  LEU129     -0.1231
     14  CA       -23.2470   39.6860  100.4590 C.3   129  LEU129      0.1693
     15  C        -24.0440   38.7150   99.5850 C.2   129  LEU129      0.2593
     16  O        -23.8660   37.5000   99.6780 O.2   129  LEU129     -0.2718
     17  CB       -23.4500   39.3650  101.9450 C.3   129  LEU129      0.0284
     18  CG       -22.5740   40.0700  102.9910 C.3   129  LEU129      0.0019
     19  CD1      -22.9420   39.5870  104.3880 C.3   129  LEU129      0.0001
     20  CD2      -21.0780   39.8710  102.7300 C.3   129  LEU129      0.0001
     21  N        -24.9090   39.2610   98.7300 N.am  130  GLY130     -0.1942
     22  CA       -25.7250   38.4570   97.8230 C.3   130  GLY130      0.2014
     23  C        -24.9890   38.0550   96.5580 C.2   130  GLY130      0.2639
     24  O        -25.2730   38.5680   95.4730 O.2   130  GLY130     -0.2714
     25  N        -24.0430   37.1300   96.7100 N.am  131  VAL131     -0.1963
     26  CA       -23.2420   36.6130   95.6000 C.3   131  VAL131      0.1727
     27  C        -23.2800   35.0800   95.5710 C.2   131  VAL131      0.2617
     28  O        -23.8710   34.4560   96.4520 O.2   131  VAL131     -0.2715
     29  CB       -21.7750   37.1070   95.6710 C.3   131  VAL131      0.0290
     30  CG1      -21.6920   38.6120   95.4140 C.3   131  VAL131      0.0023
     31  CG2      -21.1360   36.7400   97.0110 C.3   131  VAL131      0.0023
     32  N        -22.6560   34.4840   94.5560 N.am  132  SER132     -0.1936
     33  CA       -22.6000   33.0270   94.4120 C.3   132  SER132      0.2055
     34  C        -21.3970   32.5810   93.5910 C.2   132  SER132      0.2643
     35  O        -20.9290   33.3060   92.7110 O.2   132  SER132     -0.2714
     36  CB       -23.8840   32.4890   93.7710 C.3   132  SER132      0.2130
     37  OG       -23.8160   31.0830   93.5880 O.3   132  SER132     -0.2179
     38  N        -20.9110   31.3770   93.8830 N.am  133  SER133     -0.1949
     39  CA       -19.7930   30.7800   93.1530 C.3   133  SER133      0.1924
     40  C        -20.2120   30.2970   91.7590 C.2   133  SER133      0.2314
     41  O        -19.3620   30.0230   90.9060 O.2   133  SER133     -0.2863
     42  CB       -19.1680   29.6410   93.9640 C.3   133  SER133      0.2116
     43  OG       -20.1700   28.8300   94.5560 O.3   133  SER133     -0.2180
     44  N        -16.6330   35.1710   93.7320 N.3   141  SER141     -0.1217
     45  CA       -18.0760   34.9690   93.6620 C.3   141  SER141      0.1889
     46  C        -18.8140   36.2960   93.4540 C.2   141  SER141      0.2288
     47  O        -18.7300   37.2030   94.2880 O.2   141  SER141     -0.2866
     48  CB       -18.5750   34.2710   94.9270 C.3   141  SER141      0.2089
     49  OG       -17.9450   33.0110   95.0910 O.3   141  SER141     -0.2183
     50  N        -29.2710   40.6460   95.1060 N.3   149  TRP149     -0.1241
     51  CA       -29.6280   39.5760   96.0380 C.3   149  TRP149      0.1605
     52  C        -29.6030   40.1250   97.4740 C.2   149  TRP149      0.2264
     53  O        -28.5370   40.2750   98.0790 O.2   149  TRP149     -0.2867
     54  CB       -28.6740   38.3830   95.8910 C.3   149  TRP149      0.0550
     55  CG       -29.1670   37.1020   96.5230 C.ar  149  TRP149      0.0003
     56  CD1      -30.2420   36.9550   97.3520 C.ar  149  TRP149      0.0946
     57  CD2      -28.5830   35.7960   96.3970 C.ar  149  TRP149      0.0152
     58  NE1      -30.3740   35.6430   97.7330 N.ar  149  TRP149     -0.2442
     59  CE2      -29.3690   34.9100   97.1660 C.ar  149  TRP149      0.0810
     60  CE3      -27.4780   35.2900   95.7050 C.ar  149  TRP149      0.0012
     61  CZ2      -29.0880   33.5460   97.2620 C.ar  149  TRP149      0.0191
     62  CZ3      -27.1960   33.9280   95.8030 C.ar  149  TRP149      0.0001
     63  CH2      -28.0000   33.0750   96.5770 C.ar  149  TRP149      0.0015
     64  N        -30.1480   40.2320  101.4890 N.3   151  ILE151     -0.1245
     65  CA       -30.0080   39.3470  102.6520 C.3   151  ILE151      0.1561
     66  C        -30.3280   40.1160  103.9460 C.2   151  ILE151      0.2260
     67  O        -30.2720   41.3520  103.9800 O.2   151  ILE151     -0.2867
     68  CB       -28.5640   38.7500  102.7380 C.3   151  ILE151      0.0252
     69  CG1      -28.0670   38.2610  101.3670 C.3   151  ILE151      0.0019
     70  CG2      -28.4770   37.6280  103.7710 C.3   151  ILE151      0.0019
     71  CD1      -28.7460   36.9900  100.8410 C.3   151  ILE151      0.0001
     72  N        -35.6720   33.9900   94.8060 N.3   179  HIS179     -0.1241
     73  CA       -34.8060   32.8580   95.0990 C.3   179  HIS179      0.1621
     74  C        -35.5960   31.7030   95.7080 C.2   179  HIS179      0.2264
     75  O        -36.3690   31.8920   96.6480 O.2   179  HIS179     -0.2867
     76  CB       -33.6570   33.2840   96.0110 C.3   179  HIS179      0.0745
     77  CG       -32.7700   32.1560   96.4360 C.ar  179  HIS179      0.0817
     78  ND1      -32.5670   31.8290   97.7590 N.ar  179  HIS179     -0.2268
     79  CD2      -32.0360   31.2760   95.7120 C.ar  179  HIS179      0.1154
     80  CE1      -31.7420   30.8010   97.8330 C.ar  179  HIS179      0.1986
     81  NE2      -31.4050   30.4460   96.6050 N.ar  179  HIS179     -0.2212
     82  N        -34.8580   28.4690   97.6710 N.3   181  PRO181     -0.2102
     83  CA       -33.8530   27.6820   98.3960 C.3   181  PRO181      0.1504
     84  C        -34.2280   26.2040   98.4080 C.2   181  PRO181      0.2575
     85  O        -35.3660   25.8600   98.0770 O.2   181  PRO181     -0.2718
     86  CB       -33.9030   28.2580   99.8190 C.3   181  PRO181      0.0282
     87  CG       -34.8440   29.4450   99.7570 C.3   181  PRO181      0.0208
     88  CD       -35.7380   29.2010   98.5970 C.3   181  PRO181      0.0893
     89  N        -33.2910   25.3360   98.7850 N.am  182  ASN182     -0.1975
     90  CA       -33.5650   23.8950   98.7520 C.3   182  ASN182      0.1688
     91  C        -33.9720   23.2410  100.0790 C.2   182  ASN182      0.2292
     92  O        -34.4190   22.0910  100.0850 O.2   182  ASN182     -0.2864
     93  CB       -32.4370   23.1200   98.0560 C.3   182  ASN182      0.1181
     94  CG       -31.1070   23.3010   98.7290 C.2   182  ASN182      0.2629
     95  OD1      -30.7610   22.5660   99.6550 O.2   182  ASN182     -0.2716
     96  ND2      -30.3400   24.2720   98.2570 N.am  182  ASN182     -0.0877
     97  N        -31.6580   26.8950  104.9740 N.3   186  ASP186     -0.1239
     98  CA       -31.0680   27.8940  104.0850 C.3   186  ASP186      0.1674
     99  C        -31.9490   29.1410  104.0340 C.2   186  ASP186      0.2266
    100  O        -31.4480   30.2640  103.9380 O.2   186  ASP186     -0.2867
    101  CB       -30.8920   27.3060  102.6840 C.3   186  ASP186      0.1410
    102  CG       -29.5240   27.6030  102.0820 C.2   186  ASP186      0.3668
    103  OD1      -28.5620   27.8660  102.8440 O.co2 186  ASP186     -0.2456
    104  OD2      -29.4130   27.5500  100.8370 O.co2 186  ASP186     -0.2456
    105  N        -31.0340   30.8940  107.1550 N.3   189  LYS189     -0.1231
    106  CA       -29.7170   31.4800  107.0830 C.3   189  LYS189      0.1693
    107  C        -29.6960   32.7310  106.2180 C.2   189  LYS189      0.2591
    108  O        -29.1220   33.7350  106.6090 O.2   189  LYS189     -0.2718
    109  CB       -28.7240   30.4530  106.5490 C.3   189  LYS189      0.0285
    110  CG       -27.4220   31.0500  106.0450 C.3   189  LYS189      0.0035
    111  CD       -26.4900   29.9770  105.5040 C.3   189  LYS189      0.0206
    112  CE       -25.7590   30.4540  104.2600 C.3   189  LYS189      0.1093
    113  NZ       -24.9620   29.3730  103.6220 N.3   189  LYS189     -0.1314
    114  N        -30.2510   32.6530  105.0150 N.am  190  LEU190     -0.1980
    115  CA       -30.3670   33.8290  104.1520 C.3   190  LEU190      0.1596
    116  C        -31.3330   34.9330  104.5870 C.2   190  LEU190      0.2287
    117  O        -30.9960   36.1130  104.5470 O.2   190  LEU190     -0.2864
    118  CB       -30.7280   33.3970  102.7310 C.3   190  LEU190      0.0297
    119  CG       -29.8120   32.3660  102.0850 C.3   190  LEU190      0.0022
    120  CD1      -30.5230   31.6610  100.9480 C.3   190  LEU190      0.0001
    121  CD2      -28.5280   33.0100  101.6040 C.3   190  LEU190      0.0001
    122  N        -28.1330   19.3770   91.5410 N.3   218  LYS218     -0.1245
    123  CA       -27.1760   20.4770   91.5080 C.3   218  LYS218      0.1561
    124  C        -26.8150   20.8630   90.0790 C.2   218  LYS218      0.2260
    125  O        -25.9490   20.2430   89.4580 O.2   218  LYS218     -0.2867
    126  CB       -25.9080   20.1350   92.2970 C.3   218  LYS218      0.0271
    127  CG       -26.0180   20.3660   93.7890 C.3   218  LYS218      0.0035
    128  CD       -24.7080   20.0470   94.4920 C.3   218  LYS218      0.0206
    129  CE       -24.8990   20.0210   96.0000 C.3   218  LYS218      0.1093
    130  NZ       -23.6030   19.9260   96.7360 N.3   218  LYS218     -0.1314
    131  N        -23.2820   23.2770   90.2930 N.3   221  GLY221     -0.1210
    132  CA       -22.9540   23.1960   91.7180 C.3   221  GLY221      0.1956
    133  C        -23.9680   23.8520   92.6410 C.2   221  GLY221      0.2611
    134  O        -23.6530   24.1690   93.7890 O.2   221  GLY221     -0.2717
    135  N        -25.1890   24.0430   92.1430 N.am  222  GLN222     -0.1979
    136  CA       -26.2070   24.7920   92.8660 C.3   222  GLN222      0.1601
    137  C        -27.5580   24.0770   92.8620 C.2   222  GLN222      0.2287
    138  O        -28.0210   23.6070   91.8170 O.2   222  GLN222     -0.2864
    139  CB       -26.3490   26.1800   92.2480 C.3   222  GLN222      0.0394
    140  CG       -26.2400   27.3210   93.2450 C.3   222  GLN222      0.0908
    141  CD       -24.8210   27.5320   93.7680 C.2   222  GLN222      0.2608
    142  OE1      -24.6310   27.8830   94.9290 O.2   222  GLN222     -0.2717
    143  NE2      -23.8250   27.3180   92.9110 N.am  222  GLN222     -0.0878
    144  N        -30.2240   25.6050   94.7620 N.3   224  GLY224     -0.1225
    145  CA       -31.1330   26.7410   94.7630 C.3   224  GLY224      0.1811
    146  C        -31.4730   27.1600   93.3470 C.2   224  GLY224      0.2280
    147  O        -30.7450   26.8350   92.4040 O.2   224  GLY224     -0.2866
@<TRIPOS>BOND
     1     4     3    2
     2     1     2    1
     3     3     2    1
     4     2     5    1
     5   125   124    2
     6     5     6    1
     7   124   123    1
     8   131   132    1
     9    41    40    2
    10     6     7   ar
    11     6     8   ar
    12     7     9   ar
    13   123   122    1
    14   123   126    1
    15   132   133    1
    16    40    39    1
    17   138   137    2
    18   135   133   am
    19   135   136    1
    20   139   136    1
    21   139   140    1
    22   126   127    1
    23     8    10   ar
    24   147   146    2
    25     9    11   ar
    26   133   134    2
    27    35    34    2
    28   137   136    1
    29   143   141   am
    30    39    38    1
    31    39    42    1
    32   140   141    1
    33   146   145    1
    34    46    45    1
    35    46    47    2
    36    10    11   ar
    37    37    36    1
    38    34    38   am
    39    34    33    1
    40    11    12    1
    41    45    44    1
    42    45    48    1
    43   141   142    2
    44    36    33    1
    45   127   128    1
    46    42    43    1
    47    33    32    1
    48   128   129    1
    49    32    27   am
    50   144   145    1
    51    72    73    1
    52    48    49    1
    53    73    74    1
    54    73    76    1
    55    50    51    1
    56    30    29    1
    57    24    23    2
    58    27    26    1
    59    27    28    2
    60    26    29    1
    61    26    25    1
    62    29    31    1
    63    60    62   ar
    64    60    57   ar
    65    74    75    2
    66    79    77   ar
    67    79    81   ar
    68    62    63   ar
    69    54    51    1
    70    54    55    1
    71   129   130    1
    72    76    77    1
    73    51    52    1
    74    57    55   ar
    75    57    59   ar
    76    77    78   ar
    77    55    56   ar
    78    23    25   am
    79    23    22    1
    80    63    61   ar
    81    81    80   ar
    82    59    61   ar
    83    59    58   ar
    84    56    58   ar
    85    52    53    2
    86    82    83    1
    87    82    88    1
    88    78    80   ar
    89    22    21    1
    90    93    94    1
    91    93    90    1
    92    85    84    2
    93    96    94   am
    94    83    84    1
    95    83    86    1
    96    84    89   am
    97    88    87    1
    98    94    95    2
    99    21    15   am
   100    90    89    1
   101    90    91    1
   102    15    16    2
   103    15    14    1
   104    87    86    1
   105    91    92    2
   106    13    14    1
   107    14    17    1
   108   104   102   ar
   109    71    69    1
   110   120   119    1
   111    69    68    1
   112    64    65    1
   113   121   119    1
   114    17    18    1
   115   102   101    1
   116   102   103   ar
   117   119   118    1
   118    65    68    1
   119    65    66    1
   120   101    98    1
   121    20    18    1
   122   118   115    1
   123    68    70    1
   124    18    19    1
   125   113   112    1
   126   100    99    2
   127    66    67    2
   128    99    98    1
   129    98    97    1
   130   115   116    1
   131   115   114    1
   132   112   111    1
   133   117   116    2
   134   114   107   am
   135   111   110    1
   136   110   109    1
   137   107   108    2
   138   107   106    1
   139   109   106    1
   140   106   105    1
