@<TRIPOS>MOLECULE
tmp/3zpgA01.pdb
 118 114 0 0 0
SMALL
GASTEIGER

@<TRIPOS>ATOM
      1  N          0.3040  -14.5690  -23.5430 N.3    21  LEU21      -0.1231
      2  CA        -0.5040  -15.4720  -22.7140 C.3    21  LEU21       0.1693
      3  C         -1.7130  -16.0920  -23.4020 C.2    21  LEU21       0.2592
      4  O         -2.0130  -17.2540  -23.1980 O.2    21  LEU21      -0.2718
      5  CB        -1.0070  -14.7530  -21.4630 C.3    21  LEU21       0.0284
      6  CG        -0.3590  -14.8610  -20.0830 C.3    21  LEU21       0.0019
      7  CD1       -1.4180  -14.4830  -19.0300 C.3    21  LEU21       0.0001
      8  CD2        0.1930  -16.2130  -19.7750 C.3    21  LEU21       0.0001
      9  N         -2.4310  -15.2900  -24.1780 N.am   22  TYR22      -0.1976
     10  CA        -3.6930  -15.7130  -24.7450 C.3    22  TYR22       0.1639
     11  C         -3.5720  -16.2910  -26.1570 C.2    22  TYR22       0.2290
     12  O         -4.5310  -16.8430  -26.6920 O.2    22  TYR22      -0.2864
     13  CB        -4.6580  -14.5260  -24.7490 C.3    22  TYR22       0.0560
     14  CG        -4.9230  -13.9640  -23.3770 C.ar   22  TYR22      -0.0198
     15  CD1       -5.4810  -14.7620  -22.3820 C.ar   22  TYR22      -0.0009
     16  CD2       -4.6060  -12.6460  -23.0660 C.ar   22  TYR22      -0.0009
     17  CE1       -5.7340  -14.2690  -21.1330 C.ar   22  TYR22       0.0417
     18  CE2       -4.8670  -12.1280  -21.7960 C.ar   22  TYR22       0.0417
     19  CZ        -5.4340  -12.9530  -20.8410 C.ar   22  TYR22       0.1957
     20  OH        -5.7100  -12.4800  -19.5880 O.3    22  TYR22      -0.2866
     21  N          4.8740  -20.3060  -13.2040 N.3   136  LYS136     -0.1245
     22  CA         3.5280  -19.7490  -13.1850 C.3   136  LYS136      0.1561
     23  C          3.0580  -19.3000  -14.5760 C.2   136  LYS136      0.2260
     24  O          1.8540  -19.1570  -14.8120 O.2   136  LYS136     -0.2867
     25  CB         3.4800  -18.5750  -12.2080 C.3   136  LYS136      0.0271
     26  CG         3.6800  -19.0000  -10.7530 C.3   136  LYS136      0.0035
     27  CD         4.1250  -17.8190   -9.8950 C.3   136  LYS136      0.0206
     28  CE         2.9670  -16.8910   -9.5600 C.3   136  LYS136      0.1093
     29  NZ         3.4880  -15.5900   -9.0260 N.3   136  LYS136     -0.1314
     30  N        -16.5440  -11.1420  -16.5580 N.3   179  GLN179     -0.1231
     31  CA       -15.2850  -10.6890  -17.1710 C.3   179  GLN179      0.1698
     32  C        -14.1040  -11.5110  -16.6740 C.2   179  GLN179      0.2592
     33  O        -13.2120  -11.8340  -17.4570 O.2   179  GLN179     -0.2718
     34  CB       -15.0190   -9.1980  -16.9330 C.3   179  GLN179      0.0381
     35  CG       -13.7770   -8.6500  -17.6500 C.3   179  GLN179      0.0905
     36  CD       -13.7460   -9.0070  -19.1360 C.2   179  GLN179      0.2608
     37  OE1      -14.7300   -8.8230  -19.8650 O.2   179  GLN179     -0.2717
     38  NE2      -12.6170   -9.5290  -19.5840 N.am  179  GLN179     -0.0878
     39  N        -14.0730  -11.8150  -15.3710 N.am  180  ASP180     -0.1974
     40  CA       -12.9660  -12.5940  -14.8170 C.3   180  ASP180      0.1709
     41  C        -12.8770  -13.9590  -15.4940 C.2   180  ASP180      0.2293
     42  O        -11.7810  -14.4600  -15.7740 O.2   180  ASP180     -0.2864
     43  CB       -13.1010  -12.7730  -13.2930 C.3   180  ASP180      0.1436
     44  CG       -11.8280  -13.3360  -12.6670 C.2   180  ASP180      0.3671
     45  OD1      -10.8110  -12.6030  -12.6610 O.co2 180  ASP180     -0.2456
     46  OD2      -11.8280  -14.5080  -12.2230 O.co2 180  ASP180     -0.2456
     47  N        -10.7800  -14.3520  -18.7560 N.3   183  HIS183     -0.1226
     48  CA        -9.3660  -14.6220  -18.5820 C.3   183  HIS183      0.1752
     49  C         -9.0980  -16.1340  -18.4740 C.2   183  HIS183      0.2596
     50  O         -8.2200  -16.6630  -19.1510 O.2   183  HIS183     -0.2718
     51  CB        -8.7900  -13.8710  -17.3650 C.3   183  HIS183      0.0759
     52  CG        -7.4270  -14.3580  -16.9570 C.ar  183  HIS183      0.0818
     53  ND1       -6.2620  -13.8850  -17.5270 N.ar  183  HIS183     -0.2268
     54  CD2       -7.0500  -15.3140  -16.0750 C.ar  183  HIS183      0.1154
     55  CE1       -5.2230  -14.5070  -16.9920 C.ar  183  HIS183      0.1986
     56  NE2       -5.6770  -15.3920  -16.1180 N.ar  183  HIS183     -0.2212
     57  N         -9.8720  -16.8270  -17.6400 N.am  184  TRP184     -0.1976
     58  CA        -9.6510  -18.2520  -17.4160 C.3   184  TRP184      0.1640
     59  C         -9.9050  -19.0200  -18.7060 C.2   184  TRP184      0.2290
     60  O         -9.1460  -19.9280  -19.0520 O.2   184  TRP184     -0.2864
     61  CB       -10.4700  -18.7680  -16.2080 C.3   184  TRP184      0.0576
     62  CG       -10.0600  -18.0410  -14.9630 C.ar  184  TRP184      0.0006
     63  CD1      -10.8010  -17.1230  -14.2550 C.ar  184  TRP184      0.0946
     64  CD2       -8.7830  -18.0990  -14.3290 C.ar  184  TRP184      0.0152
     65  NE1      -10.0550  -16.6110  -13.2160 N.ar  184  TRP184     -0.2442
     66  CE2       -8.8170  -17.2040  -13.2320 C.ar  184  TRP184      0.0810
     67  CE3       -7.6060  -18.8420  -14.5720 C.ar  184  TRP184      0.0012
     68  CZ2       -7.7220  -17.0180  -12.3790 C.ar  184  TRP184      0.0191
     69  CZ3       -6.5120  -18.6590  -13.7230 C.ar  184  TRP184      0.0001
     70  CH2       -6.5830  -17.7560  -12.6280 C.ar  184  TRP184      0.0015
     71  N         -9.1880   -7.4470  -21.2740 N.3   211  HIS211     -0.1241
     72  CA        -8.4410   -6.2080  -21.0060 C.3   211  HIS211      0.1621
     73  C         -7.1660   -6.1370  -21.8240 C.2   211  HIS211      0.2264
     74  O         -6.3510   -7.0810  -21.8180 O.2   211  HIS211     -0.2867
     75  CB        -8.0550   -6.0960  -19.5240 C.3   211  HIS211      0.0745
     76  CG        -9.2190   -6.0040  -18.5960 C.ar  211  HIS211      0.0817
     77  ND1       -9.8720   -4.8190  -18.3410 N.ar  211  HIS211     -0.2268
     78  CD2       -9.8490   -6.9530  -17.8540 C.ar  211  HIS211      0.1154
     79  CE1      -10.8570   -5.0380  -17.4850 C.ar  211  HIS211      0.1986
     80  NE2      -10.8660   -6.3250  -17.1750 N.ar  211  HIS211     -0.2212
     81  N         -6.2490  -17.6100   -2.4230 N.3   339  ASP339     -0.1239
     82  CA        -6.6490  -16.2170   -2.2190 C.3   339  ASP339      0.1674
     83  C         -8.1360  -16.0340   -2.3980 C.2   339  ASP339      0.2266
     84  O         -8.8260  -16.8900   -2.9770 O.2   339  ASP339     -0.2867
     85  CB        -5.8740  -15.2500   -3.1400 C.3   339  ASP339      0.1410
     86  CG        -5.9260  -15.6440   -4.6190 C.2   339  ASP339      0.3668
     87  OD1       -6.8540  -16.3440   -5.0750 O.co2 339  ASP339     -0.2456
     88  OD2       -5.0150  -15.2290   -5.3560 O.co2 339  ASP339     -0.2456
     89  N        -10.7120  -12.7010   -3.6240 N.3   341  ILE341     -0.1245
     90  CA       -10.8290  -11.3210   -4.0900 C.3   341  ILE341      0.1561
     91  C        -12.2900  -10.9220   -4.2010 C.2   341  ILE341      0.2260
     92  O        -13.1870  -11.7800   -4.3000 O.2   341  ILE341     -0.2867
     93  CB       -10.1010  -11.0860   -5.4680 C.3   341  ILE341      0.0252
     94  CG1      -10.8090  -11.8350   -6.6150 C.3   341  ILE341      0.0019
     95  CG2       -8.6390  -11.5170   -5.3740 C.3   341  ILE341      0.0019
     96  CD1      -10.2730  -11.4400   -8.0310 C.3   341  ILE341      0.0001
     97  N        -14.4580  -14.1880   -5.3970 N.3   348  ARG348     -0.1245
     98  CA       -13.8400  -15.3250   -6.0510 C.3   348  ARG348      0.1563
     99  C        -12.7820  -15.8940   -5.1430 C.2   348  ARG348      0.2260
    100  O        -11.9000  -15.1610   -4.6640 O.2   348  ARG348     -0.2867
    101  CB       -13.1990  -14.9310   -7.3790 C.3   348  ARG348      0.0307
    102  CG       -12.5980  -16.1380   -8.1380 C.3   348  ARG348      0.0489
    103  CD       -11.6060  -15.6620   -9.1750 C.3   348  ARG348      0.2205
    104  NE       -10.3700  -15.3000   -8.5290 N.pl3 348  ARG348     -0.0865
    105  CZ        -9.3660  -14.6500   -9.1130 C.cat 348  ARG348      0.5346
    106  NH1       -9.4640  -14.2560  -10.3720 N.pl3 348  ARG348      0.1354
    107  NH2       -8.2640  -14.3890   -8.4200 N.pl3 348  ARG348      0.1354
    108  N         -9.7820  -18.9510   -5.0140 N.3   350  ARG350     -0.1245
    109  CA        -9.0060  -19.9810   -5.7150 C.3   350  ARG350      0.1563
    110  C         -8.5280  -20.9940   -4.7040 C.2   350  ARG350      0.2260
    111  O         -7.9830  -20.6280   -3.6700 O.2   350  ARG350     -0.2867
    112  CB        -7.8290  -19.3800   -6.4900 C.3   350  ARG350      0.0307
    113  CG        -8.3120  -18.4970   -7.6420 C.3   350  ARG350      0.0489
    114  CD        -7.1910  -18.0470   -8.5870 C.3   350  ARG350      0.2205
    115  NE        -6.0660  -17.4280   -7.8930 N.pl3 350  ARG350     -0.0865
    116  CZ        -4.7950  -17.8200   -8.0150 C.cat 350  ARG350      0.5346
    117  NH1       -4.4510  -18.8320   -8.8290 N.pl3 350  ARG350      0.1354
    118  NH2       -3.8480  -17.1810   -7.3360 N.pl3 350  ARG350      0.1354
@<TRIPOS>BOND
     1    12    11    2
     2    11    10    1
     3    13    10    1
     4    13    14    1
     5    10     9    1
     6     9     3   am
     7     1     2    1
     8     3     4    2
     9     3     2    1
    10    14    16   ar
    11    14    15   ar
    12    16    18   ar
    13     2     5    1
    14    15    17   ar
    15    73    74    2
    16    73    72    1
    17    18    19   ar
    18     5     6    1
    19    71    72    1
    20    17    19   ar
    21    72    75    1
    22    19    20    1
    23     6     8    1
    24     6     7    1
    25    37    36    2
    26    38    36   am
    27    75    76    1
    28    50    49    2
    29    36    35    1
    30    60    59    2
    31    47    48    1
    32    59    58    1
    33    76    77   ar
    34    76    78   ar
    35    48    49    1
    36    48    51    1
    37    49    57   am
    38    77    79   ar
    39    78    80   ar
    40    35    34    1
    41    57    58    1
    42    53    55   ar
    43    53    52   ar
    44    79    80   ar
    45    33    32    2
    46    58    61    1
    47    51    52    1
    48    31    34    1
    49    31    32    1
    50    31    30    1
    51    55    56   ar
    52    52    54   ar
    53    32    39   am
    54    61    62    1
    55    56    54   ar
    56    42    41    2
    57    41    40    1
    58    39    40    1
    59    62    64   ar
    60    62    63   ar
    61    40    43    1
    62    24    23    2
    63    23    22    1
    64    67    64   ar
    65    67    69   ar
    66    64    66   ar
    67    63    65   ar
    68    69    70   ar
    69    43    44    1
    70    66    65   ar
    71    66    68   ar
    72    21    22    1
    73    22    25    1
    74    44    45   ar
    75    44    46   ar
    76    70    68   ar
    77    25    26    1
    78    26    27    1
    79   106   105    1
    80    27    28    1
    81    28    29    1
    82   103   104    1
    83   103   102    1
    84   105   104    2
    85   105   107    1
    86   117   116    1
    87   114   115    1
    88   114   113    1
    89   102   101    1
    90    96    94    1
    91   116   115    2
    92   116   118    1
    93   113   112    1
    94   101    98    1
    95    94    93    1
    96   112   109    1
    97    98    97    1
    98    98    99    1
    99   109   108    1
   100   109   110    1
   101    93    95    1
   102    93    90    1
   103    88    86   ar
   104    99   100    2
   105    87    86   ar
   106   110   111    2
   107    86    85    1
   108    92    91    2
   109    91    90    1
   110    90    89    1
   111    85    82    1
   112    84    83    2
   113    81    82    1
   114    83    82    1
