@<TRIPOS>MOLECULE
tmp/3zpgA00.pdb
 88 82 0 0 0
SMALL
GASTEIGER

@<TRIPOS>ATOM
      1  N        -19.5930  -33.1060  -23.3060 N.3   226  LEU226     -0.1245
      2  CA       -19.7700  -34.5060  -22.9310 C.3   226  LEU226      0.1561
      3  C        -21.2410  -34.8380  -23.0750 C.2   226  LEU226      0.2260
      4  O        -22.0740  -34.2810  -22.3700 O.2   226  LEU226     -0.2867
      5  CB       -19.2890  -34.7510  -21.4990 C.3   226  LEU226      0.0270
      6  CG       -17.8710  -34.3280  -21.1020 C.3   226  LEU226      0.0019
      7  CD1      -17.4470  -35.1120  -19.8790 C.3   226  LEU226      0.0001
      8  CD2      -16.8670  -34.5470  -22.2050 C.3   226  LEU226      0.0001
      9  N        -23.3410  -38.1310  -23.6640 N.3   228  ARG228     -0.1245
     10  CA       -23.2620  -39.5930  -23.7690 C.3   228  ARG228      0.1563
     11  C        -24.4250  -40.2300  -24.5470 C.2   228  ARG228      0.2260
     12  O        -24.3060  -41.3470  -25.0420 O.2   228  ARG228     -0.2867
     13  CB       -23.0890  -40.2290  -22.3820 C.3   228  ARG228      0.0307
     14  CG       -21.7230  -39.9310  -21.7660 C.3   228  ARG228      0.0489
     15  CD       -21.5560  -40.5950  -20.4110 C.3   228  ARG228      0.2205
     16  NE       -22.3770  -39.9330  -19.4020 N.pl3 228  ARG228     -0.0865
     17  CZ       -22.4640  -40.3080  -18.1260 C.cat 228  ARG228      0.5346
     18  NH1      -21.7670  -41.3440  -17.6710 N.pl3 228  ARG228      0.1354
     19  NH2      -23.2510  -39.6310  -17.2980 N.pl3 228  ARG228      0.1354
     20  N        -17.9970  -35.6070  -27.0600 N.3   248  MET248     -0.1245
     21  CA       -17.7880  -36.9810  -26.6160 C.3   248  MET248      0.1570
     22  C        -19.1420  -37.6470  -26.4780 C.2   248  MET248      0.2261
     23  O        -19.9130  -37.2840  -25.6040 O.2   248  MET248     -0.2867
     24  CB       -17.0450  -37.0470  -25.2780 C.3   248  MET248      0.0387
     25  CG       -16.6320  -38.4770  -24.9470 C.3   248  MET248      0.0595
     26  SD       -16.1920  -38.7910  -23.2210 S.3   248  MET248     -0.1393
     27  CE       -17.7440  -38.5210  -22.3770 C.3   248  MET248      0.0692
     28  N        -17.0640  -42.3320  -26.2080 N.3   265  ILE265     -0.1231
     29  CA       -17.3170  -42.2450  -24.7750 C.3   265  ILE265      0.1692
     30  C        -16.1540  -42.9180  -24.0510 C.2   265  ILE265      0.2592
     31  O        -15.7940  -44.0450  -24.3680 O.2   265  ILE265     -0.2718
     32  CB       -18.6530  -42.9230  -24.3840 C.3   265  ILE265      0.0266
     33  CG1      -19.8380  -42.0900  -24.8900 C.3   265  ILE265      0.0019
     34  CG2      -18.7590  -43.0780  -22.8480 C.3   265  ILE265      0.0020
     35  CD1      -21.1910  -42.8210  -24.7770 C.3   265  ILE265      0.0001
     36  N        -15.5610  -42.2080  -23.0960 N.am  266  GLN266     -0.1966
     37  CA       -14.4050  -42.7110  -22.3560 C.3   266  GLN266      0.1718
     38  C        -14.4000  -42.1270  -20.9390 C.2   266  GLN266      0.2458
     39  O        -15.0430  -41.1040  -20.6940 O.2   266  GLN266     -0.2730
     40  CB       -13.0940  -42.4070  -23.1000 C.3   266  GLN266      0.0407
     41  CG       -12.7760  -40.9210  -23.2850 C.3   266  GLN266      0.0908
     42  CD       -11.7340  -40.6760  -24.3690 C.2   266  GLN266      0.2608
     43  OE1      -10.5520  -40.4960  -24.0820 O.2   266  GLN266     -0.2717
     44  NE2      -12.1720  -40.6810  -25.6190 N.am  266  GLN266     -0.0878
     45  N        -13.7000  -42.7910  -19.9970 N.am  267  PRO267     -0.2716
     46  CA       -13.6270  -42.2690  -18.6390 C.3   267  PRO267      0.1536
     47  C        -13.0050  -40.8830  -18.6220 C.2   267  PRO267      0.2598
     48  O        -12.2150  -40.5380  -19.5160 O.2   267  PRO267     -0.2715
     49  CB       -12.7250  -43.2760  -17.9140 C.3   267  PRO267      0.0310
     50  CG       -12.8490  -44.5610  -18.7250 C.3   267  PRO267      0.0237
     51  CD       -13.0050  -44.0950  -20.1420 C.3   267  PRO267      0.0939
     52  N        -13.3810  -40.0810  -17.6220 N.am  268  LEU268     -0.1978
     53  CA       -12.9090  -38.6990  -17.5350 C.3   268  LEU268      0.1596
     54  C        -11.3850  -38.5570  -17.5120 C.2   268  LEU268      0.2287
     55  O        -10.8360  -37.6880  -18.1730 O.2   268  LEU268     -0.2864
     56  CB       -13.5300  -37.9810  -16.3300 C.3   268  LEU268      0.0297
     57  CG       -15.0490  -37.8160  -16.3590 C.3   268  LEU268      0.0022
     58  CD1      -15.5010  -37.0790  -15.1150 C.3   268  LEU268      0.0001
     59  CD2      -15.4970  -37.0910  -17.6240 C.3   268  LEU268      0.0001
     60  N        -23.5080  -32.3900  -11.4590 N.3   291  THR291     -0.1203
     61  CA       -23.1730  -33.7830  -11.6740 C.3   291  THR291      0.1994
     62  C        -21.7790  -33.9620  -12.2760 C.2   291  THR291      0.2617
     63  O        -20.9490  -34.7040  -11.7450 O.2   291  THR291     -0.2717
     64  CB       -24.2600  -34.5090  -12.5390 C.3   291  THR291      0.1784
     65  OG1      -25.5080  -34.4840  -11.8390 O.3   291  THR291     -0.2211
     66  CG2      -23.8720  -35.9440  -12.8250 C.3   291  THR291      0.0376
     67  N        -21.5250  -33.2970  -13.3900 N.am  292  LEU292     -0.1979
     68  CA       -20.2110  -33.4300  -14.0540 C.3   292  LEU292      0.1596
     69  C        -19.1020  -32.8310  -13.2010 C.2   292  LEU292      0.2287
     70  O        -18.0310  -33.4330  -13.0550 O.2   292  LEU292     -0.2864
     71  CB       -20.2110  -32.7630  -15.4320 C.3   292  LEU292      0.0297
     72  CG       -18.9700  -32.9770  -16.3010 C.3   292  LEU292      0.0022
     73  CD1      -18.4960  -34.4380  -16.3130 C.3   292  LEU292      0.0001
     74  CD2      -19.3030  -32.5010  -17.7030 C.3   292  LEU292      0.0001
     75  N        -18.2530  -35.2290  -10.4170 N.3   295  ALA295     -0.1245
     76  CA       -17.4810  -36.3480  -10.9660 C.3   295  ALA295      0.1562
     77  C        -16.0060  -35.9840  -11.0770 C.2   295  ALA295      0.2260
     78  O        -15.1480  -36.7510  -10.6370 O.2   295  ALA295     -0.2867
     79  CB       -18.0350  -36.8070  -12.3210 C.3   295  ALA295      0.0290
     80  N        -13.2020  -37.8060   -8.6300 N.3   299  GLU299     -0.1245
     81  CA       -12.1850  -38.6570   -9.2580 C.3   299  GLU299      0.1567
     82  C        -10.7830  -38.1030   -9.0760 C.2   299  GLU299      0.2260
     83  O         -9.8210  -38.7190   -9.5240 O.2   299  GLU299     -0.2867
     84  CB       -12.4800  -38.8810  -10.7300 C.3   299  GLU299      0.0388
     85  CG       -13.8770  -39.3490  -10.9460 C.3   299  GLU299      0.1160
     86  CD       -13.9550  -40.2880  -12.0760 C.2   299  GLU299      0.3649
     87  OE1      -13.4750  -41.4350  -11.9120 O.co2 299  GLU299     -0.2457
     88  OE2      -14.4770  -39.8830  -13.1320 O.co2 299  GLU299     -0.2457
@<TRIPOS>BOND
     1    20    21    1
     2    21    22    1
     3    21    24    1
     4    22    23    2
     5    28    29    1
     6    44    42   am
     7    24    25    1
     8    12    11    2
     9    25    26    1
    10    33    35    1
    11    33    32    1
    12    29    32    1
    13    29    30    1
    14    11    10    1
    15    32    34    1
    16    42    43    2
    17    42    41    1
    18    31    30    2
    19    30    36   am
    20    10     9    1
    21    10    13    1
    22     1     2    1
    23    41    40    1
    24    26    27    1
    25    40    37    1
    26    36    37    1
    27     3     2    1
    28     3     4    2
    29     2     5    1
    30    13    14    1
    31    37    38    1
    32     8     6    1
    33    14    15    1
    34     5     6    1
    35     6     7    1
    36    38    39    2
    37    38    45   am
    38    15    16    1
    39    51    45    1
    40    51    50    1
    41    45    46    1
    42    48    47    2
    43    16    17    2
    44    50    49    1
    45    46    47    1
    46    46    49    1
    47    47    52   am
    48    55    54    2
    49    17    18    1
    50    17    19    1
    51    74    72    1
    52    59    57    1
    53    52    53    1
    54    53    54    1
    55    53    56    1
    56    57    56    1
    57    57    58    1
    58    73    72    1
    59    72    71    1
    60    71    68    1
    61    68    67    1
    62    68    69    1
    63    67    62   am
    64    69    70    2
    65    88    86   ar
    66    66    64    1
    67    64    65    1
    68    64    61    1
    69    79    76    1
    70    62    63    2
    71    62    61    1
    72    86    87   ar
    73    86    85    1
    74    61    60    1
    75    77    76    1
    76    77    78    2
    77    76    75    1
    78    85    84    1
    79    84    81    1
    80    83    82    2
    81    81    82    1
    82    81    80    1
