@<TRIPOS>MOLECULE
tmp/3zpqB07.pdb
 98 91 0 0 0
SMALL
GASTEIGER

@<TRIPOS>ATOM
      1  N          0.8190  -11.2370   46.8330 N.3    45  THR45      -0.1218
      2  CA         1.5930  -10.4350   45.8740 C.3    45  THR45       0.1862
      3  C          2.7420  -11.2330   45.2820 C.2    45  THR45       0.2287
      4  O          3.0200  -11.1250   44.0850 O.2    45  THR45      -0.2866
      5  CB         2.1650   -9.1470   46.4940 C.3    45  THR45       0.1770
      6  OG1        1.0970   -8.3170   46.9460 O.3    45  THR45      -0.2211
      7  CG2        2.9580   -8.3640   45.4620 C.3    45  THR45       0.0375
      8  N         -1.8990   -4.0040   44.2370 N.3   108  ARG108     -0.1245
      9  CA        -1.4510   -3.0090   45.1900 C.3   108  ARG108      0.1563
     10  C         -2.4440   -1.8620   45.3150 C.2   108  ARG108      0.2260
     11  O         -2.7200   -1.3960   46.4150 O.2   108  ARG108     -0.2867
     12  CB        -0.0680   -2.4940   44.7990 C.3   108  ARG108      0.0307
     13  CG         1.0240   -3.5560   44.8390 C.3   108  ARG108      0.0489
     14  CD         1.2360   -4.0890   46.2400 C.3   108  ARG108      0.2205
     15  NE         0.2320   -5.0850   46.6100 N.pl3 108  ARG108     -0.0865
     16  CZ        -0.0490   -5.4600   47.8570 C.cat 108  ARG108      0.5346
     17  NH1        0.5930   -4.9300   48.8920 N.pl3 108  ARG108      0.1354
     18  NH2       -0.9910   -6.3700   48.0720 N.pl3 108  ARG108      0.1354
     19  N         -5.1160   -3.0660   47.4710 N.3   111  ALA111     -0.1231
     20  CA        -4.5710   -3.2280   48.7980 C.3   111  ALA111      0.1694
     21  C         -4.4480   -1.8670   49.5020 C.2   111  ALA111      0.2591
     22  O         -4.7520   -1.7580   50.6860 O.2   111  ALA111     -0.2718
     23  CB        -3.2220   -3.9300   48.7230 C.3   111  ALA111      0.0304
     24  N         -4.0280   -0.8320   48.7800 N.am  112  ILE112     -0.1980
     25  CA        -3.7450    0.4560   49.4050 C.3   112  ILE112      0.1595
     26  C         -5.0210    1.2750   49.6490 C.2   112  ILE112      0.2287
     27  O         -5.1120    1.9930   50.6330 O.2   112  ILE112     -0.2864
     28  CB        -2.7230    1.2780   48.5820 C.3   112  ILE112      0.0276
     29  CG1       -1.9620    2.2430   49.4720 C.3   112  ILE112      0.0022
     30  CG2       -3.4040    2.0890   47.4860 C.3   112  ILE112      0.0022
     31  CD1       -0.8140    2.9260   48.7550 C.3   112  ILE112      0.0001
     32  N         -8.0160   -1.7110   52.0910 N.3   115  PRO115     -0.2116
     33  CA        -7.2900   -2.8250   52.7190 C.3   115  PRO115      0.1372
     34  C         -8.1780   -3.9820   53.1720 C.2   115  PRO115      0.2244
     35  O         -7.7330   -5.1270   53.1540 O.2   115  PRO115     -0.2868
     36  CB        -6.6030   -2.1860   53.9320 C.3   115  PRO115      0.0268
     37  CG        -6.6280   -0.7200   53.7030 C.3   115  PRO115      0.0207
     38  CD        -7.6690   -0.4020   52.6760 C.3   115  PRO115      0.0892
     39  N         -9.9940   -5.6990   50.2260 N.3   118  TYR118     -0.1227
     40  CA        -8.8810   -6.4900   49.7030 C.3   118  TYR118      0.1736
     41  C         -8.6620   -7.7640   50.5150 C.2   118  TYR118      0.2595
     42  O         -8.4960   -8.8400   49.9520 O.2   118  TYR118     -0.2718
     43  CB        -7.5890   -5.6630   49.6780 C.3   118  TYR118      0.0548
     44  CG        -6.4000   -6.4260   49.1410 C.ar  118  TYR118     -0.0200
     45  CD1       -6.1980   -6.5690   47.7720 C.ar  118  TYR118     -0.0009
     46  CD2       -5.4860   -7.0200   50.0010 C.ar  118  TYR118     -0.0009
     47  CE1       -5.1090   -7.2740   47.2760 C.ar  118  TYR118      0.0417
     48  CE2       -4.3950   -7.7290   49.5200 C.ar  118  TYR118      0.0417
     49  CZ        -4.2040   -7.8560   48.1600 C.ar  118  TYR118      0.1957
     50  OH        -3.1090   -8.5600   47.7070 O.3   118  TYR118     -0.2866
     51  N         -8.6450   -7.6320   51.8360 N.am  119  GLN119     -0.1979
     52  CA        -8.4800   -8.7900   52.7290 C.3   119  GLN119      0.1601
     53  C         -9.4710   -9.9190   52.4480 C.2   119  GLN119      0.2287
     54  O         -9.0930  -11.0840   52.3560 O.2   119  GLN119     -0.2864
     55  CB        -8.6060   -8.3600   54.1920 C.3   119  GLN119      0.0394
     56  CG        -7.2740   -8.2050   54.9130 C.3   119  GLN119      0.0908
     57  CD        -6.7430   -9.5120   55.4900 C.2   119  GLN119      0.2608
     58  OE1       -7.3830  -10.5620   55.3840 O.2   119  GLN119     -0.2717
     59  NE2       -5.5620   -9.4520   56.1050 N.am  119  GLN119     -0.0878
     60  N         -0.9460    8.8490   52.1760 N.3   206  GLN206     -0.1245
     61  CA        -0.6540    8.1010   53.4040 C.3   206  GLN206      0.1566
     62  C          0.4900    8.6820   54.2390 C.2   206  GLN206      0.2260
     63  O          0.6920    8.2530   55.3630 O.2   206  GLN206     -0.2867
     64  CB        -0.2700    6.6570   53.0810 C.3   206  GLN206      0.0367
     65  CG        -1.3970    5.7470   52.6600 C.3   206  GLN206      0.0905
     66  CD        -0.9150    4.3190   52.5200 C.2   206  GLN206      0.2608
     67  OE1        0.2760    4.0720   52.2980 O.2   206  GLN206     -0.2717
     68  NE2       -1.8310    3.3650   52.6650 N.am  206  GLN206     -0.0878
     69  N          6.5380   -0.6880   54.0720 N.3   226  GLU226     -0.1245
     70  CA         5.5810   -0.8900   52.9810 C.3   226  GLU226      0.1567
     71  C          6.0090   -0.1210   51.7360 C.2   226  GLU226      0.2260
     72  O          6.1420   -0.6810   50.6610 O.2   226  GLU226     -0.2867
     73  CB         4.1820   -0.4170   53.3980 C.3   226  GLU226      0.0388
     74  CG         3.3690   -1.4430   54.1640 C.3   226  GLU226      0.1160
     75  CD         1.9610   -0.9560   54.4750 C.2   226  GLU226      0.3649
     76  OE1        1.5420    0.0910   53.9290 O.co2 226  GLU226     -0.2457
     77  OE2        1.2600   -1.6330   55.2600 O.co2 226  GLU226     -0.2457
     78  N          8.7850   -1.5710   49.7830 N.3   229  ALA229     -0.1231
     79  CA         8.3410   -2.6770   48.9420 C.3   229  ALA229      0.1694
     80  C          7.6420   -2.1600   47.6740 C.2   229  ALA229      0.2591
     81  O          7.8800   -2.6650   46.5740 O.2   229  ALA229     -0.2718
     82  CB         7.4190   -3.5990   49.7220 C.3   229  ALA229      0.0304
     83  N          6.7810   -1.1560   47.8290 N.am  230  LEU230     -0.1980
     84  CA         6.1040   -0.5520   46.6840 C.3   230  LEU230      0.1596
     85  C          7.1110    0.0260   45.6890 C.2   230  LEU230      0.2287
     86  O          6.9450   -0.1140   44.4780 O.2   230  LEU230     -0.2864
     87  CB         5.1510    0.5680   47.1250 C.3   230  LEU230      0.0297
     88  CG         3.7510    0.2210   47.6350 C.3   230  LEU230      0.0022
     89  CD1        2.9510    1.5060   47.7890 C.3   230  LEU230      0.0001
     90  CD2        3.0410   -0.7450   46.7020 C.3   230  LEU230      0.0001
     91  N          8.6360   -2.7190   43.6220 N.3   233  LEU233     -0.1245
     92  CA         7.7280   -3.0450   42.5350 C.3   233  LEU233      0.1561
     93  C          7.7880   -1.9470   41.4830 C.2   233  LEU233      0.2260
     94  O          7.8280   -2.2140   40.2910 O.2   233  LEU233     -0.2867
     95  CB         6.3090   -3.2240   43.0580 C.3   233  LEU233      0.0270
     96  CG         6.1340   -4.4530   43.9600 C.3   233  LEU233      0.0019
     97  CD1        4.7110   -4.5280   44.4830 C.3   233  LEU233      0.0001
     98  CD2        6.5120   -5.7360   43.2310 C.3   233  LEU233      0.0001
@<TRIPOS>BOND
     1    94    93    2
     2    93    92    1
     3    92    95    1
     4    92    91    1
     5    95    96    1
     6    98    96    1
     7    96    97    1
     8     4     3    2
     9     8     9    1
    10    86    85    2
    11    12    13    1
    12    12     9    1
    13    13    14    1
    14     9    10    1
    15     3     2    1
    16    10    11    2
    17     7     5    1
    18    85    84    1
    19     2     5    1
    20     2     1    1
    21    14    15    1
    22     5     6    1
    23    81    80    2
    24    15    16    2
    25    84    87    1
    26    84    83    1
    27    90    88    1
    28    87    88    1
    29    47    45   ar
    30    47    49   ar
    31    19    20    1
    32    30    28    1
    33    88    89    1
    34    80    83   am
    35    80    79    1
    36    50    49    1
    37    45    44   ar
    38    16    18    1
    39    16    17    1
    40    49    48   ar
    41    28    25    1
    42    28    29    1
    43    23    20    1
    44    31    29    1
    45    24    25    1
    46    24    21   am
    47    20    21    1
    48    79    82    1
    49    79    78    1
    50    44    43    1
    51    44    46   ar
    52    25    26    1
    53    21    22    2
    54    48    46   ar
    55    26    27    2
    56    43    40    1
    57    40    39    1
    58    40    41    1
    59    42    41    2
    60    41    51   am
    61    72    71    2
    62    71    70    1
    63    51    52    1
    64    32    38    1
    65    32    33    1
    66    60    61    1
    67    67    66    2
    68    54    53    2
    69    53    52    1
    70    66    65    1
    71    66    68   am
    72    65    64    1
    73    38    37    1
    74    33    34    1
    75    33    36    1
    76    52    55    1
    77    70    73    1
    78    70    69    1
    79    64    61    1
    80    35    34    2
    81    73    74    1
    82    61    62    1
    83    37    36    1
    84    76    75   ar
    85    74    75    1
    86    55    56    1
    87    62    63    2
    88    75    77   ar
    89    56    57    1
    90    58    57    2
    91    57    59   am
