@<TRIPOS>MOLECULE
tmp/3zpqB10.pdb
 116 113 0 0 0
SMALL
GASTEIGER

@<TRIPOS>ATOM
      1  N         -3.2470  -14.7500   22.6010 N.3   141  VAL141     -0.1245
      2  CA        -2.8080  -13.6700   21.7220 C.3   141  VAL141      0.1561
      3  C         -1.4130  -13.8930   21.1510 C.2   141  VAL141      0.2260
      4  O         -0.9590  -13.1060   20.3310 O.2   141  VAL141     -0.2867
      5  CB        -2.8820  -12.2890   22.4270 C.3   141  VAL141      0.0252
      6  CG1       -4.2810  -12.0530   22.9910 C.3   141  VAL141      0.0019
      7  CG2       -1.8450  -12.1760   23.5200 C.3   141  VAL141      0.0019
      8  N         -2.1290  -16.5580   16.4770 N.3   145  PRO145     -0.2116
      9  CA        -1.8000  -15.7850   15.2900 C.3   145  PRO145      0.1372
     10  C         -0.4920  -16.1950   14.6470 C.2   145  PRO145      0.2244
     11  O         -0.3210  -15.9610   13.4520 O.2   145  PRO145     -0.2868
     12  CB        -1.7000  -14.3510   15.8130 C.3   145  PRO145      0.0268
     13  CG        -2.4190  -14.3570   17.0940 C.3   145  PRO145      0.0207
     14  CD        -2.2060  -15.7090   17.6720 C.3   145  PRO145      0.0892
     15  N         -0.1620  -18.1710   10.7800 N.3   149  HIS149     -0.1226
     16  CA         0.5280  -17.3250    9.8010 C.3   149  HIS149      0.1752
     17  C         -0.0950  -15.9600    9.5270 C.2   149  HIS149      0.2596
     18  O          0.1080  -15.3840    8.4610 O.2   149  HIS149     -0.2718
     19  CB         0.7420  -18.1150    8.5050 C.3   149  HIS149      0.0759
     20  CG         1.8090  -19.1870    8.6150 C.ar  149  HIS149      0.0818
     21  ND1        2.4600  -19.6700    7.5450 N.ar  149  HIS149     -0.2268
     22  CD2        2.3410  -19.8380    9.7260 C.ar  149  HIS149      0.1154
     23  CE1        3.3480  -20.5960    7.9460 C.ar  149  HIS149      0.1986
     24  NE2        3.2710  -20.6970    9.2790 N.ar  149  HIS149     -0.2212
     25  N         -0.8130  -15.4000   10.5010 N.am  150  TRP150     -0.1976
     26  CA        -1.3650  -14.0410   10.3630 C.3   150  TRP150      0.1640
     27  C         -0.3240  -12.9590   10.3460 C.2   150  TRP150      0.2290
     28  O         -0.6190  -11.8140   10.0310 O.2   150  TRP150     -0.2864
     29  CB        -2.3320  -13.7160   11.4830 C.3   150  TRP150      0.0576
     30  CG        -3.6270  -14.4840   11.4540 C.ar  150  TRP150      0.0006
     31  CD1       -4.0760  -15.3470   10.4780 C.ar  150  TRP150      0.0946
     32  CD2       -4.7000  -14.4590   12.4600 C.ar  150  TRP150      0.0152
     33  NE1       -5.2950  -15.8490   10.8050 N.ar  150  TRP150     -0.2442
     34  CE2       -5.7260  -15.3640   11.9770 C.ar  150  TRP150      0.0810
     35  CE3       -4.8870  -13.8200   13.6760 C.ar  150  TRP150      0.0012
     36  CZ2       -6.8980  -15.5950   12.6800 C.ar  150  TRP150      0.0191
     37  CZ3       -6.0730  -14.0680   14.3820 C.ar  150  TRP150      0.0001
     38  CH2       -7.0550  -14.9280   13.8890 C.ar  150  TRP150      0.0015
     39  N          2.4910  -13.1000    8.4550 N.3   152  ARG152     -0.1231
     40  CA         3.3330  -13.1460    7.2520 C.3   152  ARG152      0.1694
     41  C          3.0700  -12.0160    6.2810 C.2   152  ARG152      0.2592
     42  O          1.9420  -11.6050    6.1140 O.2   152  ARG152     -0.2718
     43  CB         3.2050  -14.4920    6.5490 C.3   152  ARG152      0.0321
     44  CG         3.9750  -15.5590    7.2860 C.3   152  ARG152      0.0489
     45  CD         4.1880  -16.7950    6.4570 C.3   152  ARG152      0.2205
     46  NE         5.1250  -17.6590    7.1420 N.pl3 152  ARG152     -0.0865
     47  CZ         5.6220  -18.7800    6.6490 C.cat 152  ARG152      0.5346
     48  NH1        5.2780  -19.1900    5.4360 N.pl3 152  ARG152      0.1354
     49  NH2        6.4660  -19.4970    7.3850 N.pl3 152  ARG152      0.1354
     50  N          4.1260  -11.5190    5.6480 N.am  153  ASP153     -0.1960
     51  CA         4.0020  -10.5240    4.5820 C.3   153  ASP153      0.1840
     52  C          4.2680  -11.1070    3.1820 C.2   153  ASP153      0.2621
     53  O          4.9220  -12.1430    3.0360 O.2   153  ASP153     -0.2715
     54  CB         4.9740   -9.3720    4.8400 C.3   153  ASP153      0.1450
     55  CG         4.5220   -8.0650    4.2050 C.2   153  ASP153      0.3671
     56  OD1        3.4170   -8.0450    3.6080 O.co2 153  ASP153     -0.2456
     57  OD2        5.2740   -7.0640    4.3080 O.co2 153  ASP153     -0.2456
     58  N          3.7680  -10.4190    2.1600 N.am  154  GLU154     -0.1977
     59  CA         3.9830  -10.8050    0.7590 C.3   154  GLU154      0.1602
     60  C          5.0880   -9.9800    0.0690 C.2   154  GLU154      0.2287
     61  O          5.2320  -10.0080   -1.1430 O.2   154  GLU154     -0.2864
     62  CB         2.6740  -10.6840   -0.0100 C.3   154  GLU154      0.0415
     63  CG         1.4900  -11.2370    0.7610 C.3   154  GLU154      0.1163
     64  CD         0.1900  -11.2250   -0.0220 C.2   154  GLU154      0.3649
     65  OE1        0.1270  -10.6020   -1.1090 O.co2 154  GLU154     -0.2457
     66  OE2       -0.7830  -11.8380    0.4730 O.co2 154  GLU154     -0.2457
     67  N          4.0580   -8.7420    8.4460 N.3   173  ASN173     -0.1240
     68  CA         3.2990   -7.6820    7.8210 C.3   173  ASN173      0.1653
     69  C          2.9850   -6.5560    8.8220 C.2   173  ASN173      0.2266
     70  O          3.0190   -6.7470   10.0160 O.2   173  ASN173     -0.2867
     71  CB         2.0110   -8.2670    7.2280 C.3   173  ASN173      0.1155
     72  CG         1.0300   -8.7500    8.2940 C.2   173  ASN173      0.2627
     73  OD1        0.4460   -7.9490    9.0230 O.2   173  ASN173     -0.2716
     74  ND2        0.8430  -10.0550    8.3770 N.am  173  ASN173     -0.0877
     75  N          0.1080   -4.9560    9.5570 N.3   175  ALA175     -0.1231
     76  CA        -1.0930   -5.1100   10.3900 C.3   175  ALA175      0.1694
     77  C         -0.7650   -5.8390   11.6970 C.2   175  ALA175      0.2592
     78  O         -1.1680   -5.4050   12.7860 O.2   175  ALA175     -0.2718
     79  CB        -2.1840   -5.8610    9.6420 C.3   175  ALA175      0.0304
     80  N         -0.0240   -6.9440   11.5740 N.am  176  TYR176     -0.1976
     81  CA         0.3200   -7.7780   12.7000 C.3   176  TYR176      0.1639
     82  C          1.2760   -7.0270   13.5890 C.2   176  TYR176      0.2290
     83  O          1.1780   -7.1030   14.7930 O.2   176  TYR176     -0.2864
     84  CB         0.9340   -9.1050   12.2320 C.3   176  TYR176      0.0560
     85  CG         1.4030   -9.9410   13.3850 C.ar  176  TYR176     -0.0198
     86  CD1        2.6660   -9.7700   13.8990 C.ar  176  TYR176     -0.0009
     87  CD2        0.5620  -10.8520   14.0030 C.ar  176  TYR176     -0.0009
     88  CE1        3.1010  -10.4990   14.9930 C.ar  176  TYR176      0.0417
     89  CE2        0.9920  -11.6070   15.0960 C.ar  176  TYR176      0.0417
     90  CZ         2.2660  -11.4190   15.5870 C.ar  176  TYR176      0.1957
     91  OH         2.7250  -12.1210   16.6590 O.3   176  TYR176     -0.2866
     92  N         -0.9440   -4.5200   15.4260 N.3   179  ALA179     -0.1231
     93  CA        -1.9910   -5.1670   16.2360 C.3   179  ALA179      0.1694
     94  C         -1.4130   -5.9250   17.4230 C.2   179  ALA179      0.2592
     95  O         -1.8750   -5.7870   18.5590 O.2   179  ALA179     -0.2718
     96  CB        -2.7960   -6.1160   15.3890 C.3   179  ALA179      0.0304
     97  N         -0.3890   -6.7200   17.1470 N.am  180  SER180     -0.1952
     98  CA         0.2620   -7.5130   18.1700 C.3   180  SER180      0.1924
     99  C          0.9930   -6.6510   19.1780 C.2   180  SER180      0.2314
    100  O          1.0740   -7.0100   20.3470 O.2   180  SER180     -0.2863
    101  CB         1.2710   -8.4890   17.5540 C.3   180  SER180      0.2116
    102  OG         2.5440   -7.8790   17.4360 O.3   180  SER180     -0.2180
    103  N         -1.8150   -5.0200   21.3320 N.3   183  ILE183     -0.1231
    104  CA        -2.4760   -6.0270   22.1680 C.3   183  ILE183      0.1692
    105  C         -1.5320   -6.6840   23.1940 C.2   183  ILE183      0.2592
    106  O         -1.9240   -6.9000   24.3420 O.2   183  ILE183     -0.2718
    107  CB        -3.1990   -7.0910   21.3130 C.3   183  ILE183      0.0266
    108  CG1       -4.3980   -6.4480   20.6090 C.3   183  ILE183      0.0019
    109  CG2       -3.6440   -8.2620   22.1880 C.3   183  ILE183      0.0020
    110  CD1       -4.8690   -7.2030   19.3870 C.3   183  ILE183      0.0001
    111  N         -0.3040   -6.9920   22.7930 N.am  184  SER184     -0.1952
    112  CA         0.6290   -7.6480   23.7040 C.3   184  SER184      0.1924
    113  C          1.3300   -6.6890   24.6250 C.2   184  SER184      0.2314
    114  O          1.6710   -7.0590   25.7430 O.2   184  SER184     -0.2863
    115  CB         1.6850   -8.4470   22.9450 C.3   184  SER184      0.2116
    116  OG         1.1150   -9.6390   22.4480 O.3   184  SER184     -0.2180
@<TRIPOS>BOND
     1    61    60    2
     2    65    64   ar
     3    64    66   ar
     4    64    63    1
     5    62    59    1
     6    62    63    1
     7    60    59    1
     8    59    58    1
     9    58    52   am
    10    53    52    2
    11    52    51    1
    12    56    55   ar
    13    55    57   ar
    14    55    54    1
    15    51    54    1
    16    51    50    1
    17    48    47    1
    18    50    41   am
    19    42    41    2
    20    41    40    1
    21    45    46    1
    22    45    44    1
    23    43    40    1
    24    43    44    1
    25    47    46    2
    26    47    49    1
    27    71    68    1
    28    71    72    1
    29    40    39    1
    30    21    23   ar
    31    21    20   ar
    32    68    67    1
    33    68    69    1
    34    23    24   ar
    35    72    74   am
    36    72    73    2
    37    18    17    2
    38    19    20    1
    39    19    16    1
    40    20    22   ar
    41    69    70    2
    42    24    22   ar
    43    17    16    1
    44    17    25   am
    45    75    76    1
    46    79    76    1
    47    16    15    1
    48    28    27    2
    49    27    26    1
    50    26    25    1
    51    26    29    1
    52    76    77    1
    53    31    33   ar
    54    31    30   ar
    55    33    34   ar
    56    30    29    1
    57    30    32   ar
    58    80    77   am
    59    80    81    1
    60    77    78    2
    61    34    32   ar
    62    34    36   ar
    63    84    81    1
    64    84    85    1
    65    32    35   ar
    66    36    38   ar
    67    81    82    1
    68    85    86   ar
    69    85    87   ar
    70    11    10    2
    71    82    83    2
    72    35    37   ar
    73    38    37   ar
    74    86    88   ar
    75    87    89   ar
    76    10     9    1
    77    88    90   ar
    78    89    90   ar
    79     9    12    1
    80     9     8    1
    81    96    93    1
    82    92    93    1
    83    90    91    1
    84    12    13    1
    85    93    94    1
    86     8    14    1
    87    13    14    1
    88    97    94   am
    89    97    98    1
    90    94    95    2
    91   102   101    1
    92   101    98    1
    93    98    99    1
    94    99   100    2
    95   110   108    1
    96     4     3    2
    97   108   107    1
    98     3     2    1
    99   107   104    1
   100   107   109    1
   101   103   104    1
   102     2     5    1
   103     2     1    1
   104   104   105    1
   105     5     6    1
   106     5     7    1
   107   116   115    1
   108   111   105   am
   109   111   112    1
   110   115   112    1
   111   105   106    2
   112   112   113    1
   113   113   114    2
