@<TRIPOS>MOLECULE
tmp/3zpqB06.pdb
 126 117 0 0 0
SMALL
GASTEIGER

@<TRIPOS>ATOM
      1  N          0.2290   -4.2050   39.7510 N.3   105  ALA105     -0.1245
      2  CA        -0.1220   -2.8150   39.9790 C.3   105  ALA105      0.1562
      3  C         -1.5580   -2.7350   40.5450 C.2   105  ALA105      0.2260
      4  O         -1.8250   -1.9990   41.4980 O.2   105  ALA105     -0.2867
      5  CB         0.0240   -2.0000   38.6970 C.3   105  ALA105      0.0290
      6  N         -1.8990   -4.0040   44.2370 N.3   108  ARG108     -0.1245
      7  CA        -1.4510   -3.0090   45.1900 C.3   108  ARG108      0.1563
      8  C         -2.4440   -1.8620   45.3150 C.2   108  ARG108      0.2260
      9  O         -2.7200   -1.3960   46.4150 O.2   108  ARG108     -0.2867
     10  CB        -0.0680   -2.4940   44.7990 C.3   108  ARG108      0.0307
     11  CG         1.0240   -3.5560   44.8390 C.3   108  ARG108      0.0489
     12  CD         1.2360   -4.0890   46.2400 C.3   108  ARG108      0.2205
     13  NE         0.2320   -5.0850   46.6100 N.pl3 108  ARG108     -0.0865
     14  CZ        -0.0490   -5.4600   47.8570 C.cat 108  ARG108      0.5346
     15  NH1        0.5930   -4.9300   48.8920 N.pl3 108  ARG108      0.1354
     16  NH2       -0.9910   -6.3700   48.0720 N.pl3 108  ARG108      0.1354
     17  N         -0.1570    2.5310   38.2650 N.3   196  ALA196     -0.1245
     18  CA         1.0200    2.7610   39.0800 C.3   196  ALA196      0.1562
     19  C          1.0550    4.2060   39.5820 C.2   196  ALA196      0.2260
     20  O          1.3780    4.4420   40.7550 O.2   196  ALA196     -0.2867
     21  CB         2.2830    2.4030   38.3090 C.3   196  ALA196      0.0290
     22  N         -1.2740    4.5130   42.3730 N.3   199  VAL199     -0.1231
     23  CA        -0.7520    3.8870   43.5920 C.3   199  VAL199      0.1692
     24  C          0.2600    4.8220   44.2210 C.2   199  VAL199      0.2592
     25  O          0.3690    4.8720   45.4380 O.2   199  VAL199     -0.2718
     26  CB        -0.1220    2.4880   43.3230 C.3   199  VAL199      0.0266
     27  CG1        0.5980    1.9650   44.5570 C.3   199  VAL199      0.0020
     28  CG2       -1.1950    1.4990   42.8940 C.3   199  VAL199      0.0020
     29  N          0.9810    5.5650   43.3850 N.am  200  TYR200     -0.1976
     30  CA         1.9210    6.5740   43.8600 C.3   200  TYR200      0.1639
     31  C          1.1830    7.6450   44.6450 C.2   200  TYR200      0.2290
     32  O          1.5210    7.9000   45.8000 O.2   200  TYR200     -0.2864
     33  CB         2.6750    7.2170   42.6820 C.3   200  TYR200      0.0560
     34  CG         3.7040    8.2460   43.0850 C.ar  200  TYR200     -0.0198
     35  CD1        4.9460    7.8570   43.5890 C.ar  200  TYR200     -0.0009
     36  CD2        3.4340    9.6040   42.9740 C.ar  200  TYR200     -0.0009
     37  CE1        5.8870    8.7890   43.9710 C.ar  200  TYR200      0.0417
     38  CE2        4.3730   10.5490   43.3490 C.ar  200  TYR200      0.0417
     39  CZ         5.5920   10.1350   43.8420 C.ar  200  TYR200      0.1957
     40  OH         6.5140   11.0810   44.2020 O.3   200  TYR200     -0.2866
     41  N         -0.0840    6.4770   47.9540 N.3   203  ALA203     -0.1231
     42  CA         1.0280    6.3500   48.8750 C.3   203  ALA203      0.1694
     43  C          1.4100    7.7110   49.4790 C.2   203  ALA203      0.2591
     44  O          1.7800    7.7930   50.6570 O.2   203  ALA203     -0.2718
     45  CB         2.2130    5.7330   48.1590 C.3   203  ALA203      0.0304
     46  N          1.3150    8.7700   48.6730 N.am  204  LYS204     -0.1980
     47  CA         1.6610   10.1130   49.1290 C.3   204  LYS204      0.1596
     48  C          0.6410   10.6930   50.1040 C.2   204  LYS204      0.2287
     49  O          1.0010   11.4710   50.9920 O.2   204  LYS204     -0.2864
     50  CB         1.8550   11.0720   47.9550 C.3   204  LYS204      0.0298
     51  CG         3.3160   11.2750   47.5920 C.3   204  LYS204      0.0038
     52  CD         3.5030   12.2950   46.4780 C.3   204  LYS204      0.0206
     53  CE         2.9970   13.6780   46.8690 C.3   204  LYS204      0.1093
     54  NZ         3.3770   14.7100   45.8620 N.3   204  LYS204     -0.1314
     55  N          1.2860    9.5910   53.6970 N.3   207  ILE207     -0.1245
     56  CA         2.4540   10.0710   54.4400 C.3   207  ILE207      0.1561
     57  C          2.2010   11.4480   55.0550 C.2   207  ILE207      0.2260
     58  O          3.1020   12.0340   55.6440 O.2   207  ILE207     -0.2867
     59  CB         3.7320   10.1020   53.5640 C.3   207  ILE207      0.0252
     60  CG1        3.6230   11.1630   52.4540 C.3   207  ILE207      0.0019
     61  CG2        3.9890    8.7200   52.9840 C.3   207  ILE207      0.0019
     62  CD1        4.8870   11.9570   52.2190 C.3   207  ILE207      0.0001
     63  N          7.1400    3.1010   56.1970 N.3   224  MET224     -0.1245
     64  CA         8.3760    3.1760   55.4050 C.3   224  MET224      0.1570
     65  C          8.7650    1.7900   54.8470 C.2   224  MET224      0.2261
     66  O          9.3340    1.6770   53.7710 O.2   224  MET224     -0.2867
     67  CB         9.5340    3.7590   56.2290 C.3   224  MET224      0.0387
     68  CG         9.3970    5.2290   56.6150 C.3   224  MET224      0.0595
     69  SD         9.4380    6.4080   55.2570 S.3   224  MET224     -0.1393
     70  CE         7.6870    6.6150   54.8980 C.3   224  MET224      0.0692
     71  N          6.2110    1.1750   51.9050 N.3   227  HIS227     -0.1226
     72  CA         6.6570    2.0430   50.8340 C.3   227  HIS227      0.1752
     73  C          7.9140    1.5960   50.1630 C.2   227  HIS227      0.2595
     74  O          8.0930    1.8220   48.9780 O.2   227  HIS227     -0.2718
     75  CB         6.8350    3.4480   51.3730 C.3   227  HIS227      0.0759
     76  CG         5.5730    4.2550   51.3240 C.ar  227  HIS227      0.0818
     77  ND1        4.8660    4.5920   52.4030 N.ar  227  HIS227     -0.2268
     78  CD2        4.8930    4.7480   50.2510 C.ar  227  HIS227      0.1154
     79  CE1        3.7900    5.3040   52.0260 C.ar  227  HIS227      0.1986
     80  NE2        3.8070    5.3960   50.7130 N.ar  227  HIS227     -0.2212
     81  N          8.8080    0.9650   50.9040 N.am  228  LYS228     -0.1980
     82  CA        10.0350    0.4580   50.3110 C.3   228  LYS228      0.1596
     83  C          9.7200   -0.7150   49.3790 C.2   228  LYS228      0.2287
     84  O         10.3250   -0.8420   48.3160 O.2   228  LYS228     -0.2864
     85  CB        11.0210    0.0260   51.4000 C.3   228  LYS228      0.0298
     86  CG        12.4470   -0.1490   50.9070 C.3   228  LYS228      0.0038
     87  CD        13.2210   -1.1330   51.7710 C.3   228  LYS228      0.0206
     88  CE        14.5290   -1.5190   51.1070 C.3   228  LYS228      0.1093
     89  NZ        15.4660   -2.1260   52.0850 N.3   228  LYS228     -0.1314
     90  N          6.7810   -1.1560   47.8290 N.3   230  LEU230     -0.1231
     91  CA         6.1040   -0.5520   46.6840 C.3   230  LEU230      0.1693
     92  C          7.1110    0.0260   45.6890 C.2   230  LEU230      0.2591
     93  O          6.9450   -0.1140   44.4780 O.2   230  LEU230     -0.2718
     94  CB         5.1510    0.5680   47.1250 C.3   230  LEU230      0.0284
     95  CG         3.7510    0.2210   47.6350 C.3   230  LEU230      0.0019
     96  CD1        2.9510    1.5060   47.7890 C.3   230  LEU230      0.0001
     97  CD2        3.0410   -0.7450   46.7020 C.3   230  LEU230      0.0001
     98  N          8.1430    0.6860   46.2060 N.am  231  LYS231     -0.1980
     99  CA         9.1760    1.2580   45.3710 C.3   231  LYS231      0.1596
    100  C          9.9470    0.1580   44.6490 C.2   231  LYS231      0.2287
    101  O         10.3520    0.3440   43.5060 O.2   231  LYS231     -0.2864
    102  CB        10.1220    2.1100   46.2090 C.3   231  LYS231      0.0298
    103  CG        10.9740    3.0740   45.3950 C.3   231  LYS231      0.0038
    104  CD        11.9310    3.8730   46.2770 C.3   231  LYS231      0.0206
    105  CE        13.0430    4.5530   45.4840 C.3   231  LYS231      0.1093
    106  NZ        14.3060    4.6690   46.2750 N.3   231  LYS231     -0.1314
    107  N          8.6360   -2.7190   43.6220 N.3   233  LEU233     -0.1231
    108  CA         7.7280   -3.0450   42.5350 C.3   233  LEU233      0.1693
    109  C          7.7880   -1.9470   41.4830 C.2   233  LEU233      0.2592
    110  O          7.8280   -2.2140   40.2910 O.2   233  LEU233     -0.2718
    111  CB         6.3090   -3.2240   43.0580 C.3   233  LEU233      0.0284
    112  CG         6.1340   -4.4530   43.9600 C.3   233  LEU233      0.0019
    113  CD1        4.7110   -4.5280   44.4830 C.3   233  LEU233      0.0001
    114  CD2        6.5120   -5.7360   43.2310 C.3   233  LEU233      0.0001
    115  N          7.8160   -0.6980   41.9180 N.am  234  GLY234     -0.1957
    116  CA         7.8990    0.4130   40.9830 C.3   234  GLY234      0.1869
    117  C          9.1220    0.2800   40.1120 C.2   234  GLY234      0.2309
    118  O          9.0670    0.5840   38.9370 O.2   234  GLY234     -0.2863
    119  N          8.8330   -2.5310   37.3750 N.3   237  MET237     -0.1245
    120  CA         7.9620   -1.9930   36.3160 C.3   237  MET237      0.1570
    121  C          8.6840   -0.9890   35.4150 C.2   237  MET237      0.2261
    122  O          8.5330   -1.0170   34.1940 O.2   237  MET237     -0.2867
    123  CB         6.7410   -1.3120   36.9320 C.3   237  MET237      0.0387
    124  CG         5.8260   -2.2790   37.6570 C.3   237  MET237      0.0595
    125  SD         4.3890   -1.4660   38.3710 S.3   237  MET237     -0.1393
    126  CE         3.6780   -2.8570   39.2630 C.3   237  MET237      0.0692
@<TRIPOS>BOND
     1   122   121    2
     2   121   120    1
     3   120   123    1
     4   120   119    1
     5   123   124    1
     6   124   125    1
     7    17    18    1
     8    21    18    1
     9   125   126    1
    10     5     2    1
    11   118   117    2
    12    18    19    1
    13    19    20    2
    14     1     2    1
    15     2     3    1
    16   117   116    1
    17   110   109    2
    18     3     4    2
    19   116   115    1
    20   109   115   am
    21   109   108    1
    22    22    23    1
    23   108   111    1
    24   108   107    1
    25    33    34    1
    26    33    30    1
    27    28    26    1
    28    36    34   ar
    29    36    38   ar
    30   111   112    1
    31    34    35   ar
    32   114   112    1
    33    26    23    1
    34    26    27    1
    35    38    39   ar
    36    29    30    1
    37    29    24   am
    38   101   100    2
    39    35    37   ar
    40    23    24    1
    41    39    37   ar
    42    39    40    1
    43    30    31    1
    44   112   113    1
    45    24    25    2
    46     6     7    1
    47    93    92    2
    48    31    32    2
    49   100    99    1
    50    10    11    1
    51    10     7    1
    52    11    12    1
    53     7     8    1
    54     8     9    2
    55    99    98    1
    56    99   102    1
    57   103   102    1
    58   103   104    1
    59   105   106    1
    60   105   104    1
    61    92    98   am
    62    92    91    1
    63    54    53    1
    64    12    13    1
    65    52    53    1
    66    52    51    1
    67    13    14    2
    68    91    94    1
    69    91    90    1
    70    97    95    1
    71    94    95    1
    72    51    50    1
    73    95    96    1
    74    14    16    1
    75    14    15    1
    76    41    42    1
    77    50    47    1
    78    45    42    1
    79    84    83    2
    80    46    47    1
    81    46    43   am
    82    42    43    1
    83    74    73    2
    84    47    48    1
    85    83    82    1
    86    43    44    2
    87    48    49    2
    88    73    72    1
    89    73    81   am
    90    78    80   ar
    91    78    76   ar
    92    82    81    1
    93    82    85    1
    94    80    79   ar
    95    72    75    1
    96    72    71    1
    97    86    85    1
    98    86    87    1
    99    88    87    1
   100    88    89    1
   101    76    75    1
   102    76    77   ar
   103    79    77   ar
   104    62    60    1
   105    60    59    1
   106    61    59    1
   107    59    56    1
   108    55    56    1
   109    66    65    2
   110    56    57    1
   111    65    64    1
   112    70    69    1
   113    57    58    2
   114    69    68    1
   115    64    63    1
   116    64    67    1
   117    67    68    1
