@<TRIPOS>MOLECULE
tmp/3zpqA02.pdb
 101 94 0 0 0
SMALL
GASTEIGER

@<TRIPOS>ATOM
      1  N        -13.9420    5.6350   14.4020 N.3   105  ALA105     -0.1245
      2  CA       -13.5860    6.8090   15.1890 C.3   105  ALA105      0.1562
      3  C        -12.1550    7.2450   14.8470 C.2   105  ALA105      0.2260
      4  O        -11.8960    8.4320   14.6360 O.2   105  ALA105     -0.2867
      5  CB       -13.7350    6.5270   16.6790 C.3   105  ALA105      0.0290
      6  N        -11.8170    8.7950   11.3250 N.3   108  ARG108     -0.1245
      7  CA       -12.2700   10.1800   11.3040 C.3   108  ARG108      0.1563
      8  C        -11.3010   11.1200   12.0010 C.2   108  ARG108      0.2260
      9  O        -11.0860   12.2460   11.5540 O.2   108  ARG108     -0.2867
     10  CB       -13.6490   10.3000   11.9370 C.3   108  ARG108      0.0307
     11  CG       -14.7430    9.5720   11.1600 C.3   108  ARG108      0.0489
     12  CD       -14.9490   10.1380    9.7570 C.3   108  ARG108      0.2205
     13  NE       -13.9400    9.6570    8.8090 N.pl3 108  ARG108     -0.0865
     14  CZ       -13.6510   10.2290    7.6440 C.cat 108  ARG108      0.5346
     15  NH1      -14.2900   11.3190    7.2420 N.pl3 108  ARG108      0.1354
     16  NH2      -12.7130    9.7090    6.8720 N.pl3 108  ARG108      0.1354
     17  N        -13.5330    9.5270   20.1250 N.3   196  ALA196     -0.1245
     18  CA       -14.7270   10.2620   19.6970 C.3   196  ALA196      0.1562
     19  C        -14.7630   11.6770   20.3040 C.2   196  ALA196      0.2260
     20  O        -15.0830   12.6420   19.6150 O.2   196  ALA196     -0.2867
     21  CB       -15.9830    9.4930   20.0660 C.3   196  ALA196      0.0290
     22  N        -12.3980   13.7860   18.4250 N.3   199  VAL199     -0.1231
     23  CA       -12.9140   14.1740   17.1200 C.3   199  VAL199      0.1692
     24  C        -13.9240   15.2970   17.2960 C.2   199  VAL199      0.2592
     25  O        -14.0430   16.1680   16.4370 O.2   199  VAL199     -0.2718
     26  CB       -13.5400   12.9860   16.3720 C.3   199  VAL199      0.0266
     27  CG1      -14.2820   13.4620   15.1400 C.3   199  VAL199      0.0020
     28  CG2      -12.4590   12.0010   15.9690 C.3   199  VAL199      0.0020
     29  N        -14.6360   15.2820   18.4200 N.am  200  TYR200     -0.1976
     30  CA       -15.5780   16.3460   18.7550 C.3   200  TYR200      0.1639
     31  C        -14.8310   17.6620   18.9230 C.2   200  TYR200      0.2290
     32  O        -15.1400   18.6510   18.2630 O.2   200  TYR200     -0.2864
     33  CB       -16.3440   16.0050   20.0360 C.3   200  TYR200      0.0560
     34  CG       -17.3680   17.0400   20.4390 C.ar  200  TYR200     -0.0198
     35  CD1      -18.6080   17.1020   19.8060 C.ar  200  TYR200     -0.0009
     36  CD2      -17.0950   17.9570   21.4570 C.ar  200  TYR200     -0.0009
     37  CE1      -19.5460   18.0500   20.1720 C.ar  200  TYR200      0.0417
     38  CE2      -18.0280   18.9070   21.8300 C.ar  200  TYR200      0.0417
     39  CZ       -19.2490   18.9490   21.1880 C.ar  200  TYR200      0.1957
     40  OH       -20.1680   19.8970   21.5710 O.3   200  TYR200     -0.2866
     41  N        -13.5800   19.0100   15.6850 N.3   203  ALA203     -0.1231
     42  CA       -14.6890   19.5400   14.9110 C.3   203  ALA203      0.1694
     43  C        -15.0880   20.9450   15.3940 C.2   203  ALA203      0.2591
     44  O        -15.4740   21.7910   14.5870 O.2   203  ALA203     -0.2718
     45  CB       -15.8710   18.5900   14.9840 C.3   203  ALA203      0.0304
     46  N        -14.9800   21.1920   16.6990 N.am  204  LYS204     -0.1980
     47  CA       -15.3160   22.5030   17.2710 C.3   204  LYS204      0.1596
     48  C        -14.2910   23.5870   16.9370 C.2   204  LYS204      0.2287
     49  O        -14.6540   24.7540   16.7800 O.2   204  LYS204     -0.2864
     50  CB       -15.5070   22.4130   18.7890 C.3   204  LYS204      0.0298
     51  CG       -16.9690   22.3070   19.1980 C.3   204  LYS204      0.0038
     52  CD       -17.1550   22.3100   20.7080 C.3   204  LYS204      0.0206
     53  CE       -16.6420   23.5910   21.3530 C.3   204  LYS204      0.1093
     54  NZ       -17.0260   23.6840   22.7890 N.3   204  LYS204     -0.1314
     55  N        -19.8980   17.8320    9.1600 N.3   215  HIS215     -0.1241
     56  CA       -20.3500   17.7670   10.5450 C.3   215  HIS215      0.1621
     57  C        -21.6020   16.9720   10.7480 C.2   215  HIS215      0.2264
     58  O        -21.7770   16.3400   11.7870 O.2   215  HIS215     -0.2867
     59  CB       -20.5300   19.1730   11.0970 C.3   215  HIS215      0.0745
     60  CG       -19.2720   19.7330   11.6790 C.ar  215  HIS215      0.0817
     61  ND1      -18.5960   20.7600   11.1400 N.ar  215  HIS215     -0.2268
     62  CD2      -18.5600   19.3320   12.7840 C.ar  215  HIS215      0.1154
     63  CE1      -17.4980   21.0020   11.8830 C.ar  215  HIS215      0.1986
     64  NE2      -17.4720   20.1160   12.8810 N.ar  215  HIS215     -0.2212
     65  N        -20.4800   13.3400   10.5710 N.3   218  LEU218     -0.1231
     66  CA       -19.7990   13.0220   11.8230 C.3   218  LEU218      0.1693
     67  C        -20.7960   12.7600   12.9420 C.2   218  LEU218      0.2591
     68  O        -20.6250   11.8270   13.7250 O.2   218  LEU218     -0.2718
     69  CB       -18.8520   14.1590   12.2490 C.3   218  LEU218      0.0284
     70  CG       -17.4580   14.2390   11.6220 C.3   218  LEU218      0.0019
     71  CD1      -16.6540   15.2640   12.4100 C.3   218  LEU218      0.0001
     72  CD2      -16.7520   12.8830   11.6070 C.3   218  LEU218      0.0001
     73  N        -21.8240   13.6010   13.0180 N.am  219  LYS219     -0.1980
     74  CA       -22.8540   13.4700   14.0300 C.3   219  LYS219      0.1596
     75  C        -23.6480   12.1800   13.8230 C.2   219  LYS219      0.2287
     76  O        -24.1140   11.5880   14.7970 O.2   219  LYS219     -0.2864
     77  CB       -23.7910   14.6830   14.0070 C.3   219  LYS219      0.0298
     78  CG       -24.6480   14.8380   15.2580 C.3   219  LYS219      0.0038
     79  CD       -25.6140   16.0090   15.1320 C.3   219  LYS219      0.0206
     80  CE       -26.7300   15.9700   16.1750 C.3   219  LYS219      0.1093
     81  NZ       -27.9920   16.5990   15.6820 N.3   219  LYS219     -0.1314
     82  N        -22.3150    9.3660   12.6390 N.3   221  LEU221     -0.1231
     83  CA       -21.4140    8.3710   13.1990 C.3   221  LEU221      0.1693
     84  C        -21.4320    8.4430   14.7260 C.2   221  LEU221      0.2592
     85  O        -21.4250    7.4080   15.4110 O.2   221  LEU221     -0.2718
     86  CB       -19.9970    8.5720   12.6650 C.3   221  LEU221      0.0284
     87  CG       -19.8320    8.2680   11.1760 C.3   221  LEU221      0.0019
     88  CD1      -18.4080    8.5070   10.7110 C.3   221  LEU221      0.0001
     89  CD2      -20.2480    6.8400   10.8820 C.3   221  LEU221      0.0001
     90  N        -21.4710    9.6640   15.2590 N.am  222  GLY222     -0.1957
     91  CA       -21.6040    9.8620   16.6920 C.3   222  GLY222      0.1869
     92  C        -22.8470    9.1630   17.2020 C.2   222  GLY222      0.2309
     93  O        -22.8260    8.5310   18.2400 O.2   222  GLY222     -0.2863
     94  N        -22.5420    5.2900   17.3470 N.3   225  MET225     -0.1245
     95  CA       -21.6690    4.9670   18.4770 C.3   225  MET225      0.1570
     96  C        -22.3820    5.0740   19.8180 C.2   225  MET225      0.2261
     97  O        -22.2610    4.1820   20.6620 O.2   225  MET225     -0.2867
     98  CB       -20.4510    5.8930   18.4850 C.3   225  MET225      0.0387
     99  CG       -19.5250    5.6570   17.3080 C.3   225  MET225      0.0595
    100  SD       -18.0670    6.7050   17.3350 S.3   225  MET225     -0.1393
    101  CE       -17.3380    6.1980   15.7780 C.3   225  MET225      0.0692
@<TRIPOS>BOND
     1    16    14    1
     2    15    14    1
     3    14    13    2
     4    13    12    1
     5    55    56    1
     6    12    11    1
     7    56    57    1
     8    56    59    1
     9    65    66    1
    10    88    87    1
    11    57    58    2
    12    89    87    1
    13    59    60    1
    14    61    60   ar
    15    61    63   ar
    16    11    10    1
    17    87    86    1
    18     7     6    1
    19     7    10    1
    20     7     8    1
    21     9     8    2
    22    72    70    1
    23    70    69    1
    24    70    71    1
    25    60    62   ar
    26    66    69    1
    27    66    67    1
    28    63    64   ar
    29    82    83    1
    30    86    83    1
    31    62    64   ar
    32    67    73   am
    33    67    68    2
    34    73    74    1
    35    83    84    1
    36    75    74    1
    37    75    76    2
    38    77    74    1
    39    77    78    1
    40     1     2    1
    41    44    43    2
    42     4     3    2
    43    84    90   am
    44    84    85    2
    45     3     2    1
    46    42    45    1
    47    42    43    1
    48    42    41    1
    49    79    78    1
    50    79    80    1
    51    27    26    1
    52     2     5    1
    53    90    91    1
    54    43    46   am
    55    81    80    1
    56   101   100    1
    57    28    26    1
    58    26    23    1
    59    25    24    2
    60    91    92    1
    61    46    47    1
    62    49    48    2
    63    48    47    1
    64    23    24    1
    65    23    22    1
    66    92    93    2
    67    47    50    1
    68    24    29   am
    69    99   100    1
    70    99    98    1
    71    94    95    1
    72    32    31    2
    73    29    30    1
    74    95    98    1
    75    95    96    1
    76    30    31    1
    77    30    33    1
    78    50    51    1
    79    51    52    1
    80    20    19    2
    81    18    21    1
    82    18    17    1
    83    18    19    1
    84    35    37   ar
    85    35    34   ar
    86    96    97    2
    87    33    34    1
    88    37    39   ar
    89    34    36   ar
    90    52    53    1
    91    39    40    1
    92    39    38   ar
    93    53    54    1
    94    36    38   ar
