@<TRIPOS>MOLECULE
tmp/3zpqB00.pdb
 146 140 0 0 0
SMALL
GASTEIGER

@<TRIPOS>ATOM
      1  N          9.4770  -18.3670   18.3380 N.3    87  THR87      -0.1218
      2  CA         8.8960  -17.0230   18.2410 C.3    87  THR87       0.1862
      3  C          7.6770  -16.9060   19.1280 C.2    87  THR87       0.2287
      4  O          7.5260  -15.9310   19.8420 O.2    87  THR87      -0.2866
      5  CB         8.4550  -16.6620   16.8140 C.3    87  THR87       0.1770
      6  OG1        9.5910  -16.6920   15.9330 O.3    87  THR87      -0.2211
      7  CG2        7.8450  -15.2680   16.7920 C.3    87  THR87       0.0375
      8  N          8.5230  -16.5390   22.6370 N.3    90  ASP90      -0.1225
      9  CA         9.0620  -15.2050   22.8110 C.3    90  ASP90       0.1805
     10  C          7.9290  -14.1990   23.0310 C.2    90  ASP90       0.2597
     11  O          7.9190  -13.4480   24.0050 O.2    90  ASP90      -0.2718
     12  CB         9.8720  -14.8400   21.5720 C.3    90  ASP90       0.1424
     13  CG        10.7980  -13.6810   21.8010 C.2    90  ASP90       0.3668
     14  OD1       10.6110  -12.9420   22.7850 O.co2  90  ASP90      -0.2456
     15  OD2       11.7160  -13.5000   20.9830 O.co2  90  ASP90      -0.2456
     16  N          6.9650  -14.1930   22.1240 N.am   91  VAL91      -0.1980
     17  CA         5.8180  -13.3210   22.2700 C.3    91  VAL91       0.1595
     18  C          5.0420  -13.6470   23.5530 C.2    91  VAL91       0.2287
     19  O          4.6310  -12.7300   24.2640 O.2    91  VAL91      -0.2864
     20  CB         4.8980  -13.3680   21.0310 C.3    91  VAL91       0.0276
     21  CG1        3.5530  -12.6960   21.3190 C.3    91  VAL91       0.0022
     22  CG2        5.6110  -12.7130   19.8460 C.3    91  VAL91       0.0022
     23  N          6.8060  -12.0690   26.8330 N.3    94  VAL94      -0.1245
     24  CA         6.6900  -10.6240   26.9900 C.3    94  VAL94       0.1561
     25  C          5.2550  -10.2870   27.3670 C.2    94  VAL94       0.2260
     26  O          5.0150   -9.4910   28.2620 O.2    94  VAL94      -0.2867
     27  CB         7.0760   -9.8530   25.7090 C.3    94  VAL94       0.0252
     28  CG1        7.1500   -8.3610   25.9870 C.3    94  VAL94       0.0019
     29  CG2        8.4030  -10.3460   25.1760 C.3    94  VAL94       0.0019
     30  N         11.7770  -12.8450   12.3600 N.3   170  PHE170     -0.1241
     31  CA        10.3650  -12.5870   12.5620 C.3   170  PHE170      0.1605
     32  C         10.0530  -11.3400   11.7530 C.2   170  PHE170      0.2264
     33  O         10.0130  -10.2270   12.2860 O.2   170  PHE170     -0.2867
     34  CB        10.0570  -12.4310   14.0560 C.3   170  PHE170      0.0534
     35  CG         8.5910  -12.4980   14.4010 C.ar  170  PHE170     -0.0203
     36  CD1        7.7110  -13.3260   13.6990 C.ar  170  PHE170     -0.0042
     37  CD2        8.0970  -11.7630   15.4640 C.ar  170  PHE170     -0.0042
     38  CE1        6.3760  -13.3950   14.0380 C.ar  170  PHE170     -0.0003
     39  CE2        6.7580  -11.8300   15.8040 C.ar  170  PHE170     -0.0003
     40  CZ         5.8980  -12.6500   15.0870 C.ar  170  PHE170     -0.0000
     41  N          7.3390   -9.5440    9.7100 N.3   172  THR172     -0.1218
     42  CA         5.8950   -9.6120    9.7590 C.3   172  THR172      0.1862
     43  C          5.2950   -8.5430    8.8700 C.2   172  THR172      0.2287
     44  O          5.9350   -7.5640    8.5590 O.2   172  THR172     -0.2866
     45  CB         5.3840   -9.4380   11.2080 C.3   172  THR172      0.1770
     46  OG1        5.4240   -8.0490   11.5710 O.3   172  THR172     -0.2211
     47  CG2        6.2380  -10.2630   12.2040 C.3   172  THR172      0.0375
     48  N         -0.0240   -6.9440   11.5740 N.3   176  TYR176     -0.1227
     49  CA         0.3200   -7.7780   12.7000 C.3   176  TYR176      0.1736
     50  C          1.2760   -7.0270   13.5890 C.2   176  TYR176      0.2595
     51  O          1.1780   -7.1030   14.7930 O.2   176  TYR176     -0.2718
     52  CB         0.9340   -9.1050   12.2320 C.3   176  TYR176      0.0548
     53  CG         1.4030   -9.9410   13.3850 C.ar  176  TYR176     -0.0200
     54  CD1        2.6660   -9.7700   13.8990 C.ar  176  TYR176     -0.0009
     55  CD2        0.5620  -10.8520   14.0030 C.ar  176  TYR176     -0.0009
     56  CE1        3.1010  -10.4990   14.9930 C.ar  176  TYR176      0.0417
     57  CE2        0.9920  -11.6070   15.0960 C.ar  176  TYR176      0.0417
     58  CZ         2.2660  -11.4190   15.5870 C.ar  176  TYR176      0.1957
     59  OH         2.7250  -12.1210   16.6590 O.3   176  TYR176     -0.2866
     60  N          2.2130   -6.3100   12.9930 N.am  177  ALA177     -0.1980
     61  CA         3.1760   -5.5190   13.7600 C.3   177  ALA177      0.1597
     62  C          2.4460   -4.5670   14.7090 C.2   177  ALA177      0.2287
     63  O          2.7280   -4.5440   15.9230 O.2   177  ALA177     -0.2864
     64  CB         4.0800   -4.7270   12.8300 C.3   177  ALA177      0.0319
     65  N         -0.3890   -6.7200   17.1470 N.3   180  SER180     -0.1202
     66  CA         0.2620   -7.5130   18.1700 C.3   180  SER180      0.2020
     67  C          0.9930   -6.6510   19.1780 C.2   180  SER180      0.2619
     68  O          1.0740   -7.0100   20.3470 O.2   180  SER180     -0.2717
     69  CB         1.2710   -8.4890   17.5540 C.3   180  SER180      0.2103
     70  OG         2.5440   -7.8790   17.4360 O.3   180  SER180     -0.2182
     71  N          1.5630   -5.5420   18.7230 N.am  181  SER181     -0.1951
     72  CA         2.2570   -4.6280   19.6340 C.3   181  SER181      0.1924
     73  C          1.2570   -3.9560   20.5840 C.2   181  SER181      0.2314
     74  O          1.4820   -3.8850   21.8070 O.2   181  SER181     -0.2863
     75  CB         3.0200   -3.5460   18.8630 C.3   181  SER181      0.2116
     76  OG         4.2090   -4.0710   18.3210 O.3   181  SER181     -0.2180
     77  N         -0.3040   -6.9920   22.7930 N.3   184  SER184     -0.1217
     78  CA         0.6290   -7.6480   23.7040 C.3   184  SER184      0.1889
     79  C          1.3300   -6.6890   24.6250 C.2   184  SER184      0.2288
     80  O          1.6710   -7.0590   25.7430 O.2   184  SER184     -0.2866
     81  CB         1.6850   -8.4470   22.9450 C.3   184  SER184      0.2089
     82  OG         1.1150   -9.6390   22.4480 O.3   184  SER184     -0.2183
     83  N         12.0320   -2.9030   27.3190 N.3   244  TRP244     -0.1241
     84  CA        11.1930   -3.2550   26.1600 C.3   244  TRP244      0.1605
     85  C         10.6720   -2.1240   25.3190 C.2   244  TRP244      0.2264
     86  O         10.4850   -2.3070   24.1320 O.2   244  TRP244     -0.2867
     87  CB        10.0280   -4.0980   26.6060 C.3   244  TRP244      0.0550
     88  CG        10.4350   -5.5020   26.8450 C.ar  244  TRP244      0.0003
     89  CD1       10.5140   -6.1520   28.0490 C.ar  244  TRP244      0.0946
     90  CD2       10.8620   -6.4800   25.8470 C.ar  244  TRP244      0.0152
     91  NE1       10.9540   -7.4280   27.8780 N.ar  244  TRP244     -0.2442
     92  CE2       11.1760   -7.6940   26.5820 C.ar  244  TRP244      0.0810
     93  CE3       11.0430   -6.4610   24.4680 C.ar  244  TRP244      0.0012
     94  CZ2       11.6430   -8.8480   25.9510 C.ar  244  TRP244      0.0191
     95  CZ3       11.5180   -7.6300   23.8420 C.ar  244  TRP244      0.0001
     96  CH2       11.8040   -8.7980   24.5750 C.ar  244  TRP244      0.0015
     97  N         12.5150   -1.4840   21.8800 N.3   247  PHE247     -0.1227
     98  CA        12.1700   -2.4790   20.8930 C.3   247  PHE247      0.1736
     99  C         10.8170   -2.2230   20.2450 C.2   247  PHE247      0.2595
    100  O         10.7050   -2.2010   19.0150 O.2   247  PHE247     -0.2718
    101  CB        12.1230   -3.8650   21.4980 C.3   247  PHE247      0.0547
    102  CG        11.6540   -4.8870   20.5250 C.ar  247  PHE247     -0.0202
    103  CD1       12.5170   -5.3690   19.5660 C.ar  247  PHE247     -0.0042
    104  CD2       10.3280   -5.2910   20.5000 C.ar  247  PHE247     -0.0042
    105  CE1       12.0860   -6.2850   18.6310 C.ar  247  PHE247     -0.0003
    106  CE2        9.8850   -6.2020   19.5590 C.ar  247  PHE247     -0.0003
    107  CZ        10.7670   -6.7070   18.6250 C.ar  247  PHE247     -0.0000
    108  N          9.7870   -2.0480   21.0720 N.am  248  PHE248     -0.1976
    109  CA         8.4460   -1.8540   20.5550 C.3   248  PHE248      0.1639
    110  C          8.2470   -0.5100   19.8450 C.2   248  PHE248      0.2290
    111  O          7.3790   -0.4060   18.9830 O.2   248  PHE248     -0.2864
    112  CB         7.4140   -2.0650   21.6630 C.3   248  PHE248      0.0560
    113  CG         7.1570   -3.5040   21.9540 C.ar  248  PHE248     -0.0200
    114  CD1        6.4850   -4.2980   21.0320 C.ar  248  PHE248     -0.0042
    115  CD2        7.6300   -4.0940   23.1220 C.ar  248  PHE248     -0.0042
    116  CE1        6.2680   -5.6460   21.2870 C.ar  248  PHE248     -0.0003
    117  CE2        7.4240   -5.4430   23.3760 C.ar  248  PHE248     -0.0003
    118  CZ         6.7410   -6.2170   22.4600 C.ar  248  PHE248     -0.0000
    119  N          9.7150   -1.1210   16.4950 N.3   251  ASN251     -0.1240
    120  CA         8.7760   -1.9870   15.7910 C.3   251  ASN251      0.1653
    121  C          7.7020   -1.1960   15.0250 C.2   251  ASN251      0.2266
    122  O          7.3580   -1.5250   13.8880 O.2   251  ASN251     -0.2867
    123  CB         8.1140   -2.9190   16.8090 C.3   251  ASN251      0.1155
    124  CG         7.7090   -4.2430   16.2140 C.2   251  ASN251      0.2627
    125  OD1        8.3730   -4.7560   15.3120 O.2   251  ASN251     -0.2716
    126  ND2        6.6290   -4.8270   16.7370 N.am  251  ASN251     -0.0877
    127  N         16.3420   -5.8820   20.9570 N.3   270  ASN270     -0.1240
    128  CA        15.7410   -7.1620   21.2060 C.3   270  ASN270      0.1653
    129  C         16.4260   -7.8640   22.3690 C.2   270  ASN270      0.2266
    130  O         15.7760   -8.4560   23.2370 O.2   270  ASN270     -0.2867
    131  CB        15.8360   -7.9880   19.9300 C.3   270  ASN270      0.1155
    132  CG        14.8870   -9.1540   19.9210 C.2   270  ASN270      0.2627
    133  OD1       14.1300   -9.3300   18.9770 O.2   270  ASN270     -0.2716
    134  ND2       14.9090   -9.9530   20.9810 N.am  270  ASN270     -0.0877
    135  N         15.5640   -9.1670   26.2450 N.3   274  TYR274     -0.1241
    136  CA        15.8550  -10.4550   26.8750 C.3   274  TYR274      0.1605
    137  C         16.6360  -10.2450   28.1840 C.2   274  TYR274      0.2264
    138  O         16.4530  -10.9710   29.1710 O.2   274  TYR274     -0.2867
    139  CB        16.6570  -11.3710   25.9400 C.3   274  TYR274      0.0534
    140  CG        15.9870  -11.8250   24.6560 C.ar  274  TYR274     -0.0201
    141  CD1       14.6020  -11.8300   24.4950 C.ar  274  TYR274     -0.0009
    142  CD2       16.7610  -12.2610   23.5920 C.ar  274  TYR274     -0.0009
    143  CE1       14.0150  -12.2680   23.3100 C.ar  274  TYR274      0.0417
    144  CE2       16.1880  -12.6990   22.4120 C.ar  274  TYR274      0.0417
    145  CZ        14.8210  -12.6990   22.2720 C.ar  274  TYR274      0.1957
    146  OH        14.2950  -13.1350   21.0830 O.3   274  TYR274     -0.2866
@<TRIPOS>BOND
     1    44    43    2
     2    43    42    1
     3    41    42    1
     4    42    45    1
     5    45    46    1
     6    45    47    1
     7    48    49    1
     8    32    33    2
     9    32    31    1
    10    52    49    1
    11    52    53    1
    12    30    31    1
    13    31    34    1
    14    49    50    1
    15    64    61    1
    16    60    50   am
    17    60    61    1
    18    53    54   ar
    19    53    55   ar
    20    50    51    2
    21    36    38   ar
    22    36    35   ar
    23    61    62    1
    24   122   121    2
    25    54    56   ar
    26    55    57   ar
    27    38    40   ar
    28    34    35    1
    29    35    37   ar
    30    62    63    2
    31    56    58   ar
    32   121   120    1
    33    40    39   ar
    34    57    58   ar
    35   125   124    2
    36    37    39   ar
    37    58    59    1
    38   120   119    1
    39   120   123    1
    40     6     5    1
    41   124   126   am
    42   124   123    1
    43     7     5    1
    44     5     2    1
    45    65    66    1
    46    70    69    1
    47    69    66    1
    48    66    67    1
    49     2     1    1
    50     2     3    1
    51    76    75    1
    52   107   105   ar
    53   107   106   ar
    54   105   103   ar
    55    71    67   am
    56    71    72    1
    57    75    72    1
    58   133   132    2
    59   111   110    2
    60   100    99    2
    61     3     4    2
    62    67    68    2
    63   106   104   ar
    64   103   102   ar
    65    72    73    1
    66   110   109    1
    67    22    20    1
    68   132   131    1
    69   132   134   am
    70   131   128    1
    71    99    98    1
    72    99   108   am
    73   104   102   ar
    74   102   101    1
    75   109   108    1
    76   109   112    1
    77    73    74    2
    78    98   101    1
    79    98    97    1
    80   127   128    1
    81    15    13   ar
    82    20    21    1
    83    20    17    1
    84   114   116   ar
    85   114   113   ar
    86   146   145    1
    87   128   129    1
    88   116   118   ar
    89    12    13    1
    90    12     9    1
    91   112   113    1
    92    13    14   ar
    93   113   115   ar
    94    16    17    1
    95    16    10   am
    96    17    18    1
    97   145   144   ar
    98   145   143   ar
    99   129   130    2
   100   144   142   ar
   101    82    81    1
   102   118   117   ar
   103     8     9    1
   104    77    78    1
   105     9    10    1
   106    81    78    1
   107    10    11    2
   108   115   117   ar
   109   143   141   ar
   110    18    19    2
   111   142   140   ar
   112    78    79    1
   113    95    93   ar
   114    95    96   ar
   115    86    85    2
   116    93    90   ar
   117   141   140   ar
   118    96    94   ar
   119    79    80    2
   120   140   139    1
   121    29    27    1
   122    85    84    1
   123    27    28    1
   124    27    24    1
   125    90    92   ar
   126    90    88   ar
   127   139   136    1
   128    94    92   ar
   129    84    87    1
   130    84    83    1
   131   135   136    1
   132    92    91   ar
   133    87    88    1
   134    23    24    1
   135    88    89   ar
   136   136   137    1
   137    24    25    1
   138    25    26    2
   139    91    89   ar
   140   137   138    2
