@<TRIPOS>MOLECULE
tmp/3zprA04.pdb
 92 85 0 0 0
SMALL
GASTEIGER

@<TRIPOS>ATOM
      1  N        -13.9440    5.4010   14.3890 N.3   105  ALA105     -0.1245
      2  CA       -13.6280    6.5790   15.1610 C.3   105  ALA105      0.1562
      3  C        -12.1970    7.0000   14.8840 C.2   105  ALA105      0.2260
      4  O        -11.9390    8.1830   14.7370 O.2   105  ALA105     -0.2867
      5  CB       -13.8310    6.3290   16.6540 C.3   105  ALA105      0.0290
      6  N        -11.8300    8.5280   11.2870 N.3   108  ARG108     -0.1245
      7  CA       -12.2830    9.9060   11.2800 C.3   108  ARG108      0.1563
      8  C        -11.3040   10.8350   11.9800 C.2   108  ARG108      0.2260
      9  O        -11.0780   11.9460   11.5260 O.2   108  ARG108     -0.2867
     10  CB       -13.6630   10.0300   11.9260 C.3   108  ARG108      0.0307
     11  CG       -14.7770    9.3180   11.1710 C.3   108  ARG108      0.0489
     12  CD       -14.9950    9.8800    9.7670 C.3   108  ARG108      0.2205
     13  NE       -13.9990    9.3830    8.8210 N.pl3 108  ARG108     -0.0865
     14  CZ       -13.6750    9.9610    7.6660 C.cat 108  ARG108      0.5346
     15  NH1      -14.2750   11.0780    7.2690 N.pl3 108  ARG108      0.1354
     16  NH2      -12.7280    9.4200    6.8990 N.pl3 108  ARG108      0.1354
     17  N        -13.5800    9.2190   20.1710 N.3   196  ALA196     -0.1245
     18  CA       -14.7830    9.9320   19.7430 C.3   196  ALA196      0.1562
     19  C        -14.8290   11.3390   20.3510 C.2   196  ALA196      0.2260
     20  O        -15.2120   12.2930   19.6730 O.2   196  ALA196     -0.2867
     21  CB       -16.0310    9.1480   20.1140 C.3   196  ALA196      0.0290
     22  N        -12.3630   13.5520   18.4690 N.3   199  VAL199     -0.1231
     23  CA       -12.8750   13.9310   17.1550 C.3   199  VAL199      0.1692
     24  C        -13.8530   15.0800   17.3460 C.2   199  VAL199      0.2592
     25  O        -13.8920   15.9990   16.5400 O.2   199  VAL199     -0.2718
     26  CB       -13.5490   12.7360   16.4260 C.3   199  VAL199      0.0266
     27  CG1      -14.3590   13.2010   15.2330 C.3   199  VAL199      0.0020
     28  CG2      -12.5120   11.7150   15.9790 C.3   199  VAL199      0.0020
     29  N        -14.6220   15.0320   18.4280 N.am  200  TYR200     -0.1976
     30  CA       -15.5480   16.1140   18.7610 C.3   200  TYR200      0.1639
     31  C        -14.7790   17.4190   18.9280 C.2   200  TYR200      0.2290
     32  O        -15.0670   18.4000   18.2520 O.2   200  TYR200     -0.2864
     33  CB       -16.3230   15.7730   20.0380 C.3   200  TYR200      0.0560
     34  CG       -17.3750   16.7740   20.4420 C.ar  200  TYR200     -0.0198
     35  CD1      -18.6250   16.8010   19.8110 C.ar  200  TYR200     -0.0009
     36  CD2      -17.1340   17.6830   21.4750 C.ar  200  TYR200     -0.0009
     37  CE1      -19.5980   17.7110   20.1950 C.ar  200  TYR200      0.0417
     38  CE2      -18.1010   18.5970   21.8670 C.ar  200  TYR200      0.0417
     39  CZ       -19.3280   18.6040   21.2260 C.ar  200  TYR200      0.1957
     40  OH       -20.2810   19.5040   21.6150 O.3   200  TYR200     -0.2866
     41  N        -13.4410   18.7990   15.7320 N.3   203  ALA203     -0.1245
     42  CA       -14.5320   19.3040   14.9120 C.3   203  ALA203      0.1562
     43  C        -14.9750   20.7020   15.3700 C.2   203  ALA203      0.2260
     44  O        -15.3220   21.5460   14.5420 O.2   203  ALA203     -0.2867
     45  CB       -15.7020   18.3330   14.9410 C.3   203  ALA203      0.0290
     46  N        -19.7930   17.5800    9.1870 N.3   212  HIS212     -0.1241
     47  CA       -20.2000   17.4330   10.5830 C.3   212  HIS212      0.1621
     48  C        -21.4730   16.6720   10.7150 C.2   212  HIS212      0.2264
     49  O        -21.6270   15.9130   11.6550 O.2   212  HIS212     -0.2867
     50  CB       -20.3600   18.7780   11.2810 C.3   212  HIS212      0.0745
     51  CG       -19.0570   19.4800   11.5550 C.ar  212  HIS212      0.0817
     52  ND1      -18.0990   18.9670   12.3480 N.ar  212  HIS212     -0.2268
     53  CD2      -18.5840   20.7000   11.1130 C.ar  212  HIS212      0.1154
     54  CE1      -17.0610   19.8220   12.3980 C.ar  212  HIS212      0.1986
     55  NE2      -17.3590   20.8780   11.6410 N.ar  212  HIS212     -0.2212
     56  N        -20.4640   13.1360   10.5570 N.3   215  LEU215     -0.1231
     57  CA       -19.8080   12.7850   11.8200 C.3   215  LEU215      0.1693
     58  C        -20.8350   12.5340   12.9150 C.2   215  LEU215      0.2591
     59  O        -20.7320   11.5700   13.6610 O.2   215  LEU215     -0.2718
     60  CB       -18.8380   13.8910   12.2840 C.3   215  LEU215      0.0284
     61  CG       -17.4410   13.9480   11.6640 C.3   215  LEU215      0.0019
     62  CD1      -16.6110   14.9250   12.4770 C.3   215  LEU215      0.0001
     63  CD2      -16.7740   12.5710   11.6210 C.3   215  LEU215      0.0001
     64  N        -21.8210   13.4220   13.0040 N.am  216  LYS216     -0.1980
     65  CA       -22.8920   13.3040   13.9790 C.3   216  LYS216      0.1596
     66  C        -23.6600   11.9940   13.7670 C.2   216  LYS216      0.2287
     67  O        -24.0910   11.3770   14.7340 O.2   216  LYS216     -0.2864
     68  CB       -23.8470   14.5140   13.8980 C.3   216  LYS216      0.0298
     69  CG       -24.7140   14.6950   15.1370 C.3   216  LYS216      0.0038
     70  CD       -25.6490   15.8950   15.0470 C.3   216  LYS216      0.0206
     71  CE       -26.6880   15.8900   16.1720 C.3   216  LYS216      0.1093
     72  NZ       -27.9590   16.5830   15.7900 N.3   216  LYS216     -0.1314
     73  N        -22.3030    9.1780   12.6040 N.3   218  LEU218     -0.1231
     74  CA       -21.4000    8.1930   13.2020 C.3   218  LEU218      0.1693
     75  C        -21.4620    8.2540   14.7270 C.2   218  LEU218      0.2592
     76  O        -21.5300    7.2270   15.3990 O.2   218  LEU218     -0.2718
     77  CB       -19.9630    8.3920   12.7040 C.3   218  LEU218      0.0284
     78  CG       -19.7620    8.1030   11.2100 C.3   218  LEU218      0.0019
     79  CD1      -18.3600    8.4820   10.7720 C.3   218  LEU218      0.0001
     80  CD2      -20.0440    6.6440   10.8950 C.3   218  LEU218      0.0001
     81  N        -21.4740    9.4600   15.2720 N.am  219  GLY219     -0.1957
     82  CA       -21.6180    9.6350   16.7010 C.3   219  GLY219      0.1869
     83  C        -22.8870    8.9750   17.1960 C.2   219  GLY219      0.2309
     84  O        -22.8830    8.3840   18.2580 O.2   219  GLY219     -0.2863
     85  N        -22.5740    5.1370   17.3060 N.3   222  MET222     -0.1245
     86  CA       -21.7160    4.8070   18.4530 C.3   222  MET222      0.1570
     87  C        -22.4400    4.9200   19.8080 C.2   222  MET222      0.2261
     88  O        -22.2980    4.0540   20.6650 O.2   222  MET222     -0.2867
     89  CB       -20.4610    5.6860   18.4620 C.3   222  MET222      0.0387
     90  CG       -19.5230    5.4250   17.2930 C.3   222  MET222      0.0595
     91  SD       -18.0630    6.5070   17.2680 S.3   222  MET222     -0.1393
     92  CE       -17.3100    6.0260   15.7210 C.3   222  MET222      0.0692
@<TRIPOS>BOND
     1    16    14    1
     2    15    14    1
     3    14    13    2
     4    13    12    1
     5    46    47    1
     6    12    11    1
     7    56    57    1
     8    47    48    1
     9    47    50    1
    10    48    49    2
    11    79    78    1
    12    80    78    1
    13    53    51   ar
    14    53    55   ar
    15    11    10    1
    16    78    77    1
    17     7     6    1
    18     7    10    1
    19     7     8    1
    20    50    51    1
    21     9     8    2
    22    51    52   ar
    23    63    61    1
    24    55    54   ar
    25    61    60    1
    26    61    62    1
    27    57    60    1
    28    57    58    1
    29    52    54   ar
    30    73    74    1
    31    77    74    1
    32    58    64   am
    33    58    59    2
    34    64    65    1
    35    74    75    1
    36    66    65    1
    37    66    67    2
    38    68    65    1
    39    68    69    1
    40     1     2    1
    41    44    43    2
    42    75    81   am
    43    75    76    2
    44     4     3    2
    45     3     2    1
    46    42    45    1
    47    42    43    1
    48    42    41    1
    49    70    69    1
    50    70    71    1
    51     2     5    1
    52    27    26    1
    53    81    82    1
    54    92    91    1
    55    72    71    1
    56    28    26    1
    57    26    23    1
    58    25    24    2
    59    82    83    1
    60    23    24    1
    61    23    22    1
    62    83    84    2
    63    91    90    1
    64    90    89    1
    65    85    86    1
    66    24    29   am
    67    32    31    2
    68    29    30    1
    69    86    89    1
    70    86    87    1
    71    30    31    1
    72    30    33    1
    73    20    19    2
    74    18    21    1
    75    18    17    1
    76    18    19    1
    77    87    88    2
    78    35    37   ar
    79    35    34   ar
    80    33    34    1
    81    37    39   ar
    82    34    36   ar
    83    39    40    1
    84    39    38   ar
    85    36    38   ar
