@<TRIPOS>MOLECULE
tmp/3zprB04.pdb
 164 158 0 0 0
SMALL
GASTEIGER

@<TRIPOS>ATOM
      1  N          9.5630  -18.7100   18.3260 N.3    87  THR87      -0.1218
      2  CA         8.9390  -17.3650   18.2440 C.3    87  THR87       0.1862
      3  C          7.6650  -17.2080   19.0940 C.2    87  THR87       0.2287
      4  O          7.5060  -16.1820   19.7390 O.2    87  THR87      -0.2866
      5  CB         8.5810  -16.9930   16.8060 C.3    87  THR87       0.1770
      6  OG1        9.7680  -17.0760   15.9960 O.3    87  THR87      -0.2211
      7  CG2        7.9920  -15.5750   16.7390 C.3    87  THR87       0.0375
      8  N          8.5680  -16.9220   22.7340 N.3    90  ASP90      -0.1225
      9  CA         9.1280  -15.6110   22.9070 C.3    90  ASP90       0.1805
     10  C          7.9850  -14.6070   23.0840 C.2    90  ASP90       0.2597
     11  O          7.8890  -13.9550   24.1150 O.2    90  ASP90      -0.2718
     12  CB         9.9820  -15.2970   21.6860 C.3    90  ASP90       0.1424
     13  CG        10.8950  -14.1340   21.8850 C.2    90  ASP90       0.3668
     14  OD1       10.7250  -13.3780   22.8630 O.co2  90  ASP90      -0.2456
     15  OD2       11.7800  -13.9500   21.0230 O.co2  90  ASP90      -0.2456
     16  N          7.0830  -14.5190   22.1120 N.am   91  VAL91      -0.1980
     17  CA         5.9040  -13.6450   22.2670 C.3    91  VAL91       0.1595
     18  C          5.1120  -13.9430   23.5500 C.2    91  VAL91       0.2287
     19  O          4.6930  -13.0120   24.2330 O.2    91  VAL91      -0.2864
     20  CB         4.9810  -13.6820   21.0340 C.3    91  VAL91       0.0276
     21  CG1        3.7130  -12.8370   21.2580 C.3    91  VAL91       0.0022
     22  CG2        5.7550  -13.2140   19.7910 C.3    91  VAL91       0.0022
     23  N          6.8460  -12.3970   26.9360 N.3    94  VAL94      -0.1231
     24  CA         6.7190  -10.9470   27.0610 C.3    94  VAL94       0.1692
     25  C          5.2830  -10.5710   27.4270 C.2    94  VAL94       0.2592
     26  O          5.0530   -9.7510   28.2980 O.2    94  VAL94      -0.2718
     27  CB         7.0640  -10.2240   25.7490 C.3    94  VAL94       0.0266
     28  CG1        7.2550   -8.7330   25.9950 C.3    94  VAL94       0.0020
     29  CG2        8.3110  -10.8170   25.1520 C.3    94  VAL94       0.0020
     30  N          4.3240  -11.1780   26.7460 N.am   95  THR95      -0.1953
     31  CA         2.9080  -10.9140   27.0070 C.3    95  THR95       0.1897
     32  C          2.5090  -11.3130   28.4040 C.2    95  THR95       0.2313
     33  O          1.8050  -10.5570   29.0730 O.2    95  THR95      -0.2863
     34  CB         2.0020  -11.6410   26.0070 C.3    95  THR95       0.1794
     35  OG1        2.3150  -11.1980   24.6760 O.3    95  THR95      -0.2208
     36  CG2        0.5920  -11.3480   26.2780 C.3    95  THR95       0.0378
     37  N         11.7160  -12.9560   12.4250 N.3   170  PHE170     -0.1241
     38  CA        10.2870  -12.7710   12.6290 C.3   170  PHE170      0.1605
     39  C          9.9010  -11.5510   11.8040 C.2   170  PHE170      0.2264
     40  O          9.7300  -10.4530   12.3220 O.2   170  PHE170     -0.2867
     41  CB         9.9510  -12.6440   14.1140 C.3   170  PHE170      0.0534
     42  CG         8.4870  -12.7430   14.4280 C.ar  170  PHE170     -0.0203
     43  CD1        7.6260  -13.5560   13.6830 C.ar  170  PHE170     -0.0042
     44  CD2        7.9650  -12.0450   15.5130 C.ar  170  PHE170     -0.0042
     45  CE1        6.2740  -13.6430   13.9980 C.ar  170  PHE170     -0.0003
     46  CE2        6.6130  -12.1220   15.8260 C.ar  170  PHE170     -0.0003
     47  CZ         5.7670  -12.9280   15.0690 C.ar  170  PHE170     -0.0000
     48  N          7.2920   -9.7540    9.7340 N.3   172  THR172     -0.1218
     49  CA         5.8460   -9.8250    9.7470 C.3   172  THR172      0.1862
     50  C          5.2400   -8.7830    8.8530 C.2   172  THR172      0.2287
     51  O          5.8630   -7.7990    8.5160 O.2   172  THR172     -0.2866
     52  CB         5.2990   -9.6310   11.1790 C.3   172  THR172      0.1770
     53  OG1        5.3500   -8.2460   11.5380 O.3   172  THR172     -0.2211
     54  CG2        6.1150  -10.4550   12.2080 C.3   172  THR172      0.0375
     55  N         -0.1370   -7.1160   11.5820 N.3   176  TYR176     -0.1227
     56  CA         0.2220   -7.9320   12.7210 C.3   176  TYR176      0.1736
     57  C          1.1780   -7.1540   13.5890 C.2   176  TYR176      0.2595
     58  O          1.0570   -7.1660   14.7820 O.2   176  TYR176     -0.2718
     59  CB         0.8190   -9.2640   12.2890 C.3   176  TYR176      0.0548
     60  CG         1.2890  -10.1090   13.4390 C.ar  176  TYR176     -0.0200
     61  CD1        2.5570   -9.9620   13.9430 C.ar  176  TYR176     -0.0009
     62  CD2        0.4620  -11.0450   14.0290 C.ar  176  TYR176     -0.0009
     63  CE1        2.9830  -10.7090   15.0130 C.ar  176  TYR176      0.0417
     64  CE2        0.8900  -11.8080   15.1050 C.ar  176  TYR176      0.0417
     65  CZ         2.1520  -11.6400   15.5800 C.ar  176  TYR176      0.1957
     66  OH         2.6130  -12.3780   16.6370 O.3   176  TYR176     -0.2866
     67  N          2.1250   -6.4640   12.9850 N.am  177  ALA177     -0.1980
     68  CA         3.1240   -5.7190   13.7370 C.3   177  ALA177      0.1597
     69  C          2.4370   -4.7270   14.6700 C.2   177  ALA177      0.2287
     70  O          2.7230   -4.6830   15.8730 O.2   177  ALA177     -0.2864
     71  CB         4.0920   -5.0090   12.7870 C.3   177  ALA177      0.0319
     72  N         -0.4800   -6.8570   17.0880 N.3   180  SER180     -0.1202
     73  CA         0.1480   -7.6720   18.0780 C.3   180  SER180      0.2020
     74  C          0.9060   -6.8160   19.0760 C.2   180  SER180      0.2619
     75  O          0.8590   -7.0920   20.2600 O.2   180  SER180     -0.2717
     76  CB         1.0590   -8.6930   17.4270 C.3   180  SER180      0.2103
     77  OG         1.6360   -9.5000   18.4220 O.3   180  SER180     -0.2182
     78  N          1.5710   -5.7610   18.6330 N.am  181  SER181     -0.1951
     79  CA         2.2200   -4.8380   19.6080 C.3   181  SER181      0.1924
     80  C          1.2100   -4.2500   20.5860 C.2   181  SER181      0.2314
     81  O          1.4000   -4.3440   21.7870 O.2   181  SER181     -0.2863
     82  CB         2.9360   -3.6770   18.9160 C.3   181  SER181      0.2116
     83  OG         4.1180   -4.1340   18.3170 O.3   181  SER181     -0.2180
     84  N         -0.4330   -7.3560   22.8090 N.3   184  SER184     -0.1217
     85  CA         0.5230   -7.9570   23.7220 C.3   184  SER184      0.1889
     86  C          1.2540   -6.9890   24.6090 C.2   184  SER184      0.2288
     87  O          1.6720   -7.3990   25.6910 O.2   184  SER184     -0.2866
     88  CB         1.5780   -8.7490   22.9690 C.3   184  SER184      0.2089
     89  OG         1.0120   -9.9290   22.4190 O.3   184  SER184     -0.2183
     90  N         11.9930   -3.1510   27.4070 N.3   244  TRP244     -0.1241
     91  CA        11.1610   -3.5590   26.2610 C.3   244  TRP244      0.1605
     92  C         10.6090   -2.4510   25.4390 C.2   244  TRP244      0.2264
     93  O         10.3740   -2.6330   24.2390 O.2   244  TRP244     -0.2867
     94  CB        10.0310   -4.4410   26.7130 C.3   244  TRP244      0.0550
     95  CG        10.4780   -5.8200   26.9800 C.ar  244  TRP244      0.0003
     96  CD1       10.5510   -6.4530   28.1940 C.ar  244  TRP244      0.0946
     97  CD2       10.9650   -6.7990   25.9920 C.ar  244  TRP244      0.0152
     98  NE1       11.0300   -7.7350   28.0460 N.ar  244  TRP244     -0.2442
     99  CE2       11.2980   -7.9990   26.7380 C.ar  244  TRP244      0.0810
    100  CE3       11.1540   -6.7880   24.6200 C.ar  244  TRP244      0.0012
    101  CZ2       11.7910   -9.1370   26.1210 C.ar  244  TRP244      0.0191
    102  CZ3       11.6620   -7.9380   24.0170 C.ar  244  TRP244      0.0001
    103  CH2       11.9620   -9.0850   24.7560 C.ar  244  TRP244      0.0015
    104  N         12.5880   -1.7310   21.9790 N.3   247  PHE247     -0.1227
    105  CA        12.2510   -2.7230   20.9720 C.3   247  PHE247      0.1736
    106  C         10.8470   -2.5450   20.3620 C.2   247  PHE247      0.2595
    107  O         10.6850   -2.6320   19.1450 O.2   247  PHE247     -0.2718
    108  CB        12.3300   -4.1020   21.5660 C.3   247  PHE247      0.0547
    109  CG        11.8570   -5.1770   20.6400 C.ar  247  PHE247     -0.0202
    110  CD1       12.7370   -5.7920   19.7810 C.ar  247  PHE247     -0.0042
    111  CD2       10.5110   -5.5740   20.6310 C.ar  247  PHE247     -0.0042
    112  CE1       12.2970   -6.7830   18.9210 C.ar  247  PHE247     -0.0003
    113  CE2       10.0670   -6.5790   19.7790 C.ar  247  PHE247     -0.0003
    114  CZ        10.9590   -7.1830   18.9180 C.ar  247  PHE247     -0.0000
    115  N          9.8320   -2.3200   21.1940 N.am  248  PHE248     -0.1976
    116  CA         8.4930   -2.1130   20.6580 C.3   248  PHE248      0.1639
    117  C          8.2910   -0.7590   19.9530 C.2   248  PHE248      0.2290
    118  O          7.4420   -0.6540   19.0720 O.2   248  PHE248     -0.2864
    119  CB         7.4580   -2.3440   21.7470 C.3   248  PHE248      0.0560
    120  CG         7.2160   -3.7920   22.0120 C.ar  248  PHE248     -0.0200
    121  CD1        6.5350   -4.5640   21.0890 C.ar  248  PHE248     -0.0042
    122  CD2        7.6940   -4.4020   23.1550 C.ar  248  PHE248     -0.0042
    123  CE1        6.3310   -5.9090   21.3050 C.ar  248  PHE248     -0.0003
    124  CE2        7.5080   -5.7440   23.3790 C.ar  248  PHE248     -0.0003
    125  CZ         6.8220   -6.5000   22.4510 C.ar  248  PHE248     -0.0000
    126  N          9.7870   -1.3910   16.5790 N.3   251  ASN251     -0.1240
    127  CA         8.8310   -2.2200   15.8380 C.3   251  ASN251      0.1653
    128  C          7.7910   -1.3790   15.0970 C.2   251  ASN251      0.2266
    129  O          7.5040   -1.6190   13.9200 O.2   251  ASN251     -0.2867
    130  CB         8.1130   -3.1630   16.8020 C.3   251  ASN251      0.1155
    131  CG         7.6500   -4.4320   16.1440 C.2   251  ASN251      0.2627
    132  OD1        8.4110   -5.0870   15.4340 O.2   251  ASN251     -0.2716
    133  ND2        6.4010   -4.8070   16.3940 N.am  251  ASN251     -0.0877
    134  N         17.7850   -3.3370   15.9330 N.3   266  PHE266     -0.1241
    135  CA        16.6160   -4.1420   16.1920 C.3   266  PHE266      0.1605
    136  C         17.0260   -5.3490   17.0180 C.2   266  PHE266      0.2264
    137  O         16.3920   -5.6780   18.0200 O.2   266  PHE266     -0.2867
    138  CB        15.9390   -4.5550   14.8800 C.3   266  PHE266      0.0534
    139  CG        14.4670   -4.8070   15.0100 C.ar  266  PHE266     -0.0203
    140  CD1       13.6600   -3.9660   15.7700 C.ar  266  PHE266     -0.0042
    141  CD2       13.8800   -5.8760   14.3570 C.ar  266  PHE266     -0.0042
    142  CE1       12.3020   -4.1990   15.8930 C.ar  266  PHE266     -0.0003
    143  CE2       12.5180   -6.1170   14.4680 C.ar  266  PHE266     -0.0003
    144  CZ        11.7280   -5.2760   15.2400 C.ar  266  PHE266     -0.0000
    145  N         16.2750   -6.1040   21.1680 N.3   270  ASN270     -0.1240
    146  CA        15.6590   -7.3690   21.4840 C.3   270  ASN270      0.1653
    147  C         16.4030   -8.0420   22.6230 C.2   270  ASN270      0.2266
    148  O         15.7820   -8.5430   23.5620 O.2   270  ASN270     -0.2867
    149  CB        15.6430   -8.2650   20.2380 C.3   270  ASN270      0.1155
    150  CG        14.6460   -9.4320   20.3400 C.2   270  ASN270      0.2627
    151  OD1       14.2830  -10.0240   19.3320 O.2   270  ASN270     -0.2716
    152  ND2       14.1960   -9.7530   21.5440 N.am  270  ASN270     -0.0877
    153  N         15.5650   -9.4510   26.3620 N.3   274  TYR274     -0.1241
    154  CA        15.9000  -10.7390   26.9410 C.3   274  TYR274      0.1605
    155  C         16.6340  -10.5730   28.2800 C.2   274  TYR274      0.2264
    156  O         16.3540  -11.2920   29.2550 O.2   274  TYR274     -0.2867
    157  CB        16.7540  -11.6150   25.9840 C.3   274  TYR274      0.0534
    158  CG        16.0710  -12.1200   24.7010 C.ar  274  TYR274     -0.0201
    159  CD1       14.6630  -12.2430   24.5940 C.ar  274  TYR274     -0.0009
    160  CD2       16.8330  -12.4600   23.5910 C.ar  274  TYR274     -0.0009
    161  CE1       14.0660  -12.7020   23.4320 C.ar  274  TYR274      0.0417
    162  CE2       16.2370  -12.9110   22.4170 C.ar  274  TYR274      0.0417
    163  CZ        14.8540  -13.0300   22.3460 C.ar  274  TYR274      0.1957
    164  OH        14.2730  -13.4660   21.1850 O.3   274  TYR274     -0.2866
@<TRIPOS>BOND
     1    51    50    2
     2    50    49    1
     3    48    49    1
     4    49    52    1
     5    52    53    1
     6    52    54    1
     7    55    56    1
     8    39    40    2
     9    39    38    1
    10    59    56    1
    11    59    60    1
    12    37    38    1
    13    38    41    1
    14    56    57    1
    15    71    68    1
    16    67    57   am
    17    67    68    1
    18    60    61   ar
    19    60    62   ar
    20    57    58    2
    21    43    45   ar
    22    43    42   ar
    23    68    69    1
    24   129   128    2
    25    61    63   ar
    26    45    47   ar
    27    62    64   ar
    28    41    42    1
    29   141   143   ar
    30   141   139   ar
    31    42    44   ar
    32   143   144   ar
    33    69    70    2
    34   138   139    1
    35   138   135    1
    36   139   140   ar
    37    63    65   ar
    38    47    46   ar
    39   128   127    1
    40    64    65   ar
    41   144   142   ar
    42   132   131    2
    43    44    46   ar
    44    65    66    1
    45   140   142   ar
    46   127   126    1
    47   127   130    1
    48   134   135    1
    49     6     5    1
    50   131   133   am
    51   131   130    1
    52   135   136    1
    53     7     5    1
    54     5     2    1
    55   136   137    2
    56    72    73    1
    57    76    73    1
    58    76    77    1
    59    73    74    1
    60     2     1    1
    61     2     3    1
    62    83    82    1
    63    78    74   am
    64    78    79    1
    65    82    79    1
    66   114   112   ar
    67   114   113   ar
    68   112   110   ar
    69   118   117    2
    70    74    75    2
    71     3     4    2
    72   107   106    2
    73   151   150    2
    74    79    80    1
    75   113   111   ar
    76   110   109   ar
    77    22    20    1
    78   117   116    1
    79   149   150    1
    80   149   146    1
    81   150   152   am
    82   106   105    1
    83   106   115   am
    84    80    81    2
    85   111   109   ar
    86   109   108    1
    87   116   115    1
    88   116   119    1
    89   105   108    1
    90   105   104    1
    91    15    13   ar
    92    20    21    1
    93    20    17    1
    94   121   123   ar
    95   121   120   ar
    96   145   146    1
    97   164   163    1
    98   123   125   ar
    99   146   147    1
   100    12    13    1
   101    12     9    1
   102   119   120    1
   103    13    14   ar
   104   120   122   ar
   105    16    17    1
   106    16    10   am
   107    17    18    1
   108   163   162   ar
   109   163   161   ar
   110   162   160   ar
   111    89    88    1
   112   125   124   ar
   113   147   148    2
   114     8     9    1
   115    84    85    1
   116     9    10    1
   117    88    85    1
   118    10    11    2
   119   122   124   ar
   120   161   159   ar
   121    18    19    2
   122   160   158   ar
   123    85    86    1
   124   102   100   ar
   125   102   103   ar
   126    93    92    2
   127   159   158   ar
   128    86    87    2
   129   100    97   ar
   130    35    34    1
   131   158   157    1
   132   103   101   ar
   133    29    27    1
   134    92    91    1
   135    27    28    1
   136    27    24    1
   137   157   154    1
   138    97    99   ar
   139    97    95   ar
   140    34    36    1
   141    34    31    1
   142   101    99   ar
   143    91    94    1
   144    91    90    1
   145   153   154    1
   146    94    95    1
   147    99    98   ar
   148    30    31    1
   149    30    25   am
   150    23    24    1
   151   154   155    1
   152    95    96   ar
   153    31    32    1
   154    24    25    1
   155    25    26    2
   156    98    96   ar
   157   155   156    2
   158    32    33    2
