@<TRIPOS>MOLECULE
tmp/3zprB06.pdb
 126 117 0 0 0
SMALL
GASTEIGER

@<TRIPOS>ATOM
      1  N          0.1150   -4.5800   39.8600 N.3   105  ALA105     -0.1245
      2  CA        -0.1750   -3.1880   40.1260 C.3   105  ALA105      0.1562
      3  C         -1.6050   -3.0690   40.6400 C.2   105  ALA105      0.2260
      4  O         -1.8640   -2.3310   41.5830 O.2   105  ALA105     -0.2867
      5  CB         0.0390   -2.3370   38.8790 C.3   105  ALA105      0.0290
      6  N         -1.9810   -4.3760   44.3030 N.3   108  ARG108     -0.1245
      7  CA        -1.5060   -3.4070   45.2860 C.3   108  ARG108      0.1563
      8  C         -2.4700   -2.2290   45.4020 C.2   108  ARG108      0.2260
      9  O         -2.6590   -1.7020   46.4810 O.2   108  ARG108     -0.2867
     10  CB        -0.1200   -2.8860   44.9100 C.3   108  ARG108      0.0307
     11  CG         0.9900   -3.9060   44.9320 C.3   108  ARG108      0.0489
     12  CD         1.1840   -4.4630   46.3190 C.3   108  ARG108      0.2205
     13  NE         0.1690   -5.4630   46.6550 N.pl3 108  ARG108     -0.0865
     14  CZ        -0.1250   -5.8640   47.8890 C.cat 108  ARG108      0.5346
     15  NH1        0.5060   -5.3560   48.9430 N.pl3 108  ARG108      0.1354
     16  NH2       -1.0700   -6.7780   48.0720 N.pl3 108  ARG108      0.1354
     17  N         -0.1830    2.2080   38.2910 N.3   196  ALA196     -0.1245
     18  CA         1.0120    2.4170   39.0880 C.3   196  ALA196      0.1562
     19  C          1.0470    3.8470   39.6210 C.2   196  ALA196      0.2260
     20  O          1.3770    4.0700   40.7890 O.2   196  ALA196     -0.2867
     21  CB         2.2610    2.0960   38.2710 C.3   196  ALA196      0.0290
     22  N         -1.4240    4.1430   42.5320 N.3   199  VAL199     -0.1231
     23  CA        -0.9070    3.5350   43.7540 C.3   199  VAL199      0.1692
     24  C          0.0670    4.5340   44.3710 C.2   199  VAL199      0.2592
     25  O          0.0790    4.7170   45.5770 O.2   199  VAL199     -0.2718
     26  CB        -0.2080    2.1720   43.4740 C.3   199  VAL199      0.0266
     27  CG1        0.5950    1.6990   44.6800 C.3   199  VAL199      0.0020
     28  CG2       -1.2120    1.1030   43.0320 C.3   199  VAL199      0.0020
     29  N          0.8640    5.2010   43.5360 N.am  200  TYR200     -0.1976
     30  CA         1.8010    6.2040   44.0280 C.3   200  TYR200      0.1639
     31  C          1.0450    7.2720   44.8080 C.2   200  TYR200      0.2290
     32  O          1.3440    7.5050   45.9750 O.2   200  TYR200     -0.2864
     33  CB         2.5780    6.8250   42.8620 C.3   200  TYR200      0.0560
     34  CG         3.6350    7.8380   43.2530 C.ar  200  TYR200     -0.0198
     35  CD1        4.8790    7.4280   43.7280 C.ar  200  TYR200     -0.0009
     36  CD2        3.3920    9.2080   43.1260 C.ar  200  TYR200     -0.0009
     37  CE1        5.8460    8.3480   44.0730 C.ar  200  TYR200      0.0417
     38  CE2        4.3510   10.1370   43.4710 C.ar  200  TYR200      0.0417
     39  CZ         5.5750    9.7030   43.9390 C.ar  200  TYR200      0.1957
     40  OH         6.5260   10.6400   44.2650 O.3   200  TYR200     -0.2866
     41  N         -0.3120    6.1360   48.0890 N.3   203  ALA203     -0.1231
     42  CA         0.7660    5.9280   49.0300 C.3   203  ALA203      0.1694
     43  C          1.2090    7.2730   49.6320 C.2   203  ALA203      0.2591
     44  O          1.5490    7.3450   50.8140 O.2   203  ALA203     -0.2718
     45  CB         1.9260    5.2240   48.3420 C.3   203  ALA203      0.0304
     46  N          1.2010    8.3290   48.8220 N.am  204  LYS204     -0.1980
     47  CA         1.5450    9.6620   49.3150 C.3   204  LYS204      0.1596
     48  C          0.5050   10.2000   50.2980 C.2   204  LYS204      0.2287
     49  O          0.8570   10.8420   51.2780 O.2   204  LYS204     -0.2864
     50  CB         1.7670   10.6590   48.1730 C.3   204  LYS204      0.0298
     51  CG         3.2410   10.8580   47.8260 C.3   204  LYS204      0.0038
     52  CD         3.4480   11.9050   46.7370 C.3   204  LYS204      0.0206
     53  CE         2.9100   13.2760   47.1440 C.3   204  LYS204      0.1093
     54  NZ         3.2860   14.3560   46.1910 N.3   204  LYS204     -0.1314
     55  N          1.0330    9.0070   53.8860 N.3   207  ILE207     -0.1245
     56  CA         2.1970    9.4680   54.6420 C.3   207  ILE207      0.1561
     57  C          1.9570   10.8680   55.2250 C.2   207  ILE207      0.2260
     58  O          2.9000   11.5650   55.5890 O.2   207  ILE207     -0.2867
     59  CB         3.4850    9.4550   53.7710 C.3   207  ILE207      0.0252
     60  CG1        3.4250   10.5270   52.6590 C.3   207  ILE207      0.0019
     61  CG2        3.7120    8.0580   53.2020 C.3   207  ILE207      0.0019
     62  CD1        4.6830   11.3620   52.5180 C.3   207  ILE207      0.0001
     63  N          6.8710    2.7480   56.3500 N.3   224  MET224     -0.1245
     64  CA         8.1170    2.8170   55.5670 C.3   224  MET224      0.1570
     65  C          8.5030    1.4430   54.9730 C.2   224  MET224      0.2261
     66  O          9.0280    1.3670   53.8620 O.2   224  MET224     -0.2867
     67  CB         9.2810    3.3690   56.4070 C.3   224  MET224      0.0387
     68  CG         9.1710    4.8360   56.8340 C.3   224  MET224      0.0595
     69  SD         9.2030    6.0940   55.5320 S.3   224  MET224     -0.1393
     70  CE         7.4550    6.4410   55.2840 C.3   224  MET224      0.0692
     71  N          5.9980    0.7260   51.9860 N.3   227  HIS227     -0.1226
     72  CA         6.4140    1.5590   50.8690 C.3   227  HIS227      0.1752
     73  C          7.6840    1.0880   50.2500 C.2   227  HIS227      0.2595
     74  O          7.8370    1.1880   49.0440 O.2   227  HIS227     -0.2718
     75  CB         6.5900    3.0170   51.2880 C.3   227  HIS227      0.0759
     76  CG         5.2930    3.7300   51.5730 C.ar  227  HIS227      0.0818
     77  ND1        4.3300    3.8950   50.6580 N.ar  227  HIS227     -0.2268
     78  CD2        4.8340    4.3260   52.7250 C.ar  227  HIS227      0.1154
     79  CE1        3.3030    4.5630   51.2000 C.ar  227  HIS227      0.1986
     80  NE2        3.6090    4.8310   52.4600 N.ar  227  HIS227     -0.2212
     81  N          8.6180    0.5900   51.0530 N.am  228  LYS228     -0.1980
     82  CA         9.8730    0.0630   50.5070 C.3   228  LYS228      0.1596
     83  C          9.5920   -1.1200   49.5680 C.2   228  LYS228      0.2287
     84  O         10.2020   -1.2190   48.5030 O.2   228  LYS228     -0.2864
     85  CB        10.8540   -0.3360   51.6150 C.3   228  LYS228      0.0298
     86  CG        12.2690   -0.6050   51.1240 C.3   228  LYS228      0.0038
     87  CD        12.9790   -1.6140   52.0200 C.3   228  LYS228      0.0206
     88  CE        14.3020   -2.0790   51.4280 C.3   228  LYS228      0.1093
     89  NZ        15.3060   -0.9780   51.3330 N.3   228  LYS228     -0.1314
     90  N          6.6750   -1.5670   47.9480 N.3   230  LEU230     -0.1231
     91  CA         6.0140   -0.9620   46.7860 C.3   230  LEU230      0.1693
     92  C          7.0260   -0.3480   45.8170 C.2   230  LEU230      0.2591
     93  O          6.8610   -0.4320   44.6010 O.2   230  LEU230     -0.2718
     94  CB         5.0450    0.1370   47.2050 C.3   230  LEU230      0.0284
     95  CG         3.6500   -0.2230   47.6890 C.3   230  LEU230      0.0019
     96  CD1        2.8420    1.0580   47.8330 C.3   230  LEU230      0.0001
     97  CD2        2.9670   -1.1890   46.7430 C.3   230  LEU230      0.0001
     98  N          8.0530    0.2930   46.3670 N.am  231  LYS231     -0.1980
     99  CA         9.1180    0.8680   45.5720 C.3   231  LYS231      0.1596
    100  C          9.8940   -0.2190   44.8290 C.2   231  LYS231      0.2287
    101  O         10.3260    0.0120   43.7050 O.2   231  LYS231     -0.2864
    102  CB        10.0680    1.6860   46.4530 C.3   231  LYS231      0.0298
    103  CG        10.9330    2.6700   45.6640 C.3   231  LYS231      0.0038
    104  CD        11.8770    3.4920   46.5430 C.3   231  LYS231      0.0206
    105  CE        12.9080    4.2610   45.7180 C.3   231  LYS231      0.1093
    106  NZ        14.1750    4.5060   46.4660 N.3   231  LYS231     -0.1314
    107  N          8.5310   -3.1390   43.7560 N.3   233  LEU233     -0.1231
    108  CA         7.6060   -3.4140   42.6420 C.3   233  LEU233      0.1693
    109  C          7.7010   -2.2930   41.5830 C.2   233  LEU233      0.2592
    110  O          7.7950   -2.5410   40.3890 O.2   233  LEU233     -0.2718
    111  CB         6.1750   -3.5780   43.1530 C.3   233  LEU233      0.0284
    112  CG         5.9540   -4.8210   44.0480 C.3   233  LEU233      0.0019
    113  CD1        4.5320   -4.8610   44.5810 C.3   233  LEU233      0.0001
    114  CD2        6.2360   -6.1200   43.3290 C.3   233  LEU233      0.0001
    115  N          7.7280   -1.0530   42.0160 N.am  234  GLY234     -0.1957
    116  CA         7.8460    0.0380   41.0610 C.3   234  GLY234      0.1869
    117  C          9.0980   -0.0730   40.2160 C.2   234  GLY234      0.2309
    118  O          9.0800    0.2160   39.0330 O.2   234  GLY234     -0.2863
    119  N          8.7470   -2.8480   37.5300 N.3   237  MET237     -0.1245
    120  CA         7.8930   -2.2990   36.4590 C.3   237  MET237      0.1570
    121  C          8.6180   -1.2950   35.5710 C.2   237  MET237      0.2261
    122  O          8.4480   -1.3060   34.3580 O.2   237  MET237     -0.2867
    123  CB         6.6410   -1.6520   37.0300 C.3   237  MET237      0.0387
    124  CG         5.7210   -2.6420   37.7290 C.3   237  MET237      0.0595
    125  SD         4.3220   -1.8270   38.5360 S.3   237  MET237     -0.1393
    126  CE         3.5700   -3.2500   39.3740 C.3   237  MET237      0.0692
@<TRIPOS>BOND
     1   122   121    2
     2   121   120    1
     3   120   123    1
     4   120   119    1
     5   123   124    1
     6   124   125    1
     7    21    18    1
     8    17    18    1
     9   125   126    1
    10     5     2    1
    11   118   117    2
    12    18    19    1
    13    19    20    2
    14     1     2    1
    15     2     3    1
    16   117   116    1
    17   110   109    2
    18     3     4    2
    19   116   115    1
    20   109   115   am
    21   109   108    1
    22    22    23    1
    23   108   111    1
    24   108   107    1
    25    33    34    1
    26    33    30    1
    27    28    26    1
    28    36    34   ar
    29    36    38   ar
    30   111   112    1
    31    34    35   ar
    32   114   112    1
    33    38    39   ar
    34    26    23    1
    35    26    27    1
    36    29    30    1
    37    29    24   am
    38   101   100    2
    39    35    37   ar
    40    23    24    1
    41    39    37   ar
    42    39    40    1
    43    30    31    1
    44   112   113    1
    45     6     7    1
    46    24    25    2
    47    93    92    2
    48    31    32    2
    49   100    99    1
    50    10    11    1
    51    10     7    1
    52    11    12    1
    53     7     8    1
    54     8     9    2
    55    99    98    1
    56    99   102    1
    57   103   102    1
    58   103   104    1
    59   105   106    1
    60   105   104    1
    61    92    98   am
    62    92    91    1
    63    54    53    1
    64    12    13    1
    65    13    14    2
    66    52    53    1
    67    52    51    1
    68    97    95    1
    69    91    94    1
    70    91    90    1
    71    94    95    1
    72    95    96    1
    73    51    50    1
    74    14    16    1
    75    14    15    1
    76    41    42    1
    77    50    47    1
    78    45    42    1
    79    84    83    2
    80    46    47    1
    81    46    43   am
    82    42    43    1
    83    74    73    2
    84    47    48    1
    85    83    82    1
    86    43    44    2
    87    73    72    1
    88    73    81   am
    89    48    49    2
    90    82    81    1
    91    82    85    1
    92    77    79   ar
    93    77    76   ar
    94    72    75    1
    95    72    71    1
    96    86    85    1
    97    86    87    1
    98    79    80   ar
    99    75    76    1
   100    89    88    1
   101    88    87    1
   102    76    78   ar
   103    80    78   ar
   104    62    60    1
   105    60    59    1
   106    61    59    1
   107    59    56    1
   108    66    65    2
   109    55    56    1
   110    56    57    1
   111    65    64    1
   112    57    58    2
   113    70    69    1
   114    69    68    1
   115    64    63    1
   116    64    67    1
   117    67    68    1
