@<TRIPOS>MOLECULE
tmp/3zpsB00.pdb
 115 108 0 0 0
SMALL
GASTEIGER

@<TRIPOS>ATOM
      1  N          8.7980   34.4220   -1.3180 N.3     8  ARG8       -0.1245
      2  CA         9.5040   33.1560   -1.4860 C.3     8  ARG8        0.1563
      3  C         10.4150   33.2080   -2.7100 C.2     8  ARG8        0.2260
      4  O          9.9950   33.6430   -3.7840 O.2     8  ARG8       -0.2867
      5  CB         8.5040   32.0080   -1.6390 C.3     8  ARG8        0.0307
      6  CG         7.7400   31.6910   -0.3750 C.3     8  ARG8        0.0489
      7  CD         6.7140   30.6030   -0.6120 C.3     8  ARG8        0.2205
      8  NE         6.0690   30.2100    0.6350 N.pl3   8  ARG8       -0.0865
      9  CZ         4.8090   29.7990    0.7260 C.cat   8  ARG8        0.5346
     10  NH1        4.0230   29.8370   -0.3410 N.pl3   8  ARG8        0.1354
     11  NH2        4.3080   29.4510    1.9050 N.pl3   8  ARG8        0.1354
     12  N         11.9180   26.1470   -5.0830 N.3    23  LEU23      -0.1245
     13  CA        12.2870   27.1090   -4.0600 C.3    23  LEU23       0.1561
     14  C         13.7870   27.0180   -3.8180 C.2    23  LEU23       0.2260
     15  O         14.2940   25.9480   -3.4910 O.2    23  LEU23      -0.2867
     16  CB        11.5400   26.7490   -2.7840 C.3    23  LEU23       0.0270
     17  CG        11.6610   27.6150   -1.5470 C.3    23  LEU23       0.0019
     18  CD1       11.0130   28.9610   -1.8170 C.3    23  LEU23       0.0001
     19  CD2       10.9390   26.8870   -0.4230 C.3    23  LEU23       0.0001
     20  N         16.5880   27.0920   -1.4240 N.3    25  ASP25      -0.1239
     21  CA        16.4750   26.8090    0.0070 C.3    25  ASP25       0.1674
     22  C         17.8480   26.5390    0.6320 C.2    25  ASP25       0.2266
     23  O         18.3630   25.4150    0.5930 O.2    25  ASP25      -0.2867
     24  CB        15.5430   25.6090    0.2140 C.3    25  ASP25       0.1410
     25  CG        15.2050   25.3600    1.6670 C.2    25  ASP25       0.3668
     26  OD1       15.8200   25.9780    2.5550 O.co2  25  ASP25      -0.2456
     27  OD2       14.3250   24.5120    1.9210 O.co2  25  ASP25      -0.2456
     28  N         18.5700   26.3340    3.6050 N.3    27  GLY27      -0.1210
     29  CA        18.4240   25.4280    4.7470 C.3    27  GLY27       0.1956
     30  C         18.4200   23.9490    4.3900 C.2    27  GLY27       0.2612
     31  O         18.2650   23.1000    5.2630 O.2    27  GLY27      -0.2717
     32  N         18.4290   23.6420    3.0990 N.am   28  ALA28      -0.1965
     33  CA        18.3380   22.2590    2.6500 C.3    28  ALA28       0.1728
     34  C         19.7060   21.7820    2.2000 C.2    28  ALA28       0.2616
     35  O         20.3220   22.4050    1.3360 O.2    28  ALA28      -0.2715
     36  CB        17.3450   22.1570    1.5040 C.3    28  ALA28       0.0334
     37  N         20.1680   20.6560    2.7410 N.am   29  ASP29      -0.1957
     38  CA        21.4090   20.0550    2.2260 C.3    29  ASP29       0.1840
     39  C         21.2180   19.6040    0.7710 C.2    29  ASP29       0.2622
     40  O         22.1660   19.6290   -0.0260 O.2    29  ASP29      -0.2715
     41  CB        21.8270   18.8340    3.0530 C.3    29  ASP29       0.1450
     42  CG        22.2430   19.1720    4.4790 C.2    29  ASP29       0.3671
     43  OD1       22.4800   20.3470    4.8240 O.co2  29  ASP29      -0.2456
     44  OD2       22.4440   18.2030    5.2430 O.co2  29  ASP29      -0.2456
     45  N         20.0470   19.0220    0.5110 N.am   30  ASP30      -0.1971
     46  CA        19.7790   18.2590   -0.6950 C.3    30  ASP30       0.1709
     47  C         18.6640   18.9330   -1.4760 C.2    30  ASP30       0.2293
     48  O         17.9390   19.7770   -0.9490 O.2    30  ASP30      -0.2864
     49  CB        19.3290   16.8430   -0.3190 C.3    30  ASP30       0.1436
     50  CG        20.3550   16.1080    0.5350 C.2    30  ASP30       0.3671
     51  OD1       21.5490   16.0920    0.1660 O.co2  30  ASP30      -0.2456
     52  OD2       19.9530   15.5420    1.5700 O.co2  30  ASP30      -0.2456
     53  N         15.1620   18.2560   -3.4040 N.3    32  VAL32      -0.1245
     54  CA        14.0920   17.2840   -3.3750 C.3    32  VAL32       0.1561
     55  C         12.9470   17.7780   -4.2300 C.2    32  VAL32       0.2260
     56  O         12.4740   18.8970   -4.0560 O.2    32  VAL32      -0.2867
     57  CB        13.6580   16.8600   -1.9680 C.3    32  VAL32       0.0252
     58  CG1       13.0050   18.0000   -1.2480 C.3    32  VAL32       0.0019
     59  CG2       12.7140   15.6660   -2.0560 C.3    32  VAL32       0.0019
     60  N         15.4990   11.3190    4.4290 N.3    47  ILE47      -0.1231
     61  CA        15.8120   12.7040    4.7570 C.3    47  ILE47       0.1692
     62  C         14.8930   13.2530    5.8370 C.2    47  ILE47       0.2593
     63  O         13.7460   12.8300    5.9720 O.2    47  ILE47      -0.2718
     64  CB        15.7770   13.6280    3.5260 C.3    47  ILE47       0.0266
     65  CG1       14.3810   13.6740    2.8980 C.3    47  ILE47       0.0019
     66  CG2       16.8360   13.2120    2.5080 C.3    47  ILE47       0.0020
     67  CD1       14.2440   14.7020    1.7880 C.3    47  ILE47       0.0001
     68  N         15.4340   14.1650    6.6320 N.am   48  GLY48      -0.1942
     69  CA        14.7120   14.7270    7.7670 C.3    48  GLY48       0.2014
     70  C         14.3670   16.1780    7.5350 C.2    48  GLY48       0.2639
     71  O         15.1990   16.9560    7.0790 O.2    48  GLY48      -0.2714
     72  N         13.1040   16.5140    7.7620 N.am   49  GLY49      -0.1939
     73  CA        12.6460   17.8920    7.6990 C.3    49  GLY49       0.2014
     74  C         12.0430   18.3060    9.0230 C.2    49  GLY49       0.2638
     75  O         12.1310   17.5810   10.0230 O.2    49  GLY49      -0.2714
     76  N         11.3670   19.4460    9.0180 N.am   50  ILE50      -0.1977
     77  CA        10.8210   19.9830   10.2540 C.3    50  ILE50       0.1596
     78  C          9.7160   19.1080   10.8430 C.2    50  ILE50       0.2287
     79  O          9.6120   18.9860   12.0620 O.2    50  ILE50      -0.2864
     80  CB        10.3490   21.4360   10.0770 C.3    50  ILE50       0.0276
     81  CG1       11.5070   22.3050    9.5650 C.3    50  ILE50       0.0022
     82  CG2        9.8240   21.9910   11.3940 C.3    50  ILE50       0.0022
     83  CD1       12.5730   22.6050   10.6080 C.3    50  ILE50       0.0001
     84  N         10.8400   12.4570    9.2280 N.3    53  PHE53      -0.1241
     85  CA        11.6270   11.8310    8.1750 C.3    53  PHE53       0.1605
     86  C         10.7550   11.2620    7.0580 C.2    53  PHE53       0.2264
     87  O          9.6040   10.8750    7.2800 O.2    53  PHE53      -0.2867
     88  CB        12.5510   10.7570    8.7580 C.3    53  PHE53       0.0534
     89  CG        13.6750   11.3110    9.5870 C.ar   53  PHE53      -0.0203
     90  CD1       13.4690   11.6540   10.9140 C.ar   53  PHE53      -0.0042
     91  CD2       14.8930   11.6280    9.0020 C.ar   53  PHE53      -0.0042
     92  CE1       14.4830   12.2310   11.6620 C.ar   53  PHE53      -0.0003
     93  CE2       15.9230   12.1630    9.7540 C.ar   53  PHE53      -0.0003
     94  CZ        15.7110   12.4880   11.0800 C.ar   53  PHE53      -0.0000
     95  N          6.5420   18.9160    0.2580 N.3    81  PRO81      -0.2102
     96  CA         5.5010   19.9360    0.0900 C.3    81  PRO81       0.1504
     97  C          5.7100   20.8450   -1.1180 C.2    81  PRO81       0.2576
     98  O          4.7540   21.4190   -1.6290 O.2    81  PRO81      -0.2718
     99  CB         5.5750   20.7680    1.3790 C.3    81  PRO81       0.0282
    100  CG         6.4210   20.0120    2.3150 C.3    81  PRO81       0.0208
    101  CD         7.1820   18.9560    1.5840 C.3    81  PRO81       0.0893
    102  N          6.9670   21.1000   -1.4660 N.am   82  THR82      -0.1953
    103  CA         7.2850   21.9030   -2.6390 C.3    82  THR82       0.1897
    104  C          8.6020   21.4000   -3.1990 C.2    82  THR82       0.2313
    105  O          9.3840   20.7850   -2.4760 O.2    82  THR82      -0.2863
    106  CB         7.4220   23.4060   -2.2950 C.3    82  THR82       0.1794
    107  OG1        8.5190   23.5980   -1.3890 O.3    82  THR82      -0.2208
    108  CG2        6.1430   23.9300   -1.6600 C.3    82  THR82       0.0378
    109  N         12.2750   21.7400   -3.8630 N.3    84  VAL84      -0.1245
    110  CA        13.3000   22.4960   -3.1530 C.3    84  VAL84       0.1561
    111  C         14.6580   22.2920   -3.8080 C.2    84  VAL84       0.2260
    112  O         15.0950   21.1570   -4.0090 O.2    84  VAL84      -0.2867
    113  CB        13.3860   22.0960   -1.6780 C.3    84  VAL84       0.0252
    114  CG1       12.0960   22.4700   -0.9480 C.3    84  VAL84       0.0019
    115  CG2       13.6660   20.6320   -1.5420 C.3    84  VAL84       0.0019
@<TRIPOS>BOND
     1    12    13    1
     2    55    56    2
     3    55    54    1
     4    13    14    1
     5    13    16    1
     6   112   111    2
     7   109   110    1
     8    14    15    2
     9   111   110    1
    10     4     3    2
    11    53    54    1
    12    54    57    1
    13   104   103    1
    14   104   105    2
    15   110   113    1
    16    16    17    1
    17     3     2    1
    18   103   106    1
    19   103   102    1
    20   106   108    1
    21   106   107    1
    22    59    57    1
    23    57    58    1
    24    18    17    1
    25   113   115    1
    26   113   114    1
    27     5     2    1
    28     5     6    1
    29    98    97    2
    30    17    19    1
    31     2     1    1
    32    47    48    2
    33    47    46    1
    34   102    97   am
    35    20    21    1
    36    97    96    1
    37    46    49    1
    38    46    45    1
    39     7     6    1
    40     7     8    1
    41    10     9    1
    42    49    50    1
    43    40    39    2
    44    21    24    1
    45    21    22    1
    46    96    95    1
    47    96    99    1
    48    51    50   ar
    49    24    25    1
    50    95   101    1
    51    45    39   am
    52    50    52   ar
    53    23    22    2
    54     8     9    2
    55     9    11    1
    56    39    38    1
    57    35    34    2
    58    99   100    1
    59    36    33    1
    60   101   100    1
    61    25    27   ar
    62    25    26   ar
    63    67    65    1
    64    34    33    1
    65    34    37   am
    66    38    37    1
    67    38    41    1
    68    66    64    1
    69    33    32    1
    70    65    64    1
    71    41    42    1
    72    32    30   am
    73    64    61    1
    74    28    29    1
    75    30    29    1
    76    30    31    2
    77    60    61    1
    78    42    43   ar
    79    42    44   ar
    80    61    62    1
    81    62    63    2
    82    62    68   am
    83    68    69    1
    84    86    87    2
    85    86    85    1
    86    71    70    2
    87    70    72   am
    88    70    69    1
    89    73    72    1
    90    73    74    1
    91    85    88    1
    92    85    84    1
    93    88    89    1
    94    91    89   ar
    95    91    93   ar
    96    76    74   am
    97    76    77    1
    98    74    75    2
    99    81    80    1
   100    81    83    1
   101    89    90   ar
   102    93    94   ar
   103    80    77    1
   104    80    82    1
   105    77    78    1
   106    78    79    2
   107    90    92   ar
   108    94    92   ar
