@<TRIPOS>MOLECULE
tmp/3zq6B01.pdb
 146 140 0 0 0
SMALL
GASTEIGER

@<TRIPOS>ATOM
      1  N         49.5220  -27.2020   64.4080 N.3    23  GLY23      -0.1210
      2  CA        49.8930  -27.8620   63.1600 C.3    23  GLY23       0.1956
      3  C         51.3760  -28.1520   62.9210 C.2    23  GLY23       0.2612
      4  O         51.7300  -28.6580   61.8590 O.2    23  GLY23      -0.2717
      5  N         52.2520  -27.8510   63.8800 N.am   24  VAL24      -0.1965
      6  CA        53.6870  -27.9130   63.5950 C.3    24  VAL24       0.1727
      7  C         54.1730  -29.3730   63.7950 C.2    24  VAL24       0.2617
      8  O         55.2290  -29.7460   63.2910 O.2    24  VAL24      -0.2715
      9  CB        54.5170  -27.0200   64.5190 C.3    24  VAL24       0.0290
     10  CG1       54.2180  -25.5040   64.2940 C.3    24  VAL24       0.0023
     11  CG2       54.2470  -27.4130   65.9580 C.3    24  VAL24       0.0023
     12  N         53.4160  -30.1660   64.5540 N.am   25  GLY25      -0.1940
     13  CA        53.7370  -31.5870   64.7690 C.3    25  GLY25       0.2014
     14  C         53.8900  -32.0240   66.2220 C.2    25  GLY25       0.2639
     15  O         54.6010  -32.9850   66.4910 O.2    25  GLY25      -0.2714
     16  N         53.2460  -31.3200   67.1630 N.am   26  LYS26      -0.1963
     17  CA        53.3270  -31.6860   68.5900 C.3    26  LYS26       0.1728
     18  C         52.9060  -33.1480   68.7850 C.2    26  LYS26       0.2617
     19  O         53.5300  -33.8850   69.5220 O.2    26  LYS26      -0.2715
     20  CB        52.3930  -30.8240   69.4510 C.3    26  LYS26       0.0311
     21  CG        52.7940  -29.2710   69.4650 C.3    26  LYS26       0.0038
     22  CD        51.7470  -28.4290   70.2540 C.3    26  LYS26       0.0206
     23  CE        50.3810  -28.3440   69.5650 C.3    26  LYS26       0.1093
     24  NZ        50.5360  -27.7450   68.2100 N.3    26  LYS26      -0.1314
     25  N         51.8080  -33.5300   68.1490 N.am   27  THR27      -0.1937
     26  CA        51.2210  -34.8390   68.3920 C.3    27  THR27       0.2028
     27  C         52.1240  -35.8930   67.7660 C.2    27  THR27       0.2642
     28  O         52.4570  -36.8860   68.3860 O.2    27  THR27      -0.2714
     29  CB        49.7710  -34.8910   67.8440 C.3    27  THR27       0.1808
     30  OG1       48.9680  -34.0480   68.6600 O.3    27  THR27      -0.2208
     31  CG2       49.1830  -36.3580   67.8950 C.3    27  THR27       0.0379
     32  N         52.5650  -35.6180   66.5460 N.am   28  THR28      -0.1950
     33  CA        53.4880  -36.4960   65.8360 C.3    28  THR28       0.1897
     34  C         54.7650  -36.7420   66.6280 C.2    28  THR28       0.2313
     35  O         55.2170  -37.8790   66.7780 O.2    28  THR28      -0.2863
     36  CB        53.8660  -35.8560   64.5170 C.3    28  THR28       0.1794
     37  OG1       52.6840  -35.7000   63.7390 O.3    28  THR28      -0.2208
     38  CG2       54.9050  -36.7020   63.7540 C.3    28  THR28       0.0378
     39  N         45.0970  -31.5250   74.3740 N.3    50  ASP50      -0.1239
     40  CA        44.4100  -30.7260   73.3720 C.3    50  ASP50       0.1674
     41  C         42.9300  -31.1160   73.3250 C.2    50  ASP50       0.2266
     42  O         42.6210  -32.2420   72.9640 O.2    50  ASP50      -0.2867
     43  CB        45.0340  -30.9890   72.0090 C.3    50  ASP50       0.1410
     44  CG        44.4960  -30.0760   70.9390 C.2    50  ASP50       0.3668
     45  OD1       43.4320  -29.4330   71.1430 O.co2  50  ASP50      -0.2456
     46  OD2       45.1520  -30.0030   69.8830 O.co2  50  ASP50      -0.2456
     47  N         44.1150  -35.5440   68.9390 N.3    54  SER54      -0.1217
     48  CA        44.6040  -36.1680   67.7040 C.3    54  SER54       0.1889
     49  C         45.4640  -37.4180   67.8900 C.2    54  SER54       0.2288
     50  O         45.9230  -38.0050   66.9030 O.2    54  SER54      -0.2866
     51  CB        45.4060  -35.1600   66.8860 C.3    54  SER54       0.2089
     52  OG        44.5290  -34.1850   66.3550 O.3    54  SER54      -0.2183
     53  N         47.7230  -26.1300   71.2510 N.3   134  PRO134     -0.2116
     54  CA        48.5920  -25.1140   70.6740 C.3   134  PRO134      0.1372
     55  C         48.9630  -24.0270   71.6800 C.2   134  PRO134      0.2244
     56  O         48.3030  -23.8550   72.7010 O.2   134  PRO134     -0.2868
     57  CB        47.7670  -24.5670   69.5220 C.3   134  PRO134      0.0268
     58  CG        46.9420  -25.7410   69.0760 C.3   134  PRO134      0.0207
     59  CD        46.5690  -26.4270   70.3800 C.3   134  PRO134      0.0892
     60  N         60.4070  -29.2510   62.6650 N.3   225  ASN225     -0.1225
     61  CA        59.7270  -30.3020   61.9380 C.3   225  ASN225      0.1785
     62  C         59.3920  -29.8800   60.5290 C.2   225  ASN225      0.2597
     63  O         59.3790  -28.6920   60.2080 O.2   225  ASN225     -0.2718
     64  CB        58.4450  -30.6220   62.6780 C.3   225  ASN225      0.1169
     65  CG        57.8400  -31.9480   62.2970 C.2   225  ASN225      0.2627
     66  OD1       58.5060  -32.8340   61.7510 O.2   225  ASN225     -0.2716
     67  ND2       56.5310  -32.1000   62.6070 N.am  225  ASN225     -0.0877
     68  N         59.0900  -30.8610   59.6890 N.am  226  GLN226     -0.1979
     69  CA        58.6630  -30.6320   58.3020 C.3   226  GLN226      0.1601
     70  C         59.6730  -29.8940   57.4340 C.2   226  GLN226      0.2287
     71  O         59.2950  -29.1310   56.5620 O.2   226  GLN226     -0.2864
     72  CB        57.2930  -29.9390   58.2820 C.3   226  GLN226      0.0394
     73  CG        56.3090  -30.7090   59.1710 C.3   226  GLN226      0.0908
     74  CD        54.9070  -30.1320   59.1490 C.2   226  GLN226      0.2608
     75  OE1       54.3520  -29.8710   58.0870 O.2   226  GLN226     -0.2717
     76  NE2       54.3300  -29.9300   60.3320 N.am  226  GLN226     -0.0878
     77  N         63.5470  -32.5750   61.9450 N.3   263  VAL263     -0.1231
     78  CA        62.8350  -33.7340   61.4050 C.3   263  VAL263      0.1678
     79  C         62.4270  -33.4330   59.9560 C.2   263  VAL263      0.2434
     80  O         61.7040  -32.4630   59.7010 O.2   263  VAL263     -0.2733
     81  CB        61.5890  -34.0800   62.2200 C.3   263  VAL263      0.0265
     82  CG1       60.7580  -35.1720   61.4980 C.3   263  VAL263      0.0020
     83  CG2       61.9790  -34.5110   63.6150 C.3   263  VAL263      0.0020
     84  N         62.9140  -34.2470   58.9980 N.am  264  PRO264     -0.2718
     85  CA        62.5380  -34.0640   57.5900 C.3   264  PRO264      0.1535
     86  C         61.0400  -34.2000   57.3430 C.2   264  PRO264      0.2598
     87  O         60.3430  -34.9640   58.0150 O.2   264  PRO264     -0.2715
     88  CB        63.2940  -35.1960   56.8700 C.3   264  PRO264      0.0310
     89  CG        64.5130  -35.4420   57.7540 C.3   264  PRO264      0.0237
     90  CD        64.0040  -35.2360   59.1700 C.3   264  PRO264      0.0939
     91  N         60.5440  -33.4210   56.3910 N.am  265  LEU265     -0.1964
     92  CA        59.2380  -33.6800   55.8380 C.3   265  LEU265      0.1728
     93  C         59.2520  -35.0280   55.0910 C.2   265  LEU265      0.2616
     94  O         60.0620  -35.2390   54.1900 O.2   265  LEU265     -0.2715
     95  CB        58.8360  -32.5540   54.8860 C.3   265  LEU265      0.0311
     96  CG        57.4030  -32.6420   54.3450 C.3   265  LEU265      0.0022
     97  CD1       56.4070  -32.3260   55.4690 C.3   265  LEU265      0.0001
     98  CD2       57.2160  -31.6490   53.1960 C.3   265  LEU265      0.0001
     99  N         58.3470  -35.9290   55.4570 N.am  266  LEU266     -0.1977
    100  CA        58.1690  -37.1930   54.7420 C.3   266  LEU266      0.1596
    101  C         57.4740  -37.0090   53.4020 C.2   266  LEU266      0.2287
    102  O         56.8780  -35.9540   53.1330 O.2   266  LEU266     -0.2864
    103  CB        57.3140  -38.1470   55.5760 C.3   266  LEU266      0.0297
    104  CG        57.9120  -38.5380   56.9160 C.3   266  LEU266      0.0022
    105  CD1       56.8880  -39.3500   57.6700 C.3   266  LEU266      0.0001
    106  CD2       59.1920  -39.3700   56.7010 C.3   266  LEU266      0.0001
    107  N         54.9640  -38.7960   52.7000 N.3   268  LYS268     -0.1231
    108  CA        53.5650  -39.0370   53.0370 C.3   268  LYS268      0.1693
    109  C         53.2560  -38.4020   54.3890 C.2   268  LYS268      0.2592
    110  O         54.1110  -37.7400   54.9710 O.2   268  LYS268     -0.2718
    111  CB        53.3030  -40.5340   53.0970 C.3   268  LYS268      0.0285
    112  CG        54.1390  -41.2620   54.1290 C.3   268  LYS268      0.0035
    113  CD        53.8300  -42.7650   54.0360 C.3   268  LYS268      0.0206
    114  CE        54.1130  -43.4770   55.3270 C.3   268  LYS268      0.1093
    115  NZ        55.5550  -43.4030   55.6500 N.3   268  LYS268     -0.1314
    116  N         52.0470  -38.6030   54.8940 N.am  269  GLU269     -0.1966
    117  CA        51.6670  -38.0260   56.1750 C.3   269  GLU269      0.1733
    118  C         52.2710  -38.7950   57.3040 C.2   269  GLU269      0.2616
    119  O         52.4210  -39.9970   57.2190 O.2   269  GLU269     -0.2715
    120  CB        50.1490  -38.0090   56.3300 C.3   269  GLU269      0.0429
    121  CG        49.5030  -37.0770   55.3580 C.3   269  GLU269      0.1163
    122  CD        48.0560  -37.3930   55.1420 C.2   269  GLU269      0.3649
    123  OE1       47.3680  -37.7350   56.1280 O.co2 269  GLU269     -0.2457
    124  OE2       47.6130  -37.2800   53.9780 O.co2 269  GLU269     -0.2457
    125  N         52.6340  -38.0800   58.3560 N.am  270  ALA270     -0.1963
    126  CA        53.1740  -38.6930   59.5490 C.3   270  ALA270      0.1728
    127  C         52.0270  -39.2130   60.3900 C.2   270  ALA270      0.2616
    128  O         51.3140  -38.4380   61.0650 O.2   270  ALA270     -0.2715
    129  CB        53.9810  -37.6670   60.3460 C.3   270  ALA270      0.0334
    130  N         51.8420  -40.5260   60.3320 N.am  271  LYS271     -0.1977
    131  CA        50.8590  -41.1990   61.1730 C.3   271  LYS271      0.1596
    132  C         50.9970  -42.7200   61.0560 C.2   271  LYS271      0.2287
    133  O         51.4950  -43.2370   60.0550 O.2   271  LYS271     -0.2864
    134  CB        49.4340  -40.7580   60.8430 C.3   271  LYS271      0.0298
    135  CG        48.9740  -41.0740   59.4510 C.3   271  LYS271      0.0038
    136  CD        47.4650  -40.8810   59.3480 C.3   271  LYS271      0.0206
    137  CE        46.9940  -41.0650   57.9050 C.3   271  LYS271      0.1093
    138  NZ        47.3670  -42.3970   57.3170 N.3   271  LYS271     -0.1314
    139  N         60.4560  -41.8930   62.4580 N.3   279  ILE279     -0.1245
    140  CA        60.7500  -40.5230   62.8810 C.3   279  ILE279      0.1561
    141  C         61.5180  -40.5350   64.1870 C.2   279  ILE279      0.2260
    142  O         62.4940  -39.8190   64.3420 O.2   279  ILE279     -0.2867
    143  CB        59.4450  -39.6690   63.0650 C.3   279  ILE279      0.0252
    144  CG1       58.8080  -39.3980   61.7160 C.3   279  ILE279      0.0019
    145  CG2       59.7370  -38.3300   63.7750 C.3   279  ILE279      0.0019
    146  CD1       57.4140  -38.7910   61.7990 C.3   279  ILE279      0.0001
@<TRIPOS>BOND
     1   107   108    1
     2   108   111    1
     3   108   109    1
     4   111   112    1
     5   102   101    2
     6    98    96    1
     7   101   100    1
     8   124   122   ar
     9   113   112    1
    10   113   114    1
    11    94    93    2
    12    96    95    1
    13    96    97    1
    14   109   116   am
    15   109   110    2
    16   100    99    1
    17   100   103    1
    18    95    92    1
    19   116   117    1
    20    93    99   am
    21    93    92    1
    22   122   121    1
    23   122   123   ar
    24   114   115    1
    25   121   120    1
    26   103   104    1
    27    92    91    1
    28   117   120    1
    29   117   118    1
    30    91    86   am
    31    71    70    2
    32   106   104    1
    33    88    85    1
    34    88    89    1
    35   104   105    1
    36   119   118    2
    37   118   125   am
    38   138   137    1
    39    86    85    1
    40    86    87    2
    41    70    69    1
    42    85    84    1
    43    89    90    1
    44   137   136    1
    45    75    74    2
    46    72    69    1
    47    72    73    1
    48    69    68    1
    49   125   126    1
    50    84    90    1
    51    84    79   am
    52    74    73    1
    53    74    76   am
    54   136   135    1
    55   135   134    1
    56   126   129    1
    57   126   127    1
    58    68    62   am
    59    80    79    2
    60    79    78    1
    61   133   132    2
    62    63    62    2
    63   130   127   am
    64   130   131    1
    65   127   128    2
    66    62    61    1
    67   134   131    1
    68   132   131    1
    69    78    77    1
    70    78    81    1
    71    82    81    1
    72   144   146    1
    73   144   143    1
    74    66    65    2
    75     4     3    2
    76    61    60    1
    77    61    64    1
    78    81    83    1
    79    65    67   am
    80    65    64    1
    81   139   140    1
    82   140   143    1
    83   140   141    1
    84     3     2    1
    85     3     5   am
    86   143   145    1
    87     2     1    1
    88     8     7    2
    89     6     7    1
    90     6     5    1
    91     6     9    1
    92    37    36    1
    93    38    36    1
    94     7    12   am
    95   141   142    2
    96    10     9    1
    97    36    33    1
    98     9    11    1
    99    12    13    1
   100    13    14    1
   101    33    32    1
   102    33    34    1
   103    14    15    2
   104    14    16   am
   105    52    51    1
   106    32    27   am
   107    34    35    2
   108    51    48    1
   109    50    49    2
   110    16    17    1
   111    48    49    1
   112    48    47    1
   113    27    28    2
   114    27    26    1
   115    29    31    1
   116    29    26    1
   117    29    30    1
   118    25    26    1
   119    25    18   am
   120    24    23    1
   121    17    18    1
   122    17    20    1
   123    18    19    2
   124    58    57    1
   125    58    59    1
   126    20    21    1
   127    21    22    1
   128    57    54    1
   129    23    22    1
   130    46    44   ar
   131    59    53    1
   132    54    53    1
   133    54    55    1
   134    44    45   ar
   135    44    43    1
   136    55    56    2
   137    43    40    1
   138    42    41    2
   139    41    40    1
   140    40    39    1
