@<TRIPOS>MOLECULE
tmp/3zq6D01.pdb
 150 144 0 0 0
SMALL
GASTEIGER

@<TRIPOS>ATOM
      1  N         75.6080   -7.6210   17.7620 N.3    22  GLY22      -0.1210
      2  CA        74.5290   -6.6510   17.6510 C.3    22  GLY22       0.1956
      3  C         74.2500   -5.9820   18.9780 C.2    22  GLY22       0.2612
      4  O         74.3020   -6.6350   20.0280 O.2    22  GLY22      -0.2717
      5  N         73.9960   -4.6740   18.9290 N.am   23  GLY23      -0.1942
      6  CA        73.5860   -3.9070   20.1000 C.3    23  GLY23       0.2014
      7  C         74.6010   -3.6740   21.2160 C.2    23  GLY23       0.2639
      8  O         74.2190   -3.2920   22.3220 O.2    23  GLY23      -0.2714
      9  N         75.8820   -3.9310   20.9600 N.am   24  VAL24      -0.1963
     10  CA        76.8890   -3.7780   22.0080 C.3    24  VAL24       0.1727
     11  C         77.3290   -2.3100   22.1100 C.2    24  VAL24       0.2617
     12  O         77.8360   -1.8790   23.1330 O.2    24  VAL24      -0.2715
     13  CB        78.1320   -4.6460   21.7660 C.3    24  VAL24       0.0290
     14  CG1       77.8080   -6.1440   21.8690 C.3    24  VAL24       0.0023
     15  CG2       78.7700   -4.3070   20.4250 C.3    24  VAL24       0.0023
     16  N         77.1380   -1.5490   21.0370 N.am   25  GLY25      -0.1940
     17  CA        77.5190   -0.1480   21.0380 C.3    25  GLY25       0.2014
     18  C         78.5560    0.2520   20.0050 C.2    25  GLY25       0.2639
     19  O         79.2850    1.2220   20.2050 O.2    25  GLY25      -0.2714
     20  N         78.6370   -0.4920   18.9030 N.am   26  LYS26      -0.1963
     21  CA        79.5360   -0.1300   17.8140 C.3    26  LYS26       0.1728
     22  C         79.2640    1.3230   17.3700 C.2    26  LYS26       0.2617
     23  O         80.1750    2.1510   17.2380 O.2    26  LYS26      -0.2715
     24  CB        79.3260   -1.0870   16.6430 C.3    26  LYS26       0.0311
     25  CG        79.6730   -2.5360   16.9520 C.3    26  LYS26       0.0038
     26  CD        79.4020   -3.4300   15.7400 C.3    26  LYS26       0.0206
     27  CE        77.9150   -3.4030   15.4010 C.3    26  LYS26       0.1093
     28  NZ        77.1350   -3.9350   16.5570 N.3    26  LYS26      -0.1314
     29  N         77.9920    1.6400   17.1640 N.am   27  THR27      -0.1937
     30  CA        77.6350    2.9590   16.6710 C.3    27  THR27       0.2028
     31  C         77.9630    4.0290   17.7160 C.2    27  THR27       0.2642
     32  O         78.5760    5.0480   17.3990 O.2    27  THR27      -0.2714
     33  CB        76.1610    2.9880   16.1750 C.3    27  THR27       0.1808
     34  OG1       76.0700    2.2140   14.9720 O.3    27  THR27      -0.2208
     35  CG2       75.6870    4.4140   15.8850 C.3    27  THR27       0.0379
     36  N         77.5980    3.7620   18.9670 N.am   28  THR28      -0.1950
     37  CA        77.9810    4.6120   20.0910 C.3    28  THR28       0.1897
     38  C         79.4900    4.8520   20.2320 C.2    28  THR28       0.2313
     39  O         79.9280    5.9950   20.4160 O.2    28  THR28      -0.2863
     40  CB        77.4600    4.0380   21.4160 C.3    28  THR28       0.1794
     41  OG1       76.0400    3.9070   21.3400 O.3    28  THR28      -0.2208
     42  CG2       77.8180    4.9680   22.5830 C.3    28  THR28       0.0378
     43  N         76.4220   -0.2550    8.2450 N.3    50  ASP50      -0.1239
     44  CA        75.2660   -1.0380    8.6420 C.3    50  ASP50       0.1674
     45  C         74.0610   -0.6470    7.7540 C.2    50  ASP50       0.2266
     46  O         73.6300    0.4990    7.7590 O.2    50  ASP50      -0.2867
     47  CB        74.9910   -0.7950   10.1300 C.3    50  ASP50       0.1410
     48  CG        73.9000   -1.6880   10.6880 C.2    50  ASP50       0.3668
     49  OD1       73.1020   -2.2800    9.9170 O.co2  50  ASP50      -0.2456
     50  OD2       73.8410   -1.8000   11.9280 O.co2  50  ASP50      -0.2456
     51  N         72.3250    3.7050   12.0050 N.3    54  SER54      -0.1217
     52  CA        71.9750    4.3020   13.3030 C.3    54  SER54       0.1889
     53  C         72.7790    5.5460   13.6540 C.2    54  SER54       0.2288
     54  O         72.5760    6.1240   14.7100 O.2    54  SER54      -0.2866
     55  CB        72.1300    3.2970   14.4340 C.3    54  SER54       0.2089
     56  OG        71.0800    2.3590   14.3990 O.3    54  SER54      -0.2183
     57  N         76.7140   -5.7420   12.5440 N.3   134  PRO134     -0.2116
     58  CA        77.0280   -6.7840   13.5180 C.3   134  PRO134      0.1372
     59  C         77.9500   -7.8570   12.9070 C.2   134  PRO134      0.2244
     60  O         77.8970   -8.0970   11.7010 O.2   134  PRO134     -0.2868
     61  CB        75.6550   -7.3600   13.8480 C.3   134  PRO134      0.0268
     62  CG        74.7130   -6.2310   13.6030 C.3   134  PRO134      0.0207
     63  CD        75.2630   -5.5250   12.4110 C.3   134  PRO134      0.0892
     64  N         81.6670   -2.4360   26.8670 N.3   245  ASN245     -0.1225
     65  CA        80.7260   -1.3290   27.0270 C.3   245  ASN245      0.1785
     66  C         79.6120   -1.7330   27.9850 C.2   245  ASN245      0.2597
     67  O         79.5200   -2.8950   28.3630 O.2   245  ASN245     -0.2718
     68  CB        80.1770   -0.9260   25.6530 C.3   245  ASN245      0.1169
     69  CG        79.2950    0.3060   25.6980 C.2   245  ASN245      0.2627
     70  OD1       79.4810    1.2110   26.5190 O.2   245  ASN245     -0.2716
     71  ND2       78.3170    0.3420   24.8040 N.am  245  ASN245     -0.0877
     72  N         78.7970   -0.7720   28.4060 N.am  246  GLN246     -0.1979
     73  CA        77.6360   -1.0410   29.2600 C.3   246  GLN246      0.1601
     74  C         77.9310   -1.7680   30.5740 C.2   246  GLN246      0.2287
     75  O         77.1550   -2.6090   31.0230 O.2   246  GLN246     -0.2864
     76  CB        76.5590   -1.7710   28.4650 C.3   246  GLN246      0.0394
     77  CG        76.1490   -0.9660   27.2550 C.3   246  GLN246      0.0908
     78  CD        75.0010   -1.5760   26.4730 C.2   246  GLN246      0.2608
     79  OE1       73.9140   -1.8430   27.0200 O.2   246  GLN246     -0.2717
     80  NE2       75.2300   -1.7900   25.1740 N.am  246  GLN246     -0.0878
     81  N         83.7100    1.0120   29.3160 N.3   283  VAL283     -0.1231
     82  CA        82.8260    2.1630   29.2750 C.3   283  VAL283      0.1678
     83  C         81.6140    1.8830   30.1560 C.2   283  VAL283      0.2434
     84  O         80.8800    0.9290   29.9340 O.2   283  VAL283     -0.2733
     85  CB        82.3770    2.4770   27.8460 C.3   283  VAL283      0.0265
     86  CG1       81.4720    3.7030   27.8310 C.3   283  VAL283      0.0020
     87  CG2       83.5910    2.7030   26.9620 C.3   283  VAL283      0.0020
     88  N         81.4120    2.7060   31.1890 N.am  284  PRO284     -0.2718
     89  CA        80.2940    2.3490   32.0680 C.3   284  PRO284      0.1535
     90  C         78.9190    2.5400   31.4100 C.2   284  PRO284      0.2598
     91  O         78.7630    3.3170   30.4680 O.2   284  PRO284     -0.2715
     92  CB        80.4760    3.2770   33.2780 C.3   284  PRO284      0.0310
     93  CG        81.4510    4.3490   32.8300 C.3   284  PRO284      0.0237
     94  CD        82.2730    3.7720   31.7350 C.3   284  PRO284      0.0939
     95  N         77.9310    1.7950   31.8850 N.am  285  LEU285     -0.1964
     96  CA        76.5540    2.0960   31.5500 C.3   285  LEU285      0.1728
     97  C         76.1860    3.4270   32.2050 C.2   285  LEU285      0.2616
     98  O         76.4740    3.6310   33.3770 O.2   285  LEU285     -0.2715
     99  CB        75.6450    1.0030   32.0890 C.3   285  LEU285      0.0311
    100  CG        74.2100    0.9790   31.5720 C.3   285  LEU285      0.0022
    101  CD1       74.1890    0.7210   30.0620 C.3   285  LEU285      0.0001
    102  CD2       73.4030   -0.0940   32.3050 C.3   285  LEU285      0.0001
    103  N         75.5530    4.3160   31.4380 N.am  286  LEU286     -0.1977
    104  CA        74.9750    5.5580   31.9430 C.3   286  LEU286      0.1596
    105  C         73.5600    5.3140   32.4690 C.2   286  LEU286      0.2287
    106  O         72.9580    4.2870   32.1700 O.2   286  LEU286     -0.2864
    107  CB        74.8810    6.5710   30.8050 C.3   286  LEU286      0.0297
    108  CG        76.1400    6.7840   29.9790 C.3   286  LEU286      0.0022
    109  CD1       75.8280    7.6110   28.7400 C.3   286  LEU286      0.0001
    110  CD2       77.1860    7.4710   30.8350 C.3   286  LEU286      0.0001
    111  N         71.1720    7.0050   31.4850 N.3   288  LYS288     -0.1231
    112  CA        70.3500    7.4110   30.3550 C.3   288  LYS288      0.1693
    113  C         70.9010    6.7080   29.1260 C.2   288  LYS288      0.2592
    114  O         71.8920    5.9870   29.2130 O.2   288  LYS288     -0.2718
    115  CB        70.3880    8.9340   30.1620 C.3   288  LYS288      0.0285
    116  CG        71.7960    9.5150   30.0290 C.3   288  LYS288      0.0035
    117  CD        71.7780   11.0500   29.9640 C.3   288  LYS288      0.0206
    118  CE        72.1060   11.5920   28.5660 C.3   288  LYS288      0.1093
    119  NZ        71.1970   11.0860   27.4760 N.3   288  LYS288     -0.1314
    120  N         70.2660    6.9250   27.9830 N.am  289  GLU289     -0.1966
    121  CA        70.7450    6.3630   26.7280 C.3   289  GLU289      0.1733
    122  C         71.9420    7.1340   26.1940 C.2   289  GLU289      0.2616
    123  O         72.0250    8.3520   26.3200 O.2   289  GLU289     -0.2715
    124  CB        69.6200    6.3690   25.6950 C.3   289  GLU289      0.0429
    125  CG        68.4270    5.5350   26.1370 C.3   289  GLU289      0.1163
    126  CD        67.2280    5.6700   25.2210 C.2   289  GLU289      0.3649
    127  OE1       67.4060    6.0310   24.0410 O.co2 289  GLU289     -0.2457
    128  OE2       66.1000    5.3960   25.6860 O.co2 289  GLU289     -0.2457
    129  N         72.8730    6.4080   25.6040 N.am  290  ALA290     -0.1963
    130  CA        73.9770    7.0260   24.8950 C.3   290  ALA290      0.1728
    131  C         73.4880    7.5270   23.5390 C.2   290  ALA290      0.2616
    132  O         73.2820    6.7400   22.6090 O.2   290  ALA290     -0.2715
    133  CB        75.1130    6.0200   24.7130 C.3   290  ALA290      0.0334
    134  N         73.2800    8.8340   23.4390 N.am  291  LYS291     -0.1977
    135  CA        72.9110    9.4710   22.1790 C.3   291  LYS291      0.1596
    136  C         73.0990   10.9690   22.3190 C.2   291  LYS291      0.2287
    137  O         73.1070   11.4970   23.4310 O.2   291  LYS291     -0.2864
    138  CB        71.4620    9.1570   21.7910 C.3   291  LYS291      0.0298
    139  CG        70.5290    8.9810   22.9730 C.3   291  LYS291      0.0038
    140  CD        69.0660    9.1500   22.5900 C.3   291  LYS291      0.0206
    141  CE        68.6280    8.1290   21.5550 C.3   291  LYS291      0.1093
    142  NZ        69.0460    8.4920   20.1720 N.3   291  LYS291     -0.1314
    143  N         81.3240   10.3200   27.0820 N.3   299  ILE299     -0.1245
    144  CA        81.7880    8.9320   26.9870 C.3   299  ILE299      0.1561
    145  C         83.2000    8.8550   26.4290 C.2   299  ILE299      0.2260
    146  O         84.0560    8.1590   26.9740 O.2   299  ILE299     -0.2867
    147  CB        80.8940    8.0960   26.0740 C.3   299  ILE299      0.0252
    148  CG1       79.5560    7.8260   26.7560 C.3   299  ILE299      0.0019
    149  CG2       81.5950    6.7710   25.6820 C.3   299  ILE299      0.0019
    150  CD1       78.6050    7.0090   25.9060 C.3   299  ILE299      0.0001
@<TRIPOS>BOND
     1    45    46    2
     2    45    44    1
     3    43    44    1
     4    44    47    1
     5    49    48   ar
     6    47    48    1
     7    48    50   ar
     8    60    59    2
     9    51    52    1
    10    63    57    1
    11    63    62    1
    12    57    58    1
    13    59    58    1
    14    52    53    1
    15    52    55    1
    16    58    61    1
    17    62    61    1
    18    53    54    2
    19    56    55    1
    20    34    33    1
    21    27    26    1
    22    27    28    1
    23    26    25    1
    24    35    33    1
    25    33    30    1
    26    24    25    1
    27    24    21    1
    28    30    29    1
    29    30    31    1
    30    29    22   am
    31    23    22    2
    32    22    21    1
    33    32    31    2
    34     2     1    1
    35     2     3    1
    36    31    36   am
    37    21    20    1
    38    20    18   am
    39     5     3   am
    40     5     6    1
    41    36    37    1
    42     3     4    2
    43    18    19    2
    44    18    17    1
    45    37    38    1
    46    37    40    1
    47     6     7    1
    48   142   141    1
    49    38    39    2
    50    15    13    1
    51     9     7   am
    52     9    10    1
    53    16    17    1
    54    16    11   am
    55     7     8    2
    56    41    40    1
    57    40    42    1
    58   141   140    1
    59    13    14    1
    60    13    10    1
    61   138   135    1
    62   138   139    1
    63    10    11    1
    64    11    12    2
    65   135   136    1
    66   135   134    1
    67   136   137    2
    68   140   139    1
    69   132   131    2
    70   134   131   am
    71   131   130    1
    72   127   126   ar
    73   133   130    1
    74    71    69   am
    75   130   129    1
    76    80    78   am
    77   126   128   ar
    78   126   125    1
    79   129   122   am
    80    68    69    1
    81    68    65    1
    82   149   147    1
    83   124   125    1
    84   124   121    1
    85    69    70    2
    86   150   148    1
    87   147   148    1
    88   147   144    1
    89   122   123    2
    90   122   121    1
    91   145   146    2
    92   145   144    1
    93    78    79    2
    94    78    77    1
    95   121   120    1
    96    64    65    1
    97    87    85    1
    98   144   143    1
    99    65    66    1
   100    77    76    1
   101   119   118    1
   102    86    85    1
   103    85    82    1
   104   120   113   am
   105    66    67    2
   106    66    72   am
   107    72    73    1
   108    76    73    1
   109   118   117    1
   110   109   108    1
   111   113   114    2
   112   113   112    1
   113    73    74    1
   114    82    81    1
   115    82    83    1
   116    84    83    2
   117   117   116    1
   118   108   107    1
   119   108   110    1
   120   116   115    1
   121   101   100    1
   122    83    88   am
   123   115   112    1
   124   112   111    1
   125    91    90    2
   126    74    75    2
   127   107   104    1
   128    88    94    1
   129    88    89    1
   130    90    95   am
   131    90    89    1
   132   103   104    1
   133   103    97   am
   134    96    95    1
   135    96    99    1
   136    96    97    1
   137   100    99    1
   138   100   102    1
   139    94    93    1
   140   104   105    1
   141    89    92    1
   142   106   105    2
   143    97    98    2
   144    93    92    1
