@<TRIPOS>MOLECULE
tmp/3zq9A01.pdb
 86 84 0 0 0
SMALL
GASTEIGER

@<TRIPOS>ATOM
      1  N         18.7010   34.1780   15.5320 N.3    40  GLY40      -0.1210
      2  CA        18.3770   33.2290   16.6270 C.3    40  GLY40       0.1956
      3  C         18.2800   31.8520   16.0510 C.2    40  GLY40       0.2612
      4  O         18.5010   31.6780   14.8570 O.2    40  GLY40      -0.2717
      5  N         17.9670   30.8650   16.8920 N.am   41  GLY41      -0.1942
      6  CA        17.7860   29.5180   16.3790 C.3    41  GLY41       0.2014
      7  C         19.0120   28.6530   16.6960 C.2    41  GLY41       0.2639
      8  O         19.9630   29.1030   17.3510 O.2    41  GLY41      -0.2714
      9  N         18.9690   27.4100   16.2140 N.am   42  ASN42      -0.1958
     10  CA        19.8890   26.3490   16.6720 C.3    42  ASN42       0.1819
     11  C         21.3470   26.7470   16.4430 C.2    42  ASN42       0.2621
     12  O         22.2060   26.5590   17.3030 O.2    42  ASN42      -0.2715
     13  CB        19.6070   25.0370   15.9170 C.3    42  ASN42       0.1195
     14  CG        18.3210   24.3560   16.3820 C.2    42  ASN42       0.2630
     15  OD1       17.7630   24.7190   17.4140 O.2    42  ASN42      -0.2716
     16  ND2       17.8840   23.3310   15.6490 N.am   42  ASN42      -0.0877
     17  N         21.6290   27.3220   15.2840 N.am   43  ARG43      -0.1977
     18  CA        23.0120   27.7440   14.9800 C.3    43  ARG43       0.1597
     19  C         23.6010   28.7720   15.9490 C.2    43  ARG43       0.2287
     20  O         24.8470   28.8740   16.0690 O.2    43  ARG43      -0.2864
     21  CB        23.0840   28.2880   13.5380 C.3    43  ARG43       0.0334
     22  CG        23.2240   27.2000   12.4800 C.3    43  ARG43       0.0492
     23  CD        24.6400   26.7430   12.3920 C.3    43  ARG43       0.2205
     24  NE        24.8320   25.7650   11.3190 N.pl3  43  ARG43      -0.0865
     25  CZ        26.0300   25.3900   10.8720 C.cat  43  ARG43       0.5346
     26  NH1       27.1420   25.9040   11.4010 N.pl3  43  ARG43       0.1354
     27  NH2       26.1230   24.5410    9.8340 N.pl3  43  ARG43       0.1354
     28  N         21.2940   19.1230   13.4280 N.3    59  ASP59      -0.1239
     29  CA        20.7500   19.5070   12.1290 C.3    59  ASP59       0.1674
     30  C         21.6810   19.1020   10.9950 C.2    59  ASP59       0.2266
     31  O         21.2190   18.8190    9.8690 O.2    59  ASP59      -0.2867
     32  CB        20.4990   21.0190   12.0300 C.3    59  ASP59       0.1410
     33  CG        19.2290   21.4560   12.7940 C.2    59  ASP59       0.3668
     34  OD1       18.2970   20.6280   13.0090 O.co2  59  ASP59      -0.2456
     35  OD2       19.1810   22.6430   13.1500 O.co2  59  ASP59      -0.2456
     36  N         28.7650   28.4650    8.1860 N.3    67  TYR67      -0.1241
     37  CA        27.3970   28.5930    7.6660 C.3    67  TYR67       0.1605
     38  C         26.7850   29.9900    7.8990 C.2    67  TYR67       0.2264
     39  O         26.1170   30.5320    7.0200 O.2    67  TYR67      -0.2867
     40  CB        26.4860   27.5710    8.3360 C.3    67  TYR67       0.0534
     41  CG        25.0210   27.8180    8.0120 C.ar   67  TYR67      -0.0201
     42  CD1       24.5460   27.5960    6.7110 C.ar   67  TYR67      -0.0009
     43  CD2       24.1570   28.3910    8.9500 C.ar   67  TYR67      -0.0009
     44  CE1       23.1890   27.8450    6.3780 C.ar   67  TYR67       0.0417
     45  CE2       22.8130   28.6210    8.6320 C.ar   67  TYR67       0.0417
     46  CZ        22.3550   28.3540    7.3530 C.ar   67  TYR67       0.1957
     47  OH        21.0520   28.5990    6.9820 O.3    67  TYR67      -0.2866
     48  N          9.3040   31.7400   11.3140 N.3   385  TRP385     -0.1227
     49  CA        10.4990   30.9150   10.9830 C.3   385  TRP385      0.1737
     50  C         10.1680   30.0710    9.7240 C.2   385  TRP385      0.2595
     51  O          9.1640   29.3950    9.7060 O.2   385  TRP385     -0.2718
     52  CB        10.8670   29.9760   12.1570 C.3   385  TRP385      0.0564
     53  CG        12.1060   29.2040   11.8280 C.ar  385  TRP385      0.0003
     54  CD1       12.1620   28.0360   11.0930 C.ar  385  TRP385      0.0946
     55  CD2       13.4460   29.5200   12.1900 C.ar  385  TRP385      0.0152
     56  NE1       13.4730   27.6390   10.9400 N.ar  385  TRP385     -0.2442
     57  CE2       14.2840   28.5360   11.5950 C.ar  385  TRP385      0.0810
     58  CE3       14.0360   30.5510   12.9370 C.ar  385  TRP385      0.0012
     59  CZ2       15.6940   28.5430   11.7440 C.ar  385  TRP385      0.0191
     60  CZ3       15.4540   30.5600   13.0850 C.ar  385  TRP385      0.0001
     61  CH2       16.2610   29.5850   12.4650 C.ar  385  TRP385      0.0015
     62  N         11.0030   30.1490    8.6880 N.am  386  LYS386     -0.1966
     63  CA        10.7930   29.3930    7.4580 C.3   386  LYS386      0.1728
     64  C         11.0680   27.8950    7.6760 C.2   386  LYS386      0.2616
     65  O         12.2350   27.5070    7.7760 O.2   386  LYS386     -0.2715
     66  CB        11.7790   29.8880    6.3800 C.3   386  LYS386      0.0311
     67  CG        11.5860   31.3350    5.9460 C.3   386  LYS386      0.0038
     68  CD        12.6350   31.6780    4.8580 C.3   386  LYS386      0.0206
     69  CE        12.2900   31.0250    3.5360 C.3   386  LYS386      0.1093
     70  NZ        13.4530   31.3170    2.5520 N.3   386  LYS386     -0.1314
     71  N         10.0160   27.0620    7.6730 N.am  387  LEU387     -0.1977
     72  CA        10.2150   25.6290    7.7840 C.3   387  LEU387      0.1596
     73  C         10.4950   25.0340    6.4030 C.2   387  LEU387      0.2287
     74  O         10.9350   23.8940    6.2960 O.2   387  LEU387     -0.2864
     75  CB         8.9760   24.9400    8.3520 C.3   387  LEU387      0.0297
     76  CG         8.6910   25.2850    9.8140 C.3   387  LEU387      0.0022
     77  CD1        7.3820   24.6420   10.1970 C.3   387  LEU387      0.0001
     78  CD2        9.8550   24.8270   10.7330 C.3   387  LEU387      0.0001
     79  N         12.5610   25.8310    2.8120 N.3   389  ASP389     -0.1239
     80  CA        13.5880   26.6950    2.2050 C.3   389  ASP389      0.1674
     81  C         13.0830   27.2430    0.8770 C.2   389  ASP389      0.2266
     82  O         12.1010   26.7190    0.3350 O.2   389  ASP389     -0.2867
     83  CB        14.9010   25.9160    1.9710 C.3   389  ASP389      0.1410
     84  CG        15.5430   25.4290    3.3000 C.2   389  ASP389      0.3668
     85  OD1       15.5320   26.1780    4.2830 O.co2 389  ASP389     -0.2456
     86  OD2       16.1110   24.3130    3.3300 O.co2 389  ASP389     -0.2456
@<TRIPOS>BOND
     1    82    81    2
     2    81    80    1
     3    83    80    1
     4    83    84    1
     5    80    79    1
     6    70    69    1
     7    84    86   ar
     8    84    85   ar
     9    69    68    1
    10    68    67    1
    11    67    66    1
    12    74    73    2
    13    44    42   ar
    14    44    46   ar
    15    66    63    1
    16    73    72    1
    17    42    41   ar
    18    47    46    1
    19    39    38    2
    20    46    45   ar
    21    63    64    1
    22    63    62    1
    23    37    38    1
    24    37    36    1
    25    37    40    1
    26    71    64   am
    27    71    72    1
    28    64    65    2
    29    72    75    1
    30    41    40    1
    31    41    43   ar
    32    75    76    1
    33    45    43   ar
    34    62    50   am
    35    51    50    2
    36    50    49    1
    37    76    77    1
    38    76    78    1
    39    27    25    1
    40    31    30    2
    41    25    24    2
    42    25    26    1
    43    56    54   ar
    44    56    57   ar
    45    49    48    1
    46    49    52    1
    47    30    29    1
    48    54    53   ar
    49    24    23    1
    50    57    59   ar
    51    57    55   ar
    52    59    61   ar
    53    53    52    1
    54    53    55   ar
    55    32    29    1
    56    32    33    1
    57    29    28    1
    58    55    58   ar
    59    23    22    1
    60    61    60   ar
    61    22    21    1
    62    33    34   ar
    63    33    35   ar
    64    58    60   ar
    65    21    18    1
    66     4     3    2
    67    18    17    1
    68    18    19    1
    69    17    11   am
    70     1     2    1
    71    16    14   am
    72    13    14    1
    73    13    10    1
    74    19    20    2
    75     3     2    1
    76     3     5   am
    77     9    10    1
    78     9     7   am
    79     6     7    1
    80     6     5    1
    81    14    15    2
    82    11    10    1
    83    11    12    2
    84     7     8    2
