@<TRIPOS>MOLECULE
tmp/3zqaA00.pdb
 135 129 0 0 0
SMALL
GASTEIGER

@<TRIPOS>ATOM
      1  N         64.1570  -42.8120  -23.0900 N.3   103  VAL103     -0.1245
      2  CA        63.4150  -44.0300  -22.7770 C.3   103  VAL103      0.1561
      3  C         64.2220  -45.3300  -22.8890 C.2   103  VAL103      0.2260
      4  O         64.4480  -46.0170  -21.8810 O.2   103  VAL103     -0.2867
      5  CB        62.1270  -44.1300  -23.6340 C.3   103  VAL103      0.0252
      6  CG1       61.4010  -45.4430  -23.3850 C.3   103  VAL103      0.0019
      7  CG2       61.2350  -42.9680  -23.3230 C.3   103  VAL103      0.0019
      8  N         65.6270  -46.8430  -19.4760 N.3   107  THR107     -0.1218
      9  CA        64.7920  -47.8830  -18.8580 C.3   107  THR107      0.1862
     10  C         65.3310  -49.3020  -19.0760 C.2   107  THR107      0.2287
     11  O         64.9740  -50.2360  -18.3470 O.2   107  THR107     -0.2866
     12  CB        63.3100  -47.8120  -19.3350 C.3   107  THR107      0.1770
     13  OG1       63.2270  -48.0910  -20.7450 O.3   107  THR107     -0.2211
     14  CG2       62.7340  -46.4380  -19.0540 C.3   107  THR107      0.0375
     15  N         61.2150  -53.0850  -32.2170 N.3   152  ASN152     -0.1225
     16  CA        60.6780  -51.7980  -31.7990 C.3   152  ASN152      0.1785
     17  C         61.4400  -51.1480  -30.6300 C.2   152  ASN152      0.2597
     18  O         61.6030  -49.9280  -30.5880 O.2   152  ASN152     -0.2718
     19  CB        59.1750  -51.8980  -31.5150 C.3   152  ASN152      0.1169
     20  CG        58.8620  -52.7110  -30.2670 C.2   152  ASN152      0.2627
     21  OD1       59.5550  -53.6680  -29.9350 O.2   152  ASN152     -0.2716
     22  ND2       57.8020  -52.3390  -29.5870 N.am  152  ASN152     -0.0877
     23  N         61.9050  -51.9580  -29.6860 N.am  153  TYR153     -0.1976
     24  CA        62.8200  -51.4570  -28.6500 C.3   153  TYR153      0.1639
     25  C         64.0270  -52.3730  -28.5560 C.2   153  TYR153      0.2290
     26  O         64.1430  -53.1380  -27.5970 O.2   153  TYR153     -0.2864
     27  CB        62.1250  -51.3860  -27.2900 C.3   153  TYR153      0.0560
     28  CG        61.1690  -50.2310  -27.1660 C.ar  153  TYR153     -0.0198
     29  CD1       59.9940  -50.2000  -27.9130 C.ar  153  TYR153     -0.0009
     30  CD2       61.4390  -49.1630  -26.3040 C.ar  153  TYR153     -0.0009
     31  CE1       59.1050  -49.1350  -27.8140 C.ar  153  TYR153      0.0417
     32  CE2       60.5510  -48.0940  -26.1900 C.ar  153  TYR153      0.0417
     33  CZ        59.3880  -48.0890  -26.9540 C.ar  153  TYR153      0.1957
     34  OH        58.5110  -47.0440  -26.8690 O.3   153  TYR153     -0.2866
     35  N         66.5760  -52.0380  -25.4170 N.3   156  GLN156     -0.1231
     36  CA        65.8150  -52.1720  -24.1720 C.3   156  GLN156      0.1698
     37  C         65.3640  -53.6120  -23.9780 C.2   156  GLN156      0.2592
     38  O         65.4150  -54.1210  -22.8610 O.2   156  GLN156     -0.2718
     39  CB        64.6180  -51.2220  -24.1360 C.3   156  GLN156      0.0381
     40  CG        63.8370  -51.1970  -22.7950 C.3   156  GLN156      0.0905
     41  CD        62.3370  -50.9360  -23.0140 C.2   156  GLN156      0.2608
     42  OE1       61.6580  -51.7190  -23.6740 O.2   156  GLN156     -0.2717
     43  NE2       61.8370  -49.8210  -22.4940 N.am  156  GLN156     -0.0878
     44  N         64.9410  -54.2810  -25.0600 N.am  157  ILE157     -0.1980
     45  CA        64.5430  -55.6890  -24.9540 C.3   157  ILE157      0.1595
     46  C         65.7380  -56.6040  -24.6150 C.2   157  ILE157      0.2287
     47  O         65.6080  -57.5530  -23.8220 O.2   157  ILE157     -0.2864
     48  CB        63.8420  -56.2050  -26.2210 C.3   157  ILE157      0.0276
     49  CG1       62.4550  -55.5900  -26.3730 C.3   157  ILE157      0.0022
     50  CG2       63.7070  -57.7400  -26.1980 C.3   157  ILE157      0.0022
     51  CD1       61.8880  -55.7850  -27.8030 C.3   157  ILE157      0.0001
     52  N         66.1780  -55.9930  -20.8880 N.3   160  TRP160     -0.1241
     53  CA        65.1210  -56.5810  -20.0540 C.3   160  TRP160      0.1605
     54  C         65.2180  -58.0980  -19.9960 C.2   160  TRP160      0.2264
     55  O         64.7450  -58.7110  -19.0430 O.2   160  TRP160     -0.2867
     56  CB        63.7210  -56.1570  -20.5100 C.3   160  TRP160      0.0550
     57  CG        63.3850  -54.7460  -20.1390 C.ar  160  TRP160      0.0003
     58  CD1       64.2630  -53.7480  -19.7990 C.ar  160  TRP160      0.0946
     59  CD2       62.0770  -54.1620  -20.0800 C.ar  160  TRP160      0.0152
     60  NE1       63.5790  -52.5820  -19.5430 N.ar  160  TRP160     -0.2442
     61  CE2       62.2380  -52.8090  -19.7110 C.ar  160  TRP160      0.0810
     62  CE3       60.7880  -54.6490  -20.3090 C.ar  160  TRP160      0.0012
     63  CZ2       61.1610  -51.9480  -19.5560 C.ar  160  TRP160      0.0191
     64  CZ3       59.7200  -53.7850  -20.1700 C.ar  160  TRP160      0.0001
     65  CH2       59.9110  -52.4540  -19.7910 C.ar  160  TRP160      0.0015
     66  N         60.3010  -62.3120  -27.5330 N.3   227  THR227     -0.1218
     67  CA        59.4420  -61.1580  -27.6850 C.3   227  THR227      0.1862
     68  C         59.1190  -60.9810  -29.1700 C.2   227  THR227      0.2287
     69  O         60.0210  -60.9330  -30.0060 O.2   227  THR227     -0.2866
     70  CB        60.0860  -59.8910  -27.0960 C.3   227  THR227      0.1770
     71  OG1       60.3000  -60.0770  -25.6890 O.3   227  THR227     -0.2211
     72  CG2       59.1740  -58.6810  -27.3090 C.3   227  THR227      0.0375
     73  N         56.6910  -62.6920  -24.5510 N.3   251  GLU251     -0.1245
     74  CA        56.0360  -61.3990  -24.5220 C.3   251  GLU251      0.1567
     75  C         55.4530  -61.1490  -25.9140 C.2   251  GLU251      0.2260
     76  O         56.1960  -60.8620  -26.8500 O.2   251  GLU251     -0.2867
     77  CB        57.0580  -60.3140  -24.1700 C.3   251  GLU251      0.0388
     78  CG        57.6200  -60.4360  -22.7690 C.3   251  GLU251      0.1160
     79  CD        56.6010  -60.0270  -21.7040 C.2   251  GLU251      0.3649
     80  OE1       55.6430  -59.2970  -22.0460 O.co2 251  GLU251     -0.2457
     81  OE2       56.7550  -60.4340  -20.5280 O.co2 251  GLU251     -0.2457
     82  N         54.1950  -50.1560  -30.2550 N.3   284  VAL284     -0.1231
     83  CA        54.3540  -50.5880  -28.8690 C.3   284  VAL284      0.1692
     84  C         53.2960  -51.6480  -28.5950 C.2   284  VAL284      0.2592
     85  O         52.1160  -51.4260  -28.8560 O.2   284  VAL284     -0.2718
     86  CB        54.1370  -49.4240  -27.8890 C.3   284  VAL284      0.0266
     87  CG1       54.5950  -49.8150  -26.4770 C.3   284  VAL284      0.0020
     88  CG2       54.8840  -48.1880  -28.3580 C.3   284  VAL284      0.0020
     89  N         53.7170  -52.7990  -28.0830 N.am  285  ALA285     -0.1966
     90  CA        52.8140  -53.9300  -27.9000 C.3   285  ALA285      0.1728
     91  C         51.6280  -53.6190  -26.9690 C.2   285  ALA285      0.2616
     92  O         50.5030  -54.0130  -27.2440 O.2   285  ALA285     -0.2715
     93  CB        53.5900  -55.1610  -27.4190 C.3   285  ALA285      0.0334
     94  N         51.8870  -52.8890  -25.8910 N.am  286  THR286     -0.1951
     95  CA        50.8650  -52.5780  -24.8920 C.3   286  THR286      0.1897
     96  C         49.9880  -51.3840  -25.2690 C.2   286  THR286      0.2313
     97  O         49.2360  -50.8800  -24.4350 O.2   286  THR286     -0.2863
     98  CB        51.5170  -52.1940  -23.5640 C.3   286  THR286      0.1794
     99  OG1       52.3810  -51.0810  -23.7990 O.3   286  THR286     -0.2208
    100  CG2       52.3150  -53.3580  -22.9580 C.3   286  THR286      0.0378
    101  N         51.2830  -46.5970  -20.0200 N.3   444  GLY444     -0.1210
    102  CA        52.5820  -46.7470  -20.6550 C.3   444  GLY444      0.1956
    103  C         53.7710  -46.9400  -19.7410 C.2   444  GLY444      0.2612
    104  O         54.7400  -47.5540  -20.1380 O.2   444  GLY444     -0.2717
    105  N         53.6960  -46.4420  -18.5120 N.am  445  GLU445     -0.1965
    106  CA        54.8110  -46.5930  -17.6020 C.3   445  GLU445      0.1733
    107  C         55.0070  -48.0480  -17.1920 C.2   445  GLU445      0.2617
    108  O         54.0540  -48.7550  -16.8750 O.2   445  GLU445     -0.2715
    109  CB        54.6250  -45.6990  -16.3830 C.3   445  GLU445      0.0429
    110  CG        55.8270  -45.6070  -15.4910 C.3   445  GLU445      0.1163
    111  CD        55.5570  -44.7520  -14.2660 C.2   445  GLU445      0.3649
    112  OE1       54.5560  -43.9970  -14.2860 O.co2 445  GLU445     -0.2457
    113  OE2       56.3420  -44.8340  -13.2950 O.co2 445  GLU445     -0.2457
    114  N         56.2570  -48.4920  -17.1940 N.am  446  SER446     -0.1936
    115  CA        56.5500  -49.8840  -16.9170 C.3   446  SER446      0.2040
    116  C         57.7390  -50.0000  -15.9560 C.2   446  SER446      0.2485
    117  O         58.8120  -50.4560  -16.3340 O.2   446  SER446     -0.2729
    118  CB        56.7970  -50.6360  -18.2250 C.3   446  SER446      0.2129
    119  OG        56.7930  -52.0320  -18.0320 O.3   446  SER446     -0.2179
    120  N         57.5290  -49.6070  -14.6870 N.am  447  PRO447     -0.2726
    121  CA        58.5590  -49.6010  -13.6390 C.3   447  PRO447      0.1402
    122  C         59.3040  -50.9300  -13.5370 C.2   447  PRO447      0.2269
    123  O         58.7050  -51.9950  -13.6920 O.2   447  PRO447     -0.2865
    124  CB        57.7490  -49.3870  -12.3550 C.3   447  PRO447      0.0296
    125  CG        56.5000  -48.7540  -12.7700 C.3   447  PRO447      0.0237
    126  CD        56.1960  -49.2940  -14.1460 C.3   447  PRO447      0.0939
    127  N         58.0190  -60.3820  -17.3310 N.3   463  GLU463     -0.1245
    128  CA        59.3160  -59.7300  -17.2520 C.3   463  GLU463      0.1567
    129  C         59.2930  -58.6560  -16.1710 C.2   463  GLU463      0.2260
    130  O         58.2310  -58.1180  -15.8640 O.2   463  GLU463     -0.2867
    131  CB        59.7180  -59.1280  -18.6080 C.3   463  GLU463      0.0388
    132  CG        60.5350  -60.1110  -19.4590 C.3   463  GLU463      0.1160
    133  CD        60.6930  -59.6600  -20.8990 C.2   463  GLU463      0.3649
    134  OE1       60.1620  -58.5780  -21.2240 O.co2 463  GLU463     -0.2457
    135  OE2       61.3460  -60.3820  -21.6990 O.co2 463  GLU463     -0.2457
@<TRIPOS>BOND
     1    15    16    1
     2    16    19    1
     3    16    17    1
     4    19    20    1
     5    17    18    2
     6    17    23   am
     7    20    21    2
     8    20    22   am
     9    82    83    1
    10    69    68    2
    11    23    24    1
    12    68    67    1
    13    83    84    1
    14    83    86    1
    15    85    84    2
    16    24    25    1
    17    24    27    1
    18    84    89   am
    19    25    26    2
    20    88    86    1
    21    89    90    1
    22    29    31   ar
    23    29    28   ar
    24    90    93    1
    25    90    91    1
    26    86    87    1
    27    31    33   ar
    28    51    49    1
    29    67    66    1
    30    67    70    1
    31    72    70    1
    32    27    28    1
    33    92    91    2
    34    28    30   ar
    35    70    71    1
    36    91    94   am
    37    33    34    1
    38    33    32   ar
    39    76    75    2
    40    49    48    1
    41    30    32   ar
    42    48    50    1
    43    48    45    1
    44    75    74    1
    45    94    95    1
    46    35    36    1
    47    96    95    1
    48    96    97    2
    49    44    45    1
    50    44    37   am
    51    45    46    1
    52    95    98    1
    53    46    47    2
    54    73    74    1
    55    74    77    1
    56    36    39    1
    57    36    37    1
    58    77    78    1
    59    39    40    1
    60    37    38    2
    61    99    98    1
    62    42    41    2
    63     5     6    1
    64     5     7    1
    65     5     2    1
    66    98   100    1
    67     1     2    1
    68    41    40    1
    69    41    43   am
    70     3     2    1
    71     3     4    2
    72    78    79    1
    73    80    79   ar
    74    79    81   ar
    75   135   133   ar
    76   134   133   ar
    77   133   132    1
    78    52    53    1
    79    13    12    1
    80   102   101    1
    81   102   103    1
    82    56    57    1
    83    56    53    1
    84    62    64   ar
    85    62    59   ar
    86    64    65   ar
    87    57    59   ar
    88    57    58   ar
    89   104   103    2
    90    59    61   ar
    91    53    54    1
    92    54    55    2
    93    58    60   ar
    94    65    63   ar
    95   103   105   am
    96    61    63   ar
    97    61    60   ar
    98     8     9    1
    99   132   131    1
   100    12    14    1
   101    12     9    1
   102    10     9    1
   103    10    11    2
   104   131   128    1
   105   105   106    1
   106   118   119    1
   107   118   115    1
   108   106   107    1
   109   106   109    1
   110   127   128    1
   111   128   129    1
   112   114   107   am
   113   114   115    1
   114   107   108    2
   115   115   116    1
   116   109   110    1
   117   117   116    2
   118   129   130    2
   119   116   120   am
   120   110   111    1
   121   120   126    1
   122   120   121    1
   123   112   111   ar
   124   111   113   ar
   125   126   125    1
   126   123   122    2
   127   121   122    1
   128   121   124    1
   129   125   124    1
