@<TRIPOS>MOLECULE
tmp/3zqaC01.pdb
 126 121 0 0 0
SMALL
GASTEIGER

@<TRIPOS>ATOM
      1  N         29.9670  -61.8410   16.2630 N.3   103  VAL103     -0.1245
      2  CA        31.3020  -61.2400   16.1680 C.3   103  VAL103      0.1561
      3  C         32.3840  -61.9320   16.9980 C.2   103  VAL103      0.2260
      4  O         33.3660  -62.4470   16.4500 O.2   103  VAL103     -0.2867
      5  CB        31.2970  -59.7440   16.5550 C.3   103  VAL103      0.0252
      6  CG1       32.7190  -59.1930   16.5390 C.3   103  VAL103      0.0019
      7  CG2       30.3920  -58.9450   15.6200 C.3   103  VAL103      0.0019
      8  N         34.7800  -64.3250   14.7750 N.3   107  THR107     -0.1218
      9  CA        36.0480  -63.7420   14.3130 C.3   107  THR107      0.1862
     10  C         37.2480  -64.1720   15.1460 C.2   107  THR107      0.2287
     11  O         38.3800  -64.1770   14.6600 O.2   107  THR107     -0.2866
     12  CB        35.9930  -62.2240   14.2950 C.3   107  THR107      0.1770
     13  OG1       35.8820  -61.7440   15.6370 O.3   107  THR107     -0.2211
     14  CG2       34.7960  -61.7520   13.4730 C.3   107  THR107      0.0375
     15  N         37.2380  -55.8640   26.7540 N.3   152  ASN152     -0.1225
     16  CA        36.1860  -55.5240   25.7910 C.3   152  ASN152      0.1785
     17  C         35.7940  -56.6630   24.8330 C.2   152  ASN152      0.2597
     18  O         34.6300  -56.8010   24.4730 O.2   152  ASN152     -0.2718
     19  CB        36.4740  -54.2050   25.0600 C.3   152  ASN152      0.1169
     20  CG        37.6450  -54.2980   24.0820 C.2   152  ASN152      0.2627
     21  OD1       38.6160  -55.0320   24.2950 O.2   152  ASN152     -0.2716
     22  ND2       37.5630  -53.5220   23.0130 N.am  152  ASN152     -0.0877
     23  N         36.7650  -57.4830   24.4530 N.am  153  TYR153     -0.1976
     24  CA        36.5260  -58.6730   23.6360 C.3   153  TYR153      0.1639
     25  C         37.2930  -59.8200   24.2550 C.2   153  TYR153      0.2290
     26  O         38.2810  -60.2830   23.6800 O.2   153  TYR153     -0.2864
     27  CB        37.0100  -58.4630   22.1940 C.3   153  TYR153      0.0560
     28  CG        36.0720  -57.6180   21.3620 C.ar  153  TYR153     -0.0198
     29  CD1       35.9490  -56.2580   21.5950 C.ar  153  TYR153     -0.0009
     30  CD2       35.3000  -58.1820   20.3580 C.ar  153  TYR153     -0.0009
     31  CE1       35.0930  -55.4810   20.8480 C.ar  153  TYR153      0.0417
     32  CE2       34.4340  -57.4100   19.6080 C.ar  153  TYR153      0.0417
     33  CZ        34.3430  -56.0550   19.8560 C.ar  153  TYR153      0.1957
     34  OH        33.4870  -55.2680   19.1120 O.3   153  TYR153     -0.2866
     35  N         37.6960  -63.3000   22.1000 N.3   156  GLN156     -0.1231
     36  CA        38.3310  -62.9660   20.8270 C.3   156  GLN156      0.1698
     37  C         39.8320  -62.6260   21.0290 C.2   156  GLN156      0.2592
     38  O         40.7130  -63.1630   20.3330 O.2   156  GLN156     -0.2718
     39  CB        37.5910  -61.8070   20.1760 C.3   156  GLN156      0.0381
     40  CG        37.9380  -61.5740   18.7220 C.3   156  GLN156      0.0905
     41  CD        37.9550  -60.1020   18.4170 C.2   156  GLN156      0.2608
     42  OE1       38.6670  -59.3430   19.0720 O.2   156  GLN156     -0.2717
     43  NE2       37.1540  -59.6780   17.4450 N.am  156  GLN156     -0.0878
     44  N         40.1210  -61.7620   22.0040 N.am  157  ILE157     -0.1980
     45  CA        41.5030  -61.4010   22.3180 C.3   157  ILE157      0.1595
     46  C         42.3370  -62.6230   22.6840 C.2   157  ILE157      0.2287
     47  O         43.4900  -62.7340   22.2720 O.2   157  ILE157     -0.2864
     48  CB        41.6050  -60.3410   23.4350 C.3   157  ILE157      0.0276
     49  CG1       41.0450  -59.0000   22.9510 C.3   157  ILE157      0.0022
     50  CG2       43.0660  -60.1820   23.8870 C.3   157  ILE157      0.0022
     51  CD1       40.8510  -57.9660   24.0660 C.3   157  ILE157      0.0001
     52  N         42.9490  -64.4100   19.3620 N.3   160  TRP160     -0.1241
     53  CA        43.9100  -63.7060   18.5100 C.3   160  TRP160      0.1605
     54  C         45.3410  -63.7980   19.0430 C.2   160  TRP160      0.2264
     55  O         46.2950  -63.7720   18.2670 O.2   160  TRP160     -0.2867
     56  CB        43.5030  -62.2430   18.3150 C.3   160  TRP160      0.0550
     57  CG        42.3220  -62.0710   17.4240 C.ar  160  TRP160      0.0003
     58  CD1       41.3980  -63.0260   17.0920 C.ar  160  TRP160      0.0946
     59  CD2       41.9070  -60.8640   16.7640 C.ar  160  TRP160      0.0152
     60  NE1       40.4440  -62.4880   16.2620 N.ar  160  TRP160     -0.2442
     61  CE2       40.7300  -61.1660   16.0440 C.ar  160  TRP160      0.0810
     62  CE3       42.4250  -59.5690   16.7000 C.ar  160  TRP160      0.0012
     63  CZ2       40.0590  -60.2180   15.2670 C.ar  160  TRP160      0.0191
     64  CZ3       41.7480  -58.6180   15.9360 C.ar  160  TRP160      0.0001
     65  CH2       40.5810  -58.9520   15.2270 C.ar  160  TRP160      0.0015
     66  N         47.4110  -56.3940   25.6570 N.3   227  THR227     -0.1218
     67  CA        46.3810  -55.5270   25.1120 C.3   227  THR227      0.1862
     68  C         45.7970  -54.7590   26.2840 C.2   227  THR227      0.2287
     69  O         45.4490  -55.3480   27.3080 O.2   227  THR227     -0.2866
     70  CB        45.2980  -56.3370   24.3570 C.3   227  THR227      0.1770
     71  OG1       45.8970  -57.0120   23.2370 O.3   227  THR227     -0.2211
     72  CG2       44.1820  -55.4340   23.8670 C.3   227  THR227      0.0375
     73  N         35.6810  -50.0480   21.7810 N.3   284  VAL284     -0.1231
     74  CA        36.5850  -50.6300   20.7970 C.3   284  VAL284      0.1692
     75  C         37.7410  -49.6610   20.5990 C.2   284  VAL284      0.2592
     76  O         37.5050  -48.4880   20.3000 O.2   284  VAL284     -0.2718
     77  CB        35.8630  -50.8450   19.4510 C.3   284  VAL284      0.0266
     78  CG1       36.7140  -51.7020   18.5130 C.3   284  VAL284      0.0020
     79  CG2       34.4840  -51.4820   19.6860 C.3   284  VAL284      0.0020
     80  N         38.9740  -50.1460   20.7780 N.am  285  ALA285     -0.1966
     81  CA        40.1720  -49.3060   20.6330 C.3   285  ALA285      0.1728
     82  C         40.2790  -48.5750   19.2850 C.2   285  ALA285      0.2616
     83  O         40.7020  -47.4220   19.2400 O.2   285  ALA285     -0.2715
     84  CB        41.4340  -50.1100   20.8970 C.3   285  ALA285      0.0334
     85  N         39.8880  -49.2400   18.2000 N.am  286  THR286     -0.1951
     86  CA        40.0420  -48.6790   16.8530 C.3   286  THR286      0.1897
     87  C         38.9270  -47.7090   16.4730 C.2   286  THR286      0.2313
     88  O         38.8110  -47.3200   15.3090 O.2   286  THR286     -0.2863
     89  CB        40.0690  -49.7830   15.7830 C.3   286  THR286      0.1794
     90  OG1       38.8590  -50.5570   15.8770 O.3   286  THR286     -0.2208
     91  CG2       41.2980  -50.6950   15.9650 C.3   286  THR286      0.0378
     92  N         35.9670  -50.6410   10.7910 N.3   444  GLY444     -0.1210
     93  CA        35.7890  -51.6970   11.7690 C.3   444  GLY444      0.1956
     94  C         36.1950  -53.0900   11.3540 C.2   444  GLY444      0.2612
     95  O         36.6000  -53.8990   12.1830 O.2   444  GLY444     -0.2717
     96  N         36.0880  -53.4020   10.0710 N.am  445  GLU445     -0.1965
     97  CA        36.4110  -54.7590    9.6500 C.3   445  GLU445      0.1733
     98  C         37.9110  -55.0520    9.8700 C.2   445  GLU445      0.2617
     99  O         38.7730  -54.1950    9.6390 O.2   445  GLU445     -0.2715
    100  CB        35.9610  -54.9880    8.2090 C.3   445  GLU445      0.0429
    101  CG        36.1220  -56.4100    7.7290 C.3   445  GLU445      0.1163
    102  CD        35.5690  -56.5980    6.3250 C.2   445  GLU445      0.3649
    103  OE1       34.9440  -55.6380    5.8120 O.co2 445  GLU445     -0.2457
    104  OE2       35.7580  -57.6960    5.7460 O.co2 445  GLU445     -0.2457
    105  N         38.2080  -56.2560   10.3400 N.am  446  SER446     -0.1936
    106  CA        39.5580  -56.6420   10.7270 C.3   446  SER446      0.2040
    107  C         39.8700  -58.0790   10.2640 C.2   446  SER446      0.2485
    108  O         39.9830  -58.9960   11.0800 O.2   446  SER446     -0.2729
    109  CB        39.7090  -56.5220   12.2420 C.3   446  SER446      0.2129
    110  OG        41.0630  -56.5180   12.6450 O.3   446  SER446     -0.2179
    111  N         40.0060  -58.2760    8.9390 N.am  447  PRO447     -0.2726
    112  CA        40.2400  -59.6040    8.3630 C.3   447  PRO447      0.1402
    113  C         41.3850  -60.3540    9.0400 C.2   447  PRO447      0.2269
    114  O         42.4050  -59.7800    9.4140 O.2   447  PRO447     -0.2865
    115  CB        40.6120  -59.2900    6.9030 C.3   447  PRO447      0.0296
    116  CG        39.9230  -58.0080    6.6110 C.3   447  PRO447      0.0237
    117  CD        39.9220  -57.2260    7.9060 C.3   447  PRO447      0.0939
    118  N         48.9940  -57.7490   15.2120 N.3   463  GLU463     -0.1245
    119  CA        48.2600  -59.0100   15.3020 C.3   463  GLU463      0.1567
    120  C         47.6380  -59.3600   13.9490 C.2   463  GLU463      0.2260
    121  O         47.3530  -58.4650   13.1520 O.2   463  GLU463     -0.2867
    122  CB        47.2200  -58.9840   16.4410 C.3   463  GLU463      0.0388
    123  CG        47.8700  -59.1400   17.8170 C.3   463  GLU463      0.1160
    124  CD        46.8860  -59.0680   18.9880 C.2   463  GLU463      0.3649
    125  OE1       45.7560  -58.5540   18.8230 O.co2 463  GLU463     -0.2457
    126  OE2       47.2640  -59.5200   20.0880 O.co2 463  GLU463     -0.2457
@<TRIPOS>BOND
     1   104   102   ar
     2   103   102   ar
     3   102   101    1
     4   116   115    1
     5   116   117    1
     6   115   112    1
     7   101   100    1
     8   117   111    1
     9   100    97    1
    10   112   111    1
    11   112   113    1
    12   111   107   am
    13   113   114    2
    14    99    98    2
    15    97    98    1
    16    97    96    1
    17    98   105   am
    18    96    94   am
    19   107   106    1
    20   107   108    2
    21   105   106    1
    22   106   109    1
    23    92    93    1
    24    94    93    1
    25    94    95    2
    26   109   110    1
    27   121   120    2
    28    14    12    1
    29   120   119    1
    30    12     9    1
    31    12    13    1
    32     9     8    1
    33     9    10    1
    34    11    10    2
    35   118   119    1
    36    65    63   ar
    37    65    64   ar
    38    63    61   ar
    39   119   122    1
    40    88    87    2
    41     7     5    1
    42    89    90    1
    43    89    91    1
    44    89    86    1
    45    64    62   ar
    46    61    60   ar
    47    61    59   ar
    48     2     1    1
    49     2     5    1
    50     2     3    1
    51    60    58   ar
    52   122   123    1
    53     4     3    2
    54    87    86    1
    55     6     5    1
    56    62    59   ar
    57    59    57   ar
    58    86    85    1
    59    58    57   ar
    60    57    56    1
    61    43    41   am
    62   123   124    1
    63    85    82   am
    64    55    54    2
    65    56    53    1
    66    41    40    1
    67    41    42    2
    68    53    54    1
    69    53    52    1
    70    78    77    1
    71    40    39    1
    72   125   124   ar
    73   124   126   ar
    74    34    33    1
    75    83    82    2
    76    82    81    1
    77    77    79    1
    78    77    74    1
    79    32    33   ar
    80    32    30   ar
    81    33    31   ar
    82    39    36    1
    83    76    75    2
    84    38    37    2
    85    30    28   ar
    86    75    80   am
    87    75    74    1
    88    81    80    1
    89    81    84    1
    90    74    73    1
    91    36    37    1
    92    36    35    1
    93    31    29   ar
    94    37    44   am
    95    28    29   ar
    96    28    27    1
    97    44    45    1
    98    27    24    1
    99    47    46    2
   100    45    46    1
   101    45    48    1
   102    49    48    1
   103    49    51    1
   104    22    20   am
   105    71    70    1
   106    48    50    1
   107    24    25    1
   108    24    23    1
   109    26    25    2
   110    72    70    1
   111    20    21    2
   112    20    19    1
   113    70    67    1
   114    23    17   am
   115    18    17    2
   116    17    16    1
   117    19    16    1
   118    67    66    1
   119    67    68    1
   120    16    15    1
   121    68    69    2
