@<TRIPOS>MOLECULE
tmp/3zqeB00.pdb
 113 105 0 0 0
SMALL
GASTEIGER

@<TRIPOS>ATOM
      1  N          3.9340   24.4850   20.8770 N.3    14  GLN14      -0.1245
      2  CA         3.3150   24.4970   19.5640 C.3    14  GLN14       0.1566
      3  C          3.7910   25.7310   18.8030 C.2    14  GLN14       0.2260
      4  O          4.0570   25.6690   17.6040 O.2    14  GLN14      -0.2867
      5  CB         1.7970   24.5070   19.7080 C.3    14  GLN14       0.0367
      6  CG         1.0590   24.4600   18.3950 C.3    14  GLN14       0.0905
      7  CD        -0.4170   24.1990   18.5790 C.2    14  GLN14       0.2608
      8  OE1       -0.8200   23.1030   18.9750 O.2    14  GLN14      -0.2717
      9  NE2       -1.2360   25.2080   18.3010 N.am   14  GLN14      -0.0878
     10  N          7.4100   25.0490   17.9010 N.3    17  VAL17      -0.1231
     11  CA         7.3840   24.0670   16.8200 C.3    17  VAL17       0.1692
     12  C          7.1170   24.7550   15.4930 C.2    17  VAL17       0.2592
     13  O          7.9050   24.6520   14.5510 O.2    17  VAL17      -0.2718
     14  CB         6.2780   23.0210   17.0270 C.3    17  VAL17       0.0266
     15  CG1        6.2870   22.0300   15.8710 C.3    17  VAL17       0.0020
     16  CG2        6.4750   22.3030   18.3470 C.3    17  VAL17       0.0020
     17  N          5.9930   25.4560   15.4180 N.am   18  THR18      -0.1953
     18  CA         5.6440   26.1610   14.1950 C.3    18  THR18       0.1897
     19  C          6.7310   27.1720   13.8470 C.2    18  THR18       0.2313
     20  O          6.9610   27.4700   12.6770 O.2    18  THR18      -0.2863
     21  CB         4.2890   26.8850   14.3310 C.3    18  THR18       0.1794
     22  OG1        3.2240   25.9270   14.2110 O.3    18  THR18      -0.2208
     23  CG2        4.1430   27.9510   13.2550 C.3    18  THR18       0.0378
     24  N          9.9240   25.4100   12.4340 N.3    21  LEU21      -0.1245
     25  CA         9.5590   24.9550   11.0950 C.3    21  LEU21       0.1561
     26  C          9.6520   26.0530   10.0510 C.2    21  LEU21       0.2260
     27  O         10.1020   25.8140    8.9240 O.2    21  LEU21      -0.2867
     28  CB         8.1330   24.3870   11.0850 C.3    21  LEU21       0.0270
     29  CG         7.6480   23.8640    9.7230 C.3    21  LEU21       0.0019
     30  CD1        8.5300   22.6980    9.2950 C.3    21  LEU21       0.0001
     31  CD2        6.1900   23.4220    9.7980 C.3    21  LEU21       0.0001
     32  N         14.1350   21.9570   14.7550 N.3    37  TYR37      -0.1241
     33  CA        12.7190   21.7180   14.4990 C.3    37  TYR37       0.1605
     34  C         12.3220   20.3300   15.0190 C.2    37  TYR37       0.2264
     35  O         11.3550   20.1950   15.7650 O.2    37  TYR37      -0.2867
     36  CB        12.4210   21.8070   13.0040 C.3    37  TYR37       0.0534
     37  CG        11.1210   21.1270   12.6220 C.ar   37  TYR37      -0.0201
     38  CD1        9.8920   21.7710   12.7850 C.ar   37  TYR37      -0.0009
     39  CD2       11.1170   19.8120   12.1570 C.ar   37  TYR37      -0.0009
     40  CE1        8.6920   21.1180   12.4970 C.ar   37  TYR37       0.0417
     41  CE2        9.9230   19.1510   11.8690 C.ar   37  TYR37       0.0417
     42  CZ         8.7190   19.8080   12.0410 C.ar   37  TYR37       0.1957
     43  OH         7.5440   19.1560   11.7510 O.3    37  TYR37      -0.2866
     44  N          9.5230   19.7300   18.0720 N.3    41  LEU41      -0.1245
     45  CA         8.3360   18.9340   17.7710 C.3    41  LEU41       0.1561
     46  C          8.2720   17.7260   18.6800 C.2    41  LEU41       0.2260
     47  O          7.1970   17.3470   19.1430 O.2    41  LEU41      -0.2867
     48  CB         8.3560   18.4630   16.3130 C.3    41  LEU41       0.0270
     49  CG         7.3680   17.3490   15.9270 C.3    41  LEU41       0.0019
     50  CD1        5.9300   17.8000   16.1700 C.3    41  LEU41       0.0001
     51  CD2        7.5730   16.9930   14.4600 C.3    41  LEU41       0.0001
     52  N          7.0470   19.0050   22.0890 N.3    44  TYR44      -0.1241
     53  CA         5.6200   19.3100   22.0630 C.3    44  TYR44       0.1605
     54  C          4.8710   18.0050   22.2160 C.2    44  TYR44       0.2264
     55  O          4.1080   17.8060   23.1500 O.2    44  TYR44      -0.2867
     56  CB         5.2310   19.9450   20.7240 C.3    44  TYR44       0.0534
     57  CG         3.7350   19.9660   20.4780 C.ar   44  TYR44      -0.0201
     58  CD1        2.9060   20.8450   21.1760 C.ar   44  TYR44      -0.0009
     59  CD2        3.1440   19.1010   19.5480 C.ar   44  TYR44      -0.0009
     60  CE1        1.5240   20.8690   20.9540 C.ar   44  TYR44       0.0417
     61  CE2        1.7590   19.1140   19.3190 C.ar   44  TYR44       0.0417
     62  CZ         0.9570   20.0050   20.0280 C.ar   44  TYR44       0.1957
     63  OH        -0.4040   20.0430   19.8150 O.3    44  TYR44      -0.2866
     64  N          2.4810   17.2140   25.0680 N.3    48  ARG48      -0.1245
     65  CA         1.0570   17.3400   24.7850 C.3    48  ARG48       0.1563
     66  C          0.4200   16.0100   25.1440 C.2    48  ARG48       0.2260
     67  O         -0.6700   15.9550   25.7100 O.2    48  ARG48      -0.2867
     68  CB         0.8020   17.6360   23.3080 C.3    48  ARG48       0.0307
     69  CG        -0.6260   18.0860   23.0530 C.3    48  ARG48       0.0489
     70  CD        -1.0920   17.7600   21.6490 C.3    48  ARG48       0.2205
     71  NE        -2.4920   18.1310   21.4540 N.pl3  48  ARG48      -0.0865
     72  CZ        -3.2160   17.7850   20.3940 C.cat  48  ARG48       0.5346
     73  NH1       -2.6720   17.0530   19.4280 N.pl3  48  ARG48       0.1354
     74  NH2       -4.4840   18.1700   20.2980 N.pl3  48  ARG48       0.1354
     75  N         -4.1760   13.7920   10.8620 N.3   138  ALA138     -0.1245
     76  CA        -3.3560   14.7490   11.6120 C.3   138  ALA138      0.1562
     77  C         -2.4150   14.0840   12.6070 C.2   138  ALA138      0.2260
     78  O         -1.2600   14.4940   12.7420 O.2   138  ALA138     -0.2867
     79  CB        -4.2610   15.7600   12.3390 C.3   138  ALA138      0.0290
     80  N          0.2830   12.1410   10.5170 N.3   141  ARG141     -0.1231
     81  CA         1.2900   13.0430    9.9650 C.3   141  ARG141      0.1694
     82  C          2.2210   13.5840   11.0490 C.2   141  ARG141      0.2591
     83  O          3.4210   13.7910   10.8130 O.2   141  ARG141     -0.2718
     84  CB         0.6220   14.2010    9.2250 C.3   141  ARG141      0.0321
     85  CG         0.0340   13.8010    7.8780 C.3   141  ARG141      0.0489
     86  CD        -0.7990   14.9250    7.3080 C.3   141  ARG141      0.2205
     87  NE        -1.4710   14.5630    6.0630 N.pl3 141  ARG141     -0.0865
     88  CZ        -0.8430   14.2820    4.9270 C.cat 141  ARG141      0.5346
     89  NH1        0.4840   14.3110    4.8740 N.pl3 141  ARG141      0.1354
     90  NH2       -1.5450   14.0090    3.8300 N.pl3 141  ARG141      0.1354
     91  N          1.6700   13.8100   12.2370 N.am  142  GLN142     -0.1979
     92  CA         2.4810   14.3070   13.3360 C.3   142  GLN142      0.1601
     93  C          3.5580   13.2690   13.6650 C.2   142  GLN142      0.2287
     94  O          4.7480   13.5940   13.7540 O.2   142  GLN142     -0.2864
     95  CB         1.6110   14.5800   14.5670 C.3   142  GLN142      0.0394
     96  CG         2.4120   15.0700   15.7740 C.3   142  GLN142      0.0908
     97  CD         1.5610   15.2600   17.0140 C.2   142  GLN142      0.2608
     98  OE1        0.7290   16.1700   17.0810 O.2   142  GLN142     -0.2717
     99  NE2        1.7590   14.3920   18.0020 N.am  142  GLN142     -0.0878
    100  N          4.4910   10.8890   11.7560 N.3   144  LEU144     -0.1231
    101  CA         5.2980   10.7560   10.5580 C.3   144  LEU144      0.1693
    102  C          6.4810   11.7320   10.6630 C.2   144  LEU144      0.2592
    103  O          7.6430   11.3350   10.5200 O.2   144  LEU144     -0.2718
    104  CB         4.4620   11.0840    9.3200 C.3   144  LEU144      0.0284
    105  CG         5.2230   10.8880    8.0120 C.3   144  LEU144      0.0019
    106  CD1        5.5430    9.4060    7.8330 C.3   144  LEU144      0.0001
    107  CD2        4.3870   11.4210    6.8610 C.3   144  LEU144      0.0001
    108  N          6.1900   13.0040   10.9270 N.am  145  SER145     -0.1952
    109  CA         7.2590   14.0000   11.0480 C.3   145  SER145      0.1924
    110  C          8.0640   13.7740   12.3230 C.2   145  SER145      0.2314
    111  O          9.2850   13.9330   12.3410 O.2   145  SER145     -0.2863
    112  CB         6.6910   15.4170   11.0520 C.3   145  SER145      0.2116
    113  OG         7.7500   16.3660   11.1230 O.3   145  SER145     -0.2180
@<TRIPOS>BOND
     1    90    88    1
     2    89    88    1
     3    88    87    2
     4    87    86    1
     5   107   105    1
     6    86    85    1
     7   106   105    1
     8    85    84    1
     9   105   104    1
    10    27    26    2
    11    84    81    1
    12    30    29    1
    13   104   101    1
    14    29    31    1
    15    29    28    1
    16    81    80    1
    17    81    82    1
    18    26    25    1
    19   103   102    2
    20   101   102    1
    21   101   100    1
    22   102   108   am
    23    83    82    2
    24    75    76    1
    25   108   109    1
    26   109   112    1
    27   109   110    1
    28    82    91   am
    29   112   113    1
    30    28    25    1
    31    25    24    1
    32    76    79    1
    33    76    77    1
    34    43    42    1
    35    41    42   ar
    36    41    39   ar
    37    42    40   ar
    38    39    37   ar
    39    91    92    1
    40   110   111    2
    41    40    38   ar
    42    77    78    2
    43    37    38   ar
    44    37    36    1
    45    20    19    2
    46    36    33    1
    47    23    21    1
    48    92    93    1
    49    92    95    1
    50    93    94    2
    51    19    18    1
    52    18    21    1
    53    18    17    1
    54    22    21    1
    55    51    49    1
    56    33    32    1
    57    33    34    1
    58    13    12    2
    59    95    96    1
    60    34    35    2
    61    17    12   am
    62    12    11    1
    63    96    97    1
    64    15    14    1
    65    49    50    1
    66    49    48    1
    67    48    45    1
    68    11    14    1
    69    11    10    1
    70    97    98    2
    71    97    99   am
    72    14    16    1
    73     4     3    2
    74    45    44    1
    75    45    46    1
    76     9     7   am
    77     6     7    1
    78     6     5    1
    79     7     8    2
    80    46    47    2
    81     3     2    1
    82    61    59   ar
    83    61    62   ar
    84    73    72    1
    85    59    57   ar
    86     2     5    1
    87     2     1    1
    88    63    62    1
    89    62    60   ar
    90    74    72    1
    91    72    71    2
    92    57    56    1
    93    57    58   ar
    94    56    53    1
    95    60    58   ar
    96    71    70    1
    97    70    69    1
    98    53    52    1
    99    53    54    1
   100    54    55    2
   101    69    68    1
   102    68    65    1
   103    65    64    1
   104    65    66    1
   105    66    67    2
