@<TRIPOS>MOLECULE
tmp/3zqfA00.pdb
 171 164 0 0 0
SMALL
GASTEIGER

@<TRIPOS>ATOM
      1  N         18.5150   31.9970   24.3920 N.3    55  ILE55      -0.1245
      2  CA        17.3060   31.9860   25.1430 C.3    55  ILE55       0.1561
      3  C         16.7690   30.5810   25.3580 C.2    55  ILE55       0.2260
      4  O         16.2930   30.2670   26.4370 O.2    55  ILE55      -0.2867
      5  CB        16.2440   32.8660   24.4910 C.3    55  ILE55       0.0252
      6  CG1       16.6990   34.3240   24.4770 C.3    55  ILE55       0.0019
      7  CG2       14.9020   32.7360   25.2320 C.3    55  ILE55       0.0019
      8  CD1       17.4560   34.7890   25.7840 C.3    55  ILE55       0.0001
      9  N         18.6360   28.5820   27.9770 N.3    58  LEU58      -0.1245
     10  CA        18.2800   29.0810   29.2930 C.3    58  LEU58       0.1561
     11  C         16.8810   28.6170   29.6990 C.2    58  LEU58       0.2260
     12  O         16.6420   28.2970   30.8550 O.2    58  LEU58      -0.2867
     13  CB        18.3630   30.6020   29.3560 C.3    58  LEU58       0.0270
     14  CG        19.7370   31.2480   29.3690 C.3    58  LEU58       0.0019
     15  CD1       19.5960   32.7350   29.5530 C.3    58  LEU58       0.0001
     16  CD2       20.5750   30.6990   30.4550 C.3    58  LEU58       0.0001
     17  N         17.2870   26.9700   33.1490 N.3    62  HIS62      -0.1241
     18  CA        17.0670   28.0420   34.1060 C.3    62  HIS62       0.1621
     19  C         15.6180   27.8510   34.6110 C.2    62  HIS62       0.2264
     20  O         14.6040   28.3680   34.1170 O.2    62  HIS62      -0.2867
     21  CB        17.4440   29.4270   33.5120 C.3    62  HIS62       0.0745
     22  CG        18.4600   30.1920   34.3190 C.ar   62  HIS62       0.0817
     23  ND1       19.3360   29.5890   35.2000 N.ar   62  HIS62      -0.2268
     24  CD2       18.7510   31.5150   34.3590 C.ar   62  HIS62       0.1154
     25  CE1       20.1040   30.5080   35.7620 C.ar   62  HIS62       0.1986
     26  NE2       19.7740   31.6850   35.2650 N.ar   62  HIS62      -0.2212
     27  N         21.2760   29.1570   41.6410 N.3    74  ASN74      -0.1240
     28  CA        21.1760   30.0170   40.4930 C.3    74  ASN74       0.1653
     29  C         22.3660   29.8040   39.6310 C.2    74  ASN74       0.2266
     30  O         22.2270   29.3640   38.5180 O.2    74  ASN74      -0.2867
     31  CB        21.1300   31.4570   40.9070 C.3    74  ASN74       0.1155
     32  CG        20.7200   32.3150   39.7890 C.2    74  ASN74       0.2627
     33  OD1       21.3960   33.3020   39.4530 O.2    74  ASN74      -0.2716
     34  ND2       19.5860   31.9400   39.1700 N.am   74  ASN74      -0.0877
     35  N         22.5200   28.0580   35.8020 N.3    78  PHE78      -0.1241
     36  CA        23.0730   28.8180   34.6950 C.3    78  PHE78       0.1605
     37  C         24.2120   27.9460   34.0610 C.2    78  PHE78       0.2264
     38  O         24.1480   27.5700   32.8580 O.2    78  PHE78      -0.2867
     39  CB        23.5070   30.1720   35.2400 C.3    78  PHE78       0.0534
     40  CG        24.1650   31.0550   34.2560 C.ar   78  PHE78      -0.0203
     41  CD1       23.5240   31.4480   33.0950 C.ar   78  PHE78      -0.0042
     42  CD2       25.4490   31.5840   34.5260 C.ar   78  PHE78      -0.0042
     43  CE1       24.1660   32.3440   32.1750 C.ar   78  PHE78      -0.0003
     44  CE2       26.1130   32.5070   33.6140 C.ar   78  PHE78      -0.0003
     45  CZ        25.5030   32.8690   32.4390 C.ar   78  PHE78      -0.0000
     46  N         26.0280   32.3590   24.3860 N.3    92  HIS92      -0.1226
     47  CA        25.3000   33.2020   25.2770 C.3    92  HIS92       0.1752
     48  C         25.8160   34.6120   25.3130 C.2    92  HIS92       0.2596
     49  O         25.0630   35.5550   25.5830 O.2    92  HIS92      -0.2718
     50  CB        25.3330   32.6110   26.6690 C.3    92  HIS92       0.0759
     51  CG        24.7510   33.5160   27.7020 C.ar   92  HIS92       0.0818
     52  ND1       25.5310   34.3390   28.4980 N.ar   92  HIS92      -0.2268
     53  CD2       23.4620   33.7820   28.0210 C.ar   92  HIS92       0.1154
     54  CE1       24.7480   35.0650   29.2750 C.ar   92  HIS92       0.1986
     55  NE2       23.4880   34.7480   29.0010 N.ar   92  HIS92      -0.2212
     56  N         27.1060   34.7620   25.0510 N.am   93  LEU93      -0.1966
     57  CA        27.7250   36.0600   25.0040 C.3    93  LEU93       0.1728
     58  C         27.0540   37.0310   24.0570 C.2    93  LEU93       0.2617
     59  O         26.7300   36.7150   22.9440 O.2    93  LEU93      -0.2715
     60  CB        29.1920   35.9150   24.5980 C.3    93  LEU93       0.0311
     61  CG        30.1360   35.5530   25.7570 C.3    93  LEU93       0.0022
     62  CD1       31.5680   35.6000   25.2700 C.3    93  LEU93       0.0001
     63  CD2       29.9360   36.4640   26.9770 C.3    93  LEU93       0.0001
     64  N         26.8600   38.2480   24.5010 N.am   94  GLY94      -0.1940
     65  CA        26.3580   39.2550   23.6050 C.3    94  GLY94       0.2014
     66  C         24.9840   38.9190   23.0860 C.2    94  GLY94       0.2639
     67  O         24.6600   39.2990   21.9770 O.2    94  GLY94      -0.2714
     68  N         24.1880   38.2080   23.8800 N.am   95  THR95      -0.1950
     69  CA        22.7680   38.0990   23.6490 C.3    95  THR95       0.1897
     70  C         22.1070   39.2760   24.2790 C.2    95  THR95       0.2313
     71  O         22.4500   39.7090   25.3670 O.2    95  THR95      -0.2863
     72  CB        22.2110   36.8880   24.3390 C.3    95  THR95       0.1794
     73  OG1       22.8790   35.7620   23.8200 O.3    95  THR95      -0.2208
     74  CG2       20.7120   36.7120   24.0570 C.3    95  THR95       0.0378
     75  N         18.9980   40.7730   26.1670 N.3    97  PRO97      -0.2116
     76  CA        18.0080   40.3350   27.1780 C.3    97  PRO97       0.1372
     77  C         16.5000   40.4780   26.8290 C.2    97  PRO97       0.2244
     78  O         16.1010   41.4460   26.2260 O.2    97  PRO97      -0.2868
     79  CB        18.3470   41.2150   28.3880 C.3    97  PRO97       0.0268
     80  CG        19.1990   42.3310   27.8430 C.3    97  PRO97       0.0207
     81  CD        19.9360   41.7690   26.7060 C.3    97  PRO97       0.0892
     82  N         11.0470   39.1200   30.0030 N.3   100  LYS100     -0.1231
     83  CA        10.9620   38.2990   31.2010 C.3   100  LYS100      0.1693
     84  C         12.2840   38.4560   31.9910 C.2   100  LYS100      0.2592
     85  O         12.3000   38.5440   33.2390 O.2   100  LYS100     -0.2718
     86  CB        10.6180   36.8340   30.8300 C.3   100  LYS100      0.0285
     87  CG        11.8250   35.8310   30.6500 C.3   100  LYS100      0.0035
     88  CD        11.3740   34.4050   30.2160 C.3   100  LYS100      0.0206
     89  CE         9.9270   34.0510   30.7100 C.3   100  LYS100      0.1093
     90  NZ         9.2380   32.9340   29.9710 N.3   100  LYS100     -0.1314
     91  N         13.3930   38.5590   31.2720 N.am  101  GLN101     -0.1966
     92  CA        14.6560   38.5550   31.9870 C.3   101  GLN101      0.1733
     93  C         14.8930   39.8050   32.7980 C.2   101  GLN101      0.2616
     94  O         15.4730   39.7510   33.8650 O.2   101  GLN101     -0.2715
     95  CB        15.7990   38.2700   31.0700 C.3   101  GLN101      0.0408
     96  CG        15.6750   36.9330   30.4440 C.3   101  GLN101      0.0908
     97  CD        16.8150   36.7120   29.5420 C.2   101  GLN101      0.2608
     98  OE1       16.9670   37.4130   28.5310 O.2   101  GLN101     -0.2717
     99  NE2       17.6600   35.7610   29.8950 N.am  101  GLN101     -0.0878
    100  N         14.4120   40.9330   32.3330 N.am  102  TYR102     -0.1974
    101  CA        14.4530   42.0670   33.1950 C.3   102  TYR102      0.1639
    102  C         13.5020   41.9370   34.3740 C.2   102  TYR102      0.2290
    103  O         13.7900   42.4250   35.4700 O.2   102  TYR102     -0.2864
    104  CB        14.1010   43.2690   32.3970 C.3   102  TYR102      0.0560
    105  CG        15.2570   43.7760   31.6220 C.ar  102  TYR102     -0.0198
    106  CD1       16.2580   44.4860   32.2650 C.ar  102  TYR102     -0.0009
    107  CD2       15.3640   43.5620   30.2290 C.ar  102  TYR102     -0.0009
    108  CE1       17.3450   45.0010   31.5560 C.ar  102  TYR102      0.0417
    109  CE2       16.4560   44.0670   29.5030 C.ar  102  TYR102      0.0417
    110  CZ        17.4410   44.8080   30.1860 C.ar  102  TYR102      0.1957
    111  OH        18.5470   45.3440   29.5610 O.3   102  TYR102     -0.2866
    112  N         12.6370   39.1470   35.9070 N.3   104  THR104     -0.1203
    113  CA        13.4150   38.3350   36.8070 C.3   104  THR104      0.1994
    114  C         14.5180   39.1490   37.5150 C.2   104  THR104      0.2617
    115  O         14.6660   39.0710   38.7490 O.2   104  THR104     -0.2717
    116  CB        13.9620   37.1470   36.0370 C.3   104  THR104      0.1784
    117  OG1       12.8340   36.4070   35.5830 O.3   104  THR104     -0.2211
    118  CG2       14.8510   36.2580   36.8640 C.3   104  THR104      0.0376
    119  N         15.2620   39.9690   36.7900 N.am  105  LEU105     -0.1979
    120  CA        16.2960   40.6990   37.4770 C.3   105  LEU105      0.1596
    121  C         15.7330   41.5250   38.6230 C.2   105  LEU105      0.2287
    122  O         16.1980   41.4020   39.7670 O.2   105  LEU105     -0.2864
    123  CB        17.0730   41.5640   36.5240 C.3   105  LEU105      0.0297
    124  CG        18.2150   42.2550   37.2360 C.3   105  LEU105      0.0022
    125  CD1       19.0090   41.1880   37.7870 C.3   105  LEU105      0.0001
    126  CD2       18.9930   43.0410   36.2240 C.3   105  LEU105      0.0001
    127  N         14.8150   39.1850   41.5990 N.3   108  GLN108     -0.1245
    128  CA        15.9520   38.7240   42.3580 C.3   108  GLN108      0.1566
    129  C         16.4360   39.8700   43.2210 C.2   108  GLN108      0.2260
    130  O         16.5680   39.7220   44.4150 O.2   108  GLN108     -0.2867
    131  CB        17.0050   38.1260   41.4330 C.3   108  GLN108      0.0367
    132  CG        16.3290   37.0650   40.5580 C.3   108  GLN108      0.0905
    133  CD        17.2590   36.2940   39.6240 C.2   108  GLN108      0.2608
    134  OE1       18.4450   36.6650   39.3800 O.2   108  GLN108     -0.2717
    135  NE2       16.7220   35.1700   39.1000 N.am  108  GLN108     -0.0878
    136  N         23.6750   43.7740   43.6760 N.3   123  LEU123     -0.1245
    137  CA        24.1710   43.7680   42.3250 C.3   123  LEU123      0.1561
    138  C         25.4950   43.0980   42.2550 C.2   123  LEU123      0.2260
    139  O         25.7130   42.2880   41.3700 O.2   123  LEU123     -0.2867
    140  CB        24.3360   45.1910   41.7790 C.3   123  LEU123      0.0270
    141  CG        22.9520   45.7810   41.5150 C.3   123  LEU123      0.0019
    142  CD1       22.9500   47.3250   41.1980 C.3   123  LEU123      0.0001
    143  CD2       22.3190   44.9330   40.4300 C.3   123  LEU123      0.0001
    144  N         25.1720   39.2300   42.3830 N.3   126  LEU126     -0.1231
    145  CA        24.6760   38.5840   41.1470 C.3   126  LEU126      0.1693
    146  C         25.7080   38.6660   40.0360 C.2   126  LEU126      0.2592
    147  O         26.1250   37.6870   39.3890 O.2   126  LEU126     -0.2718
    148  CB        23.4180   39.2950   40.6660 C.3   126  LEU126      0.0284
    149  CG        22.3140   38.8450   41.5980 C.3   126  LEU126      0.0019
    150  CD1       21.0680   39.3970   41.0860 C.3   126  LEU126      0.0001
    151  CD2       22.2710   37.3300   41.5850 C.3   126  LEU126      0.0001
    152  N         26.1080   39.8800   39.8050 N.am  127  SER127     -0.1952
    153  CA        27.2040   40.0850   38.9720 C.3   127  SER127      0.1924
    154  C         28.3190   39.0280   39.1980 C.2   127  SER127      0.2314
    155  O         28.8780   38.5020   38.2410 O.2   127  SER127     -0.2863
    156  CB        27.7180   41.4840   39.2590 C.3   127  SER127      0.2116
    157  OG        28.9030   41.6800   38.5880 O.3   127  SER127     -0.2180
    158  N         27.6860   35.6050   38.5350 N.3   130  GLY130     -0.1210
    159  CA        27.4460   35.6020   37.1040 C.3   130  GLY130      0.1956
    160  C         28.7630   35.4080   36.3400 C.2   130  GLY130      0.2611
    161  O         28.9330   34.4200   35.5660 O.2   130  GLY130     -0.2717
    162  N         29.7020   36.3100   36.5900 N.am  131  HIS131     -0.1975
    163  CA        30.9480   36.2940   35.9320 C.3   131  HIS131      0.1656
    164  C         31.6740   35.0200   36.1460 C.2   131  HIS131      0.2291
    165  O         32.2120   34.4440   35.2340 O.2   131  HIS131     -0.2864
    166  CB        31.7610   37.5190   36.3560 C.3   131  HIS131      0.0771
    167  CG        31.1310   38.8000   35.8870 C.ar  131  HIS131      0.0820
    168  ND1       31.7390   40.0250   35.9770 N.ar  131  HIS131     -0.2267
    169  CD2       29.9410   39.0310   35.2880 C.ar  131  HIS131      0.1154
    170  CE1       30.9340   40.9690   35.5030 C.ar  131  HIS131      0.1986
    171  NE2       29.8400   40.3900   35.0640 N.ar  131  HIS131     -0.2212
@<TRIPOS>BOND
     1    67    66    2
     2    59    58    2
     3    66    65    1
     4    66    68   am
     5    65    64    1
     6    69    68    1
     7    69    70    1
     8    69    72    1
     9    73    72    1
    10    58    64   am
    11    58    57    1
    12    74    72    1
    13    70    71    2
    14    46    47    1
    15     1     2    1
    16     6     5    1
    17     6     8    1
    18     5     2    1
    19     5     7    1
    20    60    57    1
    21    60    61    1
    22    57    56    1
    23    56    48   am
    24     2     3    1
    25    62    61    1
    26    47    48    1
    27    47    50    1
    28    48    49    2
    29     3     4    2
    30    61    63    1
    31    75    81    1
    32    75    76    1
    33    78    77    2
    34    50    51    1
    35    81    80    1
    36    77    76    1
    37    76    79    1
    38    51    53   ar
    39    51    52   ar
    40    80    79    1
    41     9    10    1
    42    53    55   ar
    43    52    54   ar
    44    98    97    2
    45    55    54   ar
    46    10    13    1
    47    10    11    1
    48    13    14    1
    49    14    15    1
    50    14    16    1
    51   109   110   ar
    52   109   107   ar
    53    97    99   am
    54    97    96    1
    55   111   110    1
    56    11    12    2
    57    90    89    1
    58    82    83    1
    59   110   108   ar
    60    88    87    1
    61    88    89    1
    62   107   105   ar
    63    96    95    1
    64    87    86    1
    65    86    83    1
    66    95    92    1
    67    83    84    1
    68    91    92    1
    69    91    84   am
    70   108   106   ar
    71   105   106   ar
    72   105   104    1
    73    92    93    1
    74    84    85    2
    75    43    45   ar
    76    43    41   ar
    77   100    93   am
    78   100   101    1
    79   104   101    1
    80    45    44   ar
    81    93    94    2
    82    38    37    2
    83    41    40   ar
    84    17    18    1
    85   101   102    1
    86    21    18    1
    87    21    22    1
    88    44    42   ar
    89    37    36    1
    90    18    19    1
    91    20    19    2
    92    40    42   ar
    93    40    39    1
    94    22    24   ar
    95    22    23   ar
    96    24    26   ar
    97   102   103    2
    98    36    39    1
    99    36    35    1
   100   171   169   ar
   101   171   170   ar
   102    23    25   ar
   103   165   164    2
   104    26    25   ar
   105   169   167   ar
   106   170   168   ar
   107   161   160    2
   108   117   116    1
   109   167   168   ar
   110   167   166    1
   111   112   113    1
   112   163   164    1
   113   163   166    1
   114   163   162    1
   115   116   113    1
   116   116   118    1
   117   126   124    1
   118   160   162   am
   119   160   159    1
   120   123   124    1
   121   123   120    1
   122   119   120    1
   123   119   114   am
   124   113   114    1
   125   159   158    1
   126   124   125    1
   127   120   121    1
   128   114   115    2
   129   155   154    2
   130    30    29    2
   131   157   156    1
   132   121   122    2
   133   153   154    1
   134   153   156    1
   135   153   152    1
   136   135   133   am
   137    34    32   am
   138   134   133    2
   139   147   146    2
   140    33    32    2
   141   133   132    1
   142    29    28    1
   143    32    31    1
   144   152   146   am
   145   146   145    1
   146   143   141    1
   147    28    31    1
   148    28    27    1
   149   132   131    1
   150   148   145    1
   151   148   149    1
   152   150   149    1
   153   145   144    1
   154   142   141    1
   155   139   138    2
   156   131   128    1
   157   141   140    1
   158   151   149    1
   159   127   128    1
   160   140   137    1
   161   138   137    1
   162   137   136    1
   163   128   129    1
   164   129   130    2
