@<TRIPOS>MOLECULE
tmp/3zqiA00.pdb
 139 133 0 0 0
SMALL
GASTEIGER

@<TRIPOS>ATOM
      1  N         -3.6150   11.6730  -22.1670 N.3   144  GLU144     -0.1245
      2  CA        -3.2260   11.7150  -20.7590 C.3   144  GLU144      0.1567
      3  C         -2.8990   10.3990  -20.1920 C.2   144  GLU144      0.2260
      4  O         -1.9360   10.3140  -19.3920 O.2   144  GLU144     -0.2867
      5  CB        -4.4550   12.3180  -20.0030 C.3   144  GLU144      0.0388
      6  CG        -4.2870   12.4390  -18.4820 C.3   144  GLU144      0.1160
      7  CD        -3.3000   13.4430  -18.0370 C.2   144  GLU144      0.3649
      8  OE1       -2.8210   14.3020  -18.8180 O.co2 144  GLU144     -0.2457
      9  OE2       -2.9210   13.3780  -16.8350 O.co2 144  GLU144     -0.2457
     10  N          0.7000    9.7180  -18.5600 N.3   148  HIS148     -0.1241
     11  CA         0.8390    9.2990  -17.1580 C.3   148  HIS148      0.1621
     12  C          1.6600    8.0470  -17.0310 C.2   148  HIS148      0.2264
     13  O          2.4330    7.9440  -16.0610 O.2   148  HIS148     -0.2867
     14  CB        -0.5960    9.0880  -16.5900 C.3   148  HIS148      0.0745
     15  CG        -0.5330    8.4900  -15.1970 C.ar  148  HIS148      0.0817
     16  ND1        0.0010    9.1650  -14.1470 N.ar  148  HIS148     -0.2268
     17  CD2       -0.9170    7.2730  -14.7430 C.ar  148  HIS148      0.1154
     18  CE1       -0.0530    8.3630  -13.0730 C.ar  148  HIS148      0.1986
     19  NE2       -0.6220    7.2290  -13.4240 N.ar  148  HIS148     -0.2212
     20  N          4.7950    8.6800  -14.4920 N.3   152  LYS152     -0.1231
     21  CA         4.7430    8.1370  -13.1250 C.3   152  LYS152      0.1693
     22  C          6.0110    7.3740  -12.8000 C.2   152  LYS152      0.2591
     23  O          6.3340    7.2990  -11.5810 O.2   152  LYS152     -0.2718
     24  CB         3.4960    7.2460  -12.9240 C.3   152  LYS152      0.0285
     25  CG         3.6240    5.9450  -13.6440 C.3   152  LYS152      0.0035
     26  CD         2.2550    5.2420  -13.5930 C.3   152  LYS152      0.0206
     27  CE         2.4260    3.8860  -14.0450 C.3   152  LYS152      0.1093
     28  NZ         1.0500    3.1300  -14.0340 N.3   152  LYS152     -0.1314
     29  N          6.7530    6.9450  -13.8190 N.am  153  GLU153     -0.1979
     30  CA         8.0810    6.2880  -13.6250 C.3   153  GLU153      0.1602
     31  C          9.2120    7.2710  -13.5060 C.2   153  GLU153      0.2287
     32  O         10.3360    6.8940  -13.0850 O.2   153  GLU153     -0.2864
     33  CB         8.3660    5.4160  -14.7930 C.3   153  GLU153      0.0415
     34  CG         7.3120    4.3310  -15.0510 C.3   153  GLU153      0.1163
     35  CD         7.0790    3.3180  -13.9410 C.2   153  GLU153      0.3649
     36  OE1        7.9390    3.1650  -13.0320 O.co2 153  GLU153     -0.2457
     37  OE2        6.0230    2.6430  -14.0100 O.co2 153  GLU153     -0.2457
     38  N          8.9830   10.3320  -11.7630 N.3   155  ARG155     -0.1245
     39  CA         8.8320   11.2780  -10.6400 C.3   155  ARG155      0.1563
     40  C          9.3440   10.5790   -9.3000 C.2   155  ARG155      0.2260
     41  O          9.0370    9.4470   -9.0240 O.2   155  ARG155     -0.2867
     42  CB         7.3290   11.7520  -10.8400 C.3   155  ARG155      0.0307
     43  CG         6.8060   12.9540  -10.1180 C.3   155  ARG155      0.0489
     44  CD         5.3920   12.9930  -10.3690 C.3   155  ARG155      0.2205
     45  NE         5.0580   13.6990  -11.6370 N.pl3 155  ARG155     -0.0865
     46  CZ         4.2200   13.2150  -12.5500 C.cat 155  ARG155      0.5346
     47  NH1        3.6500   12.0300  -12.4150 N.pl3 155  ARG155      0.1354
     48  NH2        3.9180   14.0470  -13.5050 N.pl3 155  ARG155      0.1354
     49  N          9.4800    9.4050   -5.3340 N.3   157  THR157     -0.1204
     50  CA         8.4050    9.2400   -4.3340 C.3   157  THR157      0.1979
     51  C          8.5460   10.3840   -3.3010 C.2   157  THR157      0.2460
     52  O          9.6360   10.5800   -2.7930 O.2   157  THR157     -0.2732
     53  CB         8.5070    7.8280   -3.6430 C.3   157  THR157      0.1783
     54  OG1        8.6580    6.7900   -4.6630 O.3   157  THR157     -0.2211
     55  CG2        7.3260    7.5340   -2.7120 C.3   157  THR157      0.0376
     56  N          7.4650   11.1610   -3.0080 N.am  158  PRO158     -0.2717
     57  CA         7.5900   12.1760   -1.9060 C.3   158  PRO158      0.1536
     58  C          7.7640   11.4760   -0.5980 C.2   158  PRO158      0.2599
     59  O          7.2660   10.3540   -0.4600 O.2   158  PRO158     -0.2715
     60  CB         6.2140   12.8290   -1.9040 C.3   158  PRO158      0.0310
     61  CG         5.8180   12.7280   -3.3840 C.3   158  PRO158      0.0237
     62  CD         6.1220   11.2450   -3.6410 C.3   158  PRO158      0.0939
     63  N          8.4870   12.1050    0.3530 N.am  159  THR159     -0.1937
     64  CA         8.6370   11.4320    1.6570 C.3   159  THR159      0.2028
     65  C          7.3170   11.0170    2.2340 C.2   159  THR159      0.2643
     66  O          7.1150    9.8220    2.6000 O.2   159  THR159     -0.2714
     67  CB         9.4360   12.3050    2.6310 C.3   159  THR159      0.1808
     68  OG1       10.7480   12.3480    2.0140 O.3   159  THR159     -0.2208
     69  CG2        9.6560   11.5910    3.9750 C.3   159  THR159      0.0379
     70  N          6.4500   12.0480    2.3790 N.am  160  THR160     -0.1936
     71  CA         5.0750   11.7840    2.9580 C.3   160  THR160      0.2028
     72  C          4.1330   12.4930    2.0870 C.2   160  THR160      0.2642
     73  O          4.3950   13.6330    1.6640 O.2   160  THR160     -0.2714
     74  CB         4.9870   12.1940    4.4330 C.3   160  THR160      0.1808
     75  OG1        5.9690   11.4000    5.1110 O.3   160  THR160     -0.2208
     76  CG2        3.6470   11.8090    5.0660 C.3   160  THR160      0.0379
     77  N          3.1090   11.8050    1.6660 N.am  161  ASP161     -0.1971
     78  CA         2.0910   12.5120    0.7910 C.3   161  ASP161      0.1709
     79  C          0.8060   12.5990    1.6380 C.2   161  ASP161      0.2293
     80  O          0.0730   11.6380    1.8020 O.2   161  ASP161     -0.2864
     81  CB         1.8780   11.6390   -0.4260 C.3   161  ASP161      0.1436
     82  CG         1.0800   12.3610   -1.4720 C.2   161  ASP161      0.3671
     83  OD1        0.6950   13.4790   -1.1940 O.co2 161  ASP161     -0.2456
     84  OD2        0.9240   11.8000   -2.5540 O.co2 161  ASP161     -0.2456
     85  N         -2.5390   13.6320    2.1190 N.3   163  MET163     -0.1245
     86  CA        -3.6130   13.9450    1.1310 C.3   163  MET163      0.1570
     87  C         -4.9750   14.0230    1.8180 C.2   163  MET163      0.2261
     88  O         -5.3470   13.1670    2.6410 O.2   163  MET163     -0.2867
     89  CB        -3.6680   12.8310    0.1040 C.3   163  MET163      0.0387
     90  CG        -4.3920   13.2020   -1.2100 C.3   163  MET163      0.0595
     91  SD        -4.2700   11.8220   -2.3690 S.3   163  MET163     -0.1393
     92  CE        -2.5230   11.7980   -2.7720 C.3   163  MET163      0.0692
     93  N         -8.1040   11.5300   -1.7010 N.3   168  ARG168     -0.1245
     94  CA        -7.5040   10.1700   -1.6280 C.3   168  ARG168      0.1563
     95  C         -8.5310    9.1000   -2.0090 C.2   168  ARG168      0.2260
     96  O         -8.1970    8.1890   -2.7640 O.2   168  ARG168     -0.2867
     97  CB        -7.0330    9.9180   -0.2350 C.3   168  ARG168      0.0307
     98  CG        -6.4470    8.5010   -0.0130 C.3   168  ARG168      0.0489
     99  CD        -5.0650    8.2810   -0.6560 C.3   168  ARG168      0.2205
    100  NE        -4.0070    8.9820    0.1330 N.pl3 168  ARG168     -0.0865
    101  CZ        -2.7030    9.0440   -0.2070 C.cat 168  ARG168      0.5346
    102  NH1       -2.2290    8.4390   -1.3450 N.pl3 168  ARG168      0.1354
    103  NH2       -1.8520    9.7310    0.5990 N.pl3 168  ARG168      0.1354
    104  N         -8.7600    9.2330   -5.9180 N.3   171  ILE171     -0.1231
    105  CA        -7.6360    8.6580   -6.7290 C.3   171  ILE171      0.1692
    106  C         -7.5520    7.1450   -6.4680 C.2   171  ILE171      0.2591
    107  O         -7.2020    6.3640   -7.4070 O.2   171  ILE171     -0.2718
    108  CB        -6.3180    9.3700   -6.5450 C.3   171  ILE171      0.0266
    109  CG1       -5.7480    9.0480   -5.2280 C.3   171  ILE171      0.0019
    110  CG2       -6.4370   10.9200   -6.8520 C.3   171  ILE171      0.0020
    111  CD1       -4.2250    9.6990   -5.1190 C.3   171  ILE171      0.0001
    112  N         -7.8890    6.6720   -5.2860 N.am  172  GLU172     -0.1979
    113  CA        -7.8850    5.1820   -5.0450 C.3   172  GLU172      0.1602
    114  C         -8.9610    4.4910   -5.8560 C.2   172  GLU172      0.2287
    115  O         -8.7460    3.4240   -6.4030 O.2   172  GLU172     -0.2864
    116  CB        -7.9890    4.9040   -3.5250 C.3   172  GLU172      0.0415
    117  CG        -6.7320    5.3270   -2.8300 C.3   172  GLU172      0.1163
    118  CD        -6.5350    4.9190   -1.4020 C.2   172  GLU172      0.3649
    119  OE1       -7.5030    4.5790   -0.7440 O.co2 172  GLU172     -0.2457
    120  OE2       -5.3140    4.8760   -1.0900 O.co2 172  GLU172     -0.2457
    121  N        -10.2160    5.5970   -8.8230 N.3   174  PHE174     -0.1227
    122  CA        -9.7040    5.5190  -10.1780 C.3   174  PHE174      0.1736
    123  C         -8.6340    4.4520  -10.3940 C.2   174  PHE174      0.2595
    124  O         -8.6830    3.6960  -11.3700 O.2   174  PHE174     -0.2718
    125  CB        -9.1610    6.8880  -10.5570 C.3   174  PHE174      0.0547
    126  CG        -8.8530    7.0290  -12.0610 C.ar  174  PHE174     -0.0202
    127  CD1       -7.6170    6.6280  -12.5340 C.ar  174  PHE174     -0.0042
    128  CD2       -9.7910    7.5290  -12.9090 C.ar  174  PHE174     -0.0042
    129  CE1       -7.3510    6.7130  -13.9340 C.ar  174  PHE174     -0.0003
    130  CE2       -9.4490    7.6640  -14.3710 C.ar  174  PHE174     -0.0003
    131  CZ        -8.2650    7.2260  -14.7820 C.ar  174  PHE174     -0.0000
    132  N         -7.7320    4.2980   -9.4320 N.am  175  ASP175     -0.1974
    133  CA        -6.7200    3.3160   -9.6090 C.3   175  ASP175      0.1709
    134  C         -7.2910    1.8950   -9.5950 C.2   175  ASP175      0.2293
    135  O         -6.8400    1.0520  -10.3890 O.2   175  ASP175     -0.2864
    136  CB        -5.6850    3.4580   -8.4900 C.3   175  ASP175      0.1436
    137  CG        -4.4250    2.7400   -8.8460 C.2   175  ASP175      0.3671
    138  OD1       -3.6690    3.1270   -9.7400 O.co2 175  ASP175     -0.2456
    139  OD2       -4.1580    1.6910   -8.2190 O.co2 175  ASP175     -0.2456
@<TRIPOS>BOND
     1     1     2    1
     2     2     3    1
     3     2     5    1
     4     3     4    2
     5     5     6    1
     6     8     7   ar
     7    10    11    1
     8     6     7    1
     9     7     9   ar
    10    11    12    1
    11    11    14    1
    12    12    13    2
    13    14    15    1
    14    15    17   ar
    15    15    16   ar
    16    34    33    1
    17    34    35    1
    18    33    30    1
    19   131   130   ar
    20   131   129   ar
    21    17    19   ar
    22    20    21    1
    23   130   128   ar
    24    16    18   ar
    25    27    28    1
    26    27    26    1
    27    37    35   ar
    28    35    36   ar
    29   129   127   ar
    30    29    30    1
    31    29    22   am
    32    25    26    1
    33    25    24    1
    34    30    31    1
    35    31    32    2
    36    48    46    1
    37    19    18   ar
    38    21    24    1
    39    21    22    1
    40   128   126   ar
    41    22    23    2
    42    46    47    1
    43    46    45    2
    44   127   126   ar
    45   126   125    1
    46    38    39    1
    47    45    44    1
    48   124   123    2
    49    42    39    1
    50    42    43    1
    51    39    40    1
    52   125   122    1
    53   123   122    1
    54   123   132   am
    55   135   134    2
    56    44    43    1
    57   122   121    1
    58   138   137   ar
    59   133   134    1
    60   133   132    1
    61   133   136    1
    62    40    41    2
    63   137   136    1
    64   137   139   ar
    65   107   106    2
    66   110   108    1
    67   105   108    1
    68   105   106    1
    69   105   104    1
    70   108   109    1
    71   106   112   am
    72   115   114    2
    73   114   113    1
    74    49    50    1
    75   112   113    1
    76   109   111    1
    77   113   116    1
    78    54    53    1
    79    50    53    1
    80    50    51    1
    81    53    55    1
    82    62    61    1
    83    62    56    1
    84   116   117    1
    85    61    60    1
    86    51    56   am
    87    51    52    2
    88    56    57    1
    89   117   118    1
    90    92    91    1
    91    96    95    2
    92    84    82   ar
    93    91    90    1
    94    95    94    1
    95    57    60    1
    96    57    58    1
    97    93    94    1
    98    94    97    1
    99    82    83   ar
   100    82    81    1
   101   118   120   ar
   102   118   119   ar
   103   102   101    1
   104    90    89    1
   105    99    98    1
   106    99   100    1
   107    58    59    2
   108    58    63   am
   109    81    78    1
   110    97    98    1
   111   101   100    2
   112   101   103    1
   113    89    86    1
   114    63    64    1
   115    78    79    1
   116    78    77    1
   117    86    87    1
   118    86    85    1
   119    79    80    2
   120    64    65    1
   121    64    67    1
   122    73    72    2
   123    77    72   am
   124    87    88    2
   125    68    67    1
   126    72    71    1
   127    65    70   am
   128    65    66    2
   129    70    71    1
   130    67    69    1
   131    71    74    1
   132    74    76    1
   133    74    75    1
