@<TRIPOS>MOLECULE
tmp/3zqsB01.pdb
 86 83 0 0 0
SMALL
GASTEIGER

@<TRIPOS>ATOM
      1  N        -45.9450  -20.3280   38.2960 N.3   107  GLU107     -0.1231
      2  CA       -47.3000  -20.5930   37.8290 C.3   107  GLU107      0.1684
      3  C        -48.1140  -19.3240   37.9930 C.2   107  GLU107      0.2434
      4  O        -47.8740  -18.5570   38.9280 O.2   107  GLU107     -0.2733
      5  CB       -47.9550  -21.6930   38.6590 C.3   107  GLU107      0.0402
      6  CG       -47.2060  -23.0020   38.6940 C.3   107  GLU107      0.1161
      7  CD       -47.9250  -24.0370   39.5320 C.2   107  GLU107      0.3649
      8  OE1      -49.1600  -24.1630   39.3910 O.co2 107  GLU107     -0.2457
      9  OE2      -47.2600  -24.7210   40.3340 O.co2 107  GLU107     -0.2457
     10  N        -49.0640  -19.0870   37.0760 N.am  108  PRO108     -0.2729
     11  CA       -49.2720  -19.9090   35.8730 C.3   108  PRO108      0.1401
     12  C        -48.2370  -19.6280   34.7800 C.2   108  PRO108      0.2269
     13  O        -47.5240  -18.6260   34.8420 O.2   108  PRO108     -0.2865
     14  CB       -50.6630  -19.4780   35.3880 C.3   108  PRO108      0.0296
     15  CG       -50.8520  -18.1090   35.9310 C.3   108  PRO108      0.0237
     16  CD       -50.1030  -18.0540   37.2370 C.3   108  PRO108      0.0939
     17  N        -53.7520  -15.1610   40.6930 N.3   117  ALA117     -0.1231
     18  CA       -52.7680  -15.8320   41.5430 C.3   117  ALA117      0.1694
     19  C        -51.4150  -15.8850   40.8480 C.2   117  ALA117      0.2592
     20  O        -51.3450  -15.9640   39.6280 O.2   117  ALA117     -0.2718
     21  CB       -53.2340  -17.2440   41.8720 C.3   117  ALA117      0.0304
     22  N        -50.3450  -15.8380   41.6250 N.am  118  ARG118     -0.1966
     23  CA       -49.0080  -16.0770   41.0860 C.3   118  ARG118      0.1729
     24  C        -48.2240  -16.9130   42.0950 C.2   118  ARG118      0.2616
     25  O        -48.2710  -16.6490   43.3040 O.2   118  ARG118     -0.2715
     26  CB       -48.2690  -14.7560   40.8340 C.3   118  ARG118      0.0348
     27  CG       -48.8890  -13.8510   39.7600 C.3   118  ARG118      0.0492
     28  CD       -48.7090  -14.4400   38.3650 C.3   118  ARG118      0.2205
     29  NE       -49.0130  -13.4650   37.3120 N.pl3 118  ARG118     -0.0865
     30  CZ       -50.2450  -13.1520   36.9220 C.cat 118  ARG118      0.5346
     31  NH1      -51.2880  -13.7420   37.4870 N.pl3 118  ARG118      0.1354
     32  NH2      -50.4380  -12.2500   35.9720 N.pl3 118  ARG118      0.1354
     33  N        -47.5110  -17.9220   41.6130 N.am  119  ARG119     -0.1977
     34  CA       -46.5660  -18.6360   42.4650 C.3   119  ARG119      0.1597
     35  C        -45.1770  -18.1940   42.0330 C.2   119  ARG119      0.2287
     36  O        -44.7860  -18.4290   40.8970 O.2   119  ARG119     -0.2864
     37  CB       -46.7300  -20.1430   42.3210 C.3   119  ARG119      0.0334
     38  CG       -45.7930  -20.9460   43.2330 C.3   119  ARG119      0.0492
     39  CD       -45.9140  -22.4280   42.9370 C.3   119  ARG119      0.2205
     40  NE       -44.8140  -23.1880   43.5220 N.pl3 119  ARG119     -0.0865
     41  CZ       -44.4760  -24.4090   43.1300 C.cat 119  ARG119      0.5346
     42  NH1      -45.1510  -24.9970   42.1520 N.pl3 119  ARG119      0.1354
     43  NH2      -43.4630  -25.0370   43.7060 N.pl3 119  ARG119      0.1354
     44  N        -46.7990  -18.2620   47.1460 N.3   129  ASN129     -0.1240
     45  CA       -48.0380  -18.1300   46.3880 C.3   129  ASN129      0.1653
     46  C        -48.8080  -16.9170   46.8830 C.2   129  ASN129      0.2266
     47  O        -49.0790  -16.8010   48.0830 O.2   129  ASN129     -0.2867
     48  CB       -48.9210  -19.3630   46.5460 C.3   129  ASN129      0.1155
     49  CG       -50.1110  -19.3350   45.6080 C.2   129  ASN129      0.2627
     50  OD1      -49.9900  -19.6880   44.4410 O.2   129  ASN129     -0.2716
     51  ND2      -51.2600  -18.9030   46.1090 N.am  129  ASN129     -0.0877
     52  N        -52.3050  -14.4800   46.2100 N.3   131  GLU131     -0.1245
     53  CA       -53.5940  -14.3210   45.5750 C.3   131  GLU131      0.1567
     54  C        -53.9620  -12.8600   45.7690 C.2   131  GLU131      0.2260
     55  O        -54.1070  -12.4010   46.8930 O.2   131  GLU131     -0.2867
     56  CB       -54.6240  -15.2390   46.2310 C.3   131  GLU131      0.0388
     57  CG       -56.0630  -15.0420   45.7450 C.3   131  GLU131      0.1160
     58  CD       -56.3330  -15.6460   44.3750 C.2   131  GLU131      0.3649
     59  OE1      -55.4450  -16.3270   43.8210 O.co2 131  GLU131     -0.2457
     60  OE2      -57.4500  -15.4430   43.8510 O.co2 131  GLU131     -0.2457
     61  N        -53.2650  -12.6180   49.8290 N.3   142  GLU142     -0.1231
     62  CA       -53.1780  -13.8430   50.6110 C.3   142  GLU142      0.1699
     63  C        -51.8570  -14.5050   50.2430 C.2   142  GLU142      0.2592
     64  O        -51.6000  -14.7630   49.0760 O.2   142  GLU142     -0.2718
     65  CB       -54.3480  -14.7720   50.3000 C.3   142  GLU142      0.0402
     66  CG       -55.6830  -14.2820   50.8680 C.3   142  GLU142      0.1161
     67  CD       -56.8650  -15.1090   50.3960 C.2   142  GLU142      0.3649
     68  OE1      -56.6540  -16.0660   49.6170 O.co2 142  GLU142     -0.2457
     69  OE2      -58.0080  -14.7930   50.7950 O.co2 142  GLU142     -0.2457
     70  N        -51.0090  -14.7550   51.2310 N.am  143  CYS143     -0.1956
     71  CA       -49.7130  -15.3680   50.9730 C.3   143  CYS143      0.1843
     72  C        -49.6550  -16.7750   51.5340 C.2   143  CYS143      0.2625
     73  O        -50.2070  -17.0550   52.6080 O.2   143  CYS143     -0.2714
     74  CB       -48.5920  -14.5510   51.6100 C.3   143  CYS143      0.0997
     75  SG       -48.5650  -12.8360   51.1600 S.3   143  CYS143     -0.0797
     76  N        -48.9710  -17.6540   50.8090 N.am  144  PHE144     -0.1974
     77  CA       -48.7490  -19.0020   51.2790 C.3   144  PHE144      0.1639
     78  C        -47.3330  -19.4030   50.8940 C.2   144  PHE144      0.2290
     79  O        -46.9460  -19.2710   49.7400 O.2   144  PHE144     -0.2864
     80  CB       -49.7690  -19.9480   50.6620 C.3   144  PHE144      0.0560
     81  CG       -49.8800  -21.2570   51.3750 C.ar  144  PHE144     -0.0200
     82  CD1      -50.5380  -21.3410   52.5900 C.ar  144  PHE144     -0.0042
     83  CD2      -49.3180  -22.4020   50.8340 C.ar  144  PHE144     -0.0042
     84  CE1      -50.6370  -22.5520   53.2550 C.ar  144  PHE144     -0.0003
     85  CE2      -49.4070  -23.6170   51.4930 C.ar  144  PHE144     -0.0003
     86  CZ       -50.0700  -23.6930   52.7020 C.ar  144  PHE144     -0.0000
@<TRIPOS>BOND
     1    12    13    2
     2    12    11    1
     3    14    11    1
     4    14    15    1
     5    11    10    1
     6    15    16    1
     7    32    30    1
     8    30    29    2
     9    30    31    1
    10    10    16    1
    11    10     3   am
    12    29    28    1
    13     2     3    1
    14     2     1    1
    15     2     5    1
    16     3     4    2
    17    28    27    1
    18     5     6    1
    19     6     7    1
    20     8     7   ar
    21     7     9   ar
    22    20    19    2
    23    27    26    1
    24    17    18    1
    25    26    23    1
    26    19    18    1
    27    19    22   am
    28    36    35    2
    29    23    22    1
    30    23    24    1
    31    18    21    1
    32    33    24   am
    33    33    34    1
    34    35    34    1
    35    24    25    2
    36    42    41    1
    37    37    34    1
    38    37    38    1
    39    39    38    1
    40    39    40    1
    41    41    40    2
    42    41    43    1
    43    59    58   ar
    44    60    58   ar
    45    58    57    1
    46    50    49    2
    47    53    54    1
    48    53    52    1
    49    53    56    1
    50    49    51   am
    51    49    48    1
    52    57    56    1
    53    54    55    2
    54    45    48    1
    55    45    46    1
    56    45    44    1
    57    46    47    2
    58    64    63    2
    59    68    67   ar
    60    79    78    2
    61    61    62    1
    62    63    62    1
    63    63    70   am
    64    65    62    1
    65    65    66    1
    66    67    69   ar
    67    67    66    1
    68    80    77    1
    69    80    81    1
    70    76    77    1
    71    76    72   am
    72    83    81   ar
    73    83    85   ar
    74    78    77    1
    75    71    70    1
    76    71    72    1
    77    71    74    1
    78    75    74    1
    79    81    82   ar
    80    85    86   ar
    81    72    73    2
    82    82    84   ar
    83    86    84   ar
