@<TRIPOS>MOLECULE
tmp/3zqsB02.pdb
 136 135 0 0 0
SMALL
GASTEIGER

@<TRIPOS>ATOM
      1  N        -62.6590  -10.4270   37.0420 N.3    63  VAL63      -0.1231
      2  CA       -63.9720  -10.2670   37.6960 C.3    63  VAL63       0.1678
      3  C        -65.0670  -10.4960   36.6460 C.2    63  VAL63       0.2434
      4  O        -64.7920  -10.4390   35.4570 O.2    63  VAL63      -0.2733
      5  CB       -64.1640   -8.8420   38.2430 C.3    63  VAL63       0.0265
      6  CG1      -63.1270   -8.5320   39.3160 C.3    63  VAL63       0.0020
      7  CG2      -64.0730   -7.8300   37.0990 C.3    63  VAL63       0.0020
      8  N        -66.3160  -10.7360   37.0790 N.am   64  PRO64      -0.2729
      9  CA       -67.4310  -10.8870   36.1250 C.3    64  PRO64       0.1401
     10  C        -67.6710   -9.6220   35.3070 C.2    64  PRO64       0.2269
     11  O        -67.4250   -8.5350   35.8230 O.2    64  PRO64      -0.2865
     12  CB       -68.6360  -11.1720   37.0350 C.3    64  PRO64       0.0296
     13  CG       -68.0310  -11.7510   38.2840 C.3    64  PRO64       0.0237
     14  CD       -66.7190  -11.0410   38.4620 C.3    64  PRO64       0.0939
     15  N        -64.9060   -0.8720   32.5520 N.3    85  ALA85      -0.1245
     16  CA       -64.4250   -1.9800   33.3430 C.3    85  ALA85       0.1562
     17  C        -62.9060   -2.0790   33.2130 C.2    85  ALA85       0.2260
     18  O        -62.2220   -2.3160   34.1770 O.2    85  ALA85      -0.2867
     19  CB       -65.0850   -3.2760   32.9100 C.3    85  ALA85       0.0290
     20  N        -61.2510    0.4920   35.3690 N.3    88  SER88      -0.1202
     21  CA       -61.4640    0.1640   36.7630 C.3    88  SER88       0.2020
     22  C        -60.4260   -0.8470   37.2520 C.2    88  SER88       0.2618
     23  O        -60.1270   -0.9290   38.4400 O.2    88  SER88      -0.2717
     24  CB       -62.8640   -0.4110   36.9480 C.3    88  SER88       0.2103
     25  OG       -62.8930   -1.8010   36.6790 O.3    88  SER88      -0.2182
     26  N        -59.8850   -1.6270   36.3280 N.am   89  LEU89      -0.1979
     27  CA       -58.9400   -2.6660   36.6890 C.3    89  LEU89       0.1596
     28  C        -57.4910   -2.2630   36.4540 C.2    89  LEU89       0.2287
     29  O        -56.5980   -3.0920   36.5660 O.2    89  LEU89      -0.2864
     30  CB       -59.2500   -3.9340   35.8960 C.3    89  LEU89       0.0297
     31  CG       -60.5070   -4.6700   36.3480 C.3    89  LEU89       0.0022
     32  CD1      -60.9130   -5.6850   35.3060 C.3    89  LEU89       0.0001
     33  CD2      -60.2710   -5.3340   37.6870 C.3    89  LEU89       0.0001
     34  N        -55.2970   -0.6390   38.2000 N.3    91  ALA91      -0.1231
     35  CA       -54.4220   -0.8830   39.3400 C.3    91  ALA91       0.1694
     36  C        -54.0710   -2.3570   39.4540 C.2    91  ALA91       0.2592
     37  O        -52.9380   -2.7100   39.7710 O.2    91  ALA91      -0.2718
     38  CB       -55.0780   -0.3930   40.6340 C.3    91  ALA91       0.0304
     39  N        -55.0440   -3.2290   39.1990 N.am   92  PHE92      -0.1976
     40  CA       -54.7860   -4.6630   39.2990 C.3    92  PHE92       0.1639
     41  C        -53.7680   -5.1000   38.2540 C.2    92  PHE92       0.2290
     42  O        -52.8080   -5.8040   38.5680 O.2    92  PHE92      -0.2864
     43  CB       -56.0740   -5.4680   39.1330 C.3    92  PHE92       0.0560
     44  CG       -55.8450   -6.9350   38.9540 C.ar   92  PHE92      -0.0200
     45  CD1      -55.4550   -7.7240   40.0240 C.ar   92  PHE92      -0.0042
     46  CD2      -56.0180   -7.5320   37.7140 C.ar   92  PHE92      -0.0042
     47  CE1      -55.2430   -9.0720   39.8630 C.ar   92  PHE92      -0.0003
     48  CE2      -55.8160   -8.8930   37.5470 C.ar   92  PHE92      -0.0003
     49  CZ       -55.4260   -9.6590   38.6170 C.ar   92  PHE92      -0.0000
     50  N        -51.6040   -3.2240   36.6600 N.3    94  ASP94      -0.1225
     51  CA       -50.3290   -2.5820   36.9900 C.3    94  ASP94       0.1805
     52  C        -49.5380   -3.4280   37.9840 C.2    94  ASP94       0.2597
     53  O        -48.3370   -3.6430   37.8040 O.2    94  ASP94      -0.2718
     54  CB       -50.5370   -1.1660   37.5390 C.3    94  ASP94       0.1424
     55  CG       -50.9940   -0.1760   36.4710 C.2    94  ASP94       0.3668
     56  OD1      -51.0710   -0.5310   35.2680 O.co2  94  ASP94      -0.2456
     57  OD2      -51.2760    0.9810   36.8420 O.co2  94  ASP94      -0.2456
     58  N        -50.2140   -3.9320   39.0190 N.am   95  VAL95      -0.1980
     59  CA       -49.5530   -4.7620   40.0170 C.3    95  VAL95       0.1595
     60  C        -49.0510   -6.0620   39.3920 C.2    95  VAL95       0.2287
     61  O        -47.9070   -6.4550   39.5980 O.2    95  VAL95      -0.2864
     62  CB       -50.4950   -5.0920   41.1910 C.3    95  VAL95       0.0276
     63  CG1      -50.0070   -6.3040   41.9440 C.3    95  VAL95       0.0022
     64  CG2      -50.6260   -3.8950   42.1070 C.3    95  VAL95       0.0022
     65  N        -58.4780   -8.3490   42.8700 N.3   134  PRO134     -0.2102
     66  CA       -58.3770   -7.4330   41.7300 C.3   134  PRO134      0.1504
     67  C        -59.0460   -6.1040   41.9790 C.2   134  PRO134      0.2576
     68  O        -58.7020   -5.1390   41.2970 O.2   134  PRO134     -0.2718
     69  CB       -59.0930   -8.1910   40.5940 C.3   134  PRO134      0.0282
     70  CG       -60.0360   -9.1100   41.2840 C.3   134  PRO134      0.0208
     71  CD       -59.2990   -9.5350   42.5550 C.3   134  PRO134      0.0893
     72  N        -59.9800   -6.0490   42.9280 N.am  135  ARG135     -0.1966
     73  CA       -60.6070   -4.7730   43.2980 C.3   135  ARG135      0.1729
     74  C        -59.8550   -4.0250   44.4060 C.2   135  ARG135      0.2616
     75  O        -60.2000   -2.8980   44.7190 O.2   135  ARG135     -0.2715
     76  CB       -62.0520   -4.9880   43.7550 C.3   135  ARG135      0.0348
     77  CG       -62.9380   -5.6810   42.7520 C.3   135  ARG135      0.0492
     78  CD       -64.3390   -5.8390   43.3150 C.3   135  ARG135      0.2205
     79  NE       -65.2570   -6.4700   42.3670 N.pl3 135  ARG135     -0.0865
     80  CZ       -65.4840   -7.7790   42.3130 C.cat 135  ARG135      0.5346
     81  NH1      -64.8580   -8.6010   43.1510 N.pl3 135  ARG135      0.1354
     82  NH2      -66.3340   -8.2720   41.4230 N.pl3 135  ARG135      0.1354
     83  N        -58.8540   -4.6570   45.0170 N.am  136  HIS136     -0.1960
     84  CA       -58.0240   -3.9990   46.0490 C.3   136  HIS136      0.1772
     85  C        -56.6060   -4.5330   45.9090 C.2   136  HIS136      0.2462
     86  O        -56.0620   -5.1420   46.8420 O.2   136  HIS136     -0.2730
     87  CB       -58.5540   -4.3080   47.4530 C.3   136  HIS136      0.0785
     88  CG       -60.0010   -3.9680   47.6200 C.ar  136  HIS136      0.0821
     89  ND1      -60.4410   -2.6790   47.8340 N.ar  136  HIS136     -0.2267
     90  CD2      -61.1140   -4.7400   47.5520 C.ar  136  HIS136      0.1154
     91  CE1      -61.7620   -2.6720   47.9080 C.ar  136  HIS136      0.1986
     92  NE2      -62.1950   -3.9100   47.7420 N.ar  136  HIS136     -0.2212
     93  N        -56.0140   -4.3070   44.7310 N.am  137  PRO137     -0.2716
     94  CA       -54.7910   -5.0060   44.3380 C.3   137  PRO137      0.1536
     95  C        -53.5460   -4.5310   45.0630 C.2   137  PRO137      0.2599
     96  O        -52.5300   -5.2190   44.9610 O.2   137  PRO137     -0.2715
     97  CB       -54.6840   -4.7030   42.8470 C.3   137  PRO137      0.0310
     98  CG       -55.3760   -3.3690   42.6820 C.3   137  PRO137      0.0237
     99  CD       -56.4640   -3.3310   43.7160 C.3   137  PRO137      0.0939
    100  N        -53.5870   -3.4090   45.7810 N.am  138  THR138     -0.1951
    101  CA       -52.3500   -2.9950   46.4570 C.3   138  THR138      0.1897
    102  C        -52.3330   -3.3310   47.9320 C.2   138  THR138      0.2313
    103  O        -51.3850   -2.9930   48.6170 O.2   138  THR138     -0.2863
    104  CB       -52.0490   -1.5050   46.3020 C.3   138  THR138      0.1794
    105  OG1      -53.1160   -0.7380   46.8810 O.3   138  THR138     -0.2208
    106  CG2      -51.8830   -1.1410   44.8180 C.3   138  THR138      0.0378
    107  N        -50.1250    0.4880   51.1260 N.3   168  PRO168     -0.2102
    108  CA       -50.9960    0.3050   49.9570 C.3   168  PRO168      0.1504
    109  C        -50.6750    1.2990   48.8590 C.2   168  PRO168      0.2576
    110  O        -51.1450    1.1340   47.7410 O.2   168  PRO168     -0.2718
    111  CB       -52.4010    0.5780   50.5130 C.3   168  PRO168      0.0282
    112  CG       -52.2950    0.2610   51.9630 C.3   168  PRO168      0.0208
    113  CD       -50.9050    0.7050   52.3570 C.3   168  PRO168      0.0893
    114  N        -49.8920    2.3240   49.1760 N.am  169  GLU169     -0.1966
    115  CA       -49.4650    3.2930   48.1720 C.3   169  GLU169      0.1733
    116  C        -48.2850    2.7610   47.3640 C.2   169  GLU169      0.2616
    117  O        -47.8160    3.4100   46.4360 O.2   169  GLU169     -0.2715
    118  CB       -49.0890    4.6280   48.8210 C.3   169  GLU169      0.0429
    119  CG       -50.2620    5.3730   49.4350 C.3   169  GLU169      0.1163
    120  CD       -51.2760    5.7950   48.3940 C.2   169  GLU169      0.3649
    121  OE1      -50.8570    6.3740   47.3710 O.co2 169  GLU169     -0.2457
    122  OE2      -52.4870    5.5420   48.5870 O.co2 169  GLU169     -0.2457
    123  N        -47.8020    1.5810   47.7360 N.am  170  ASN170     -0.1958
    124  CA       -46.7210    0.9080   47.0130 C.3   170  ASN170      0.1819
    125  C        -47.2180   -0.3710   46.3590 C.2   170  ASN170      0.2622
    126  O        -48.2490   -0.9270   46.7530 O.2   170  ASN170     -0.2715
    127  CB       -45.5540    0.5860   47.9560 C.3   170  ASN170      0.1195
    128  CG       -44.8090    1.8260   48.3930 C.2   170  ASN170      0.2630
    129  OD1      -44.9570    2.8820   47.7900 O.2   170  ASN170     -0.2716
    130  ND2      -44.0010    1.7060   49.4410 N.am  170  ASN170     -0.0877
    131  N        -46.4720   -0.8420   45.3680 N.am  171  SER171     -0.1950
    132  CA       -46.8400   -2.0420   44.6320 C.3   171  SER171      0.1924
    133  C        -46.7290   -3.2890   45.4990 C.2   171  SER171      0.2314
    134  O        -46.0270   -3.2860   46.5160 O.2   171  SER171     -0.2863
    135  CB       -45.9080   -2.2070   43.4460 C.3   171  SER171      0.2116
    136  OG       -44.6110   -2.5220   43.9130 O.3   171  SER171     -0.2180
@<TRIPOS>BOND
     1    15    16    1
     2    19    16    1
     3    17    16    1
     4    17    18    2
     5    56    55   ar
     6    32    31    1
     7    10    11    2
     8    10     9    1
     9    20    21    1
    10     4     3    2
    11    30    31    1
    12    30    27    1
    13     9    12    1
    14     9     8    1
    15    26    27    1
    16    26    22   am
    17    31    33    1
    18    28    29    2
    19    28    27    1
    20    55    57   ar
    21    55    54    1
    22     3     8   am
    23     3     2    1
    24    50    51    1
    25    25    24    1
    26    21    24    1
    27    21    22    1
    28    51    54    1
    29    51    52    1
    30    12    13    1
    31     1     2    1
    32     8    14    1
    33     7     5    1
    34    22    23    2
    35    48    46   ar
    36    48    49   ar
    37     2     5    1
    38    46    44   ar
    39    53    52    2
    40    52    58   am
    41    34    35    1
    42     5     6    1
    43    41    42    2
    44    41    40    1
    45    13    14    1
    46    49    47   ar
    47    44    43    1
    48    44    45   ar
    49    58    59    1
    50    43    40    1
    51    39    40    1
    52    39    36   am
    53    35    36    1
    54    35    38    1
    55    60    61    2
    56    60    59    1
    57    36    37    2
    58    47    45   ar
    59    59    62    1
    60    69    70    1
    61    69    66    1
    62    62    63    1
    63    62    64    1
    64    70    71    1
    65    68    67    2
    66    82    80    1
    67    66    67    1
    68    66    65    1
    69    67    72   am
    70    80    79    2
    71    80    81    1
    72    79    78    1
    73    71    65    1
    74    98    97    1
    75    98    99    1
    76    77    78    1
    77    77    76    1
    78    97    94    1
    79    72    73    1
    80    73    76    1
    81    73    74    1
    82   135   136    1
    83   135   132    1
    84    99    93    1
    85    94    93    1
    86    94    95    1
    87    74    75    2
    88    74    83   am
    89   132   131    1
    90   132   133    1
    91    93    85   am
    92   106   104    1
    93    96    95    2
    94    83    84    1
    95    95   100   am
    96   131   125   am
    97   133   134    2
    98   100   101    1
    99    85    84    1
   100    85    86    2
   101    84    87    1
   102   104   101    1
   103   104   105    1
   104   125   126    2
   105   125   124    1
   106   117   116    2
   107   101   102    1
   108   124   123    1
   109   124   127    1
   110   116   123   am
   111   116   115    1
   112   121   120   ar
   113    87    88    1
   114    90    88   ar
   115    90    92   ar
   116    88    89   ar
   117   110   109    2
   118    92    91   ar
   119   129   128    2
   120    89    91   ar
   121   102   103    2
   122   127   128    1
   123   115   118    1
   124   115   114    1
   125   128   130   am
   126   120   122   ar
   127   120   119    1
   128   118   119    1
   129   109   114   am
   130   109   108    1
   131   108   111    1
   132   108   107    1
   133   111   112    1
   134   107   113    1
   135   112   113    1
