@<TRIPOS>MOLECULE
tmp/3zqtA01.pdb
 102 99 0 0 0
SMALL
GASTEIGER

@<TRIPOS>ATOM
      1  N         10.3720   26.1380   22.1020 N.3     2  PRO2       -0.2102
      2  CA        10.8950   24.8900   22.6460 C.3     2  PRO2        0.1504
      3  C         12.4080   24.9130   22.5350 C.2     2  PRO2        0.2576
      4  O         12.9620   24.9050   21.4300 O.2     2  PRO2       -0.2718
      5  CB        10.2720   23.8090   21.7380 C.3     2  PRO2        0.0282
      6  CG         9.7260   24.5850   20.4820 C.3     2  PRO2        0.0208
      7  CD        10.1390   26.0340   20.6500 C.3     2  PRO2        0.0893
      8  N         13.0550   24.9710   23.6900 N.am    3  ILE3       -0.1966
      9  CA        14.5060   25.0020   23.7580 C.3     3  ILE3        0.1727
     10  C         15.0830   23.7280   23.1670 C.2     3  ILE3        0.2616
     11  O         16.0490   23.7710   22.4250 O.2     3  ILE3       -0.2715
     12  CB        15.0390   25.2120   25.2110 C.3     3  ILE3        0.0290
     13  CG1       14.6360   26.5970   25.7240 C.3     3  ILE3        0.0022
     14  CG2       16.5910   25.0650   25.2510 C.3     3  ILE3        0.0023
     15  CD1       14.7770   26.7950   27.2640 C.3     3  ILE3        0.0001
     16  N         14.4800   22.6000   23.5080 N.am    4  PHE4       -0.1974
     17  CA        14.9480   21.3000   23.0250 C.3     4  PHE4        0.1639
     18  C         15.0210   21.2100   21.4840 C.2     4  PHE4        0.2290
     19  O         16.0140   20.7310   20.9440 O.2     4  PHE4       -0.2864
     20  CB        14.0980   20.1870   23.6450 C.3     4  PHE4        0.0560
     21  CG        14.5200   18.8170   23.2480 C.ar    4  PHE4       -0.0200
     22  CD1       15.6070   18.2030   23.8730 C.ar    4  PHE4       -0.0042
     23  CD2       13.8230   18.1310   22.2350 C.ar    4  PHE4       -0.0042
     24  CE1       16.0100   16.9210   23.4780 C.ar    4  PHE4       -0.0003
     25  CE2       14.2090   16.8680   21.8330 C.ar    4  PHE4       -0.0003
     26  CZ        15.3020   16.2450   22.4530 C.ar    4  PHE4       -0.0000
     27  N         21.5420   17.6120   24.0680 N.3    54  PRO54      -0.2102
     28  CA        21.2800   17.9580   25.4880 C.3    54  PRO54       0.1504
     29  C         21.3730   16.7430   26.4490 C.2    54  PRO54       0.2576
     30  O         20.6780   15.7460   26.2660 O.2    54  PRO54      -0.2718
     31  CB        19.8520   18.5170   25.4660 C.3    54  PRO54       0.0282
     32  CG        19.6050   18.8960   24.0800 C.3    54  PRO54       0.0208
     33  CD        20.4460   18.0370   23.1850 C.3    54  PRO54       0.0893
     34  N         22.2440   16.8280   27.4470 N.am   55  GLY55      -0.1957
     35  CA        22.3680   15.7780   28.4750 C.3    55  GLY55       0.1869
     36  C         23.4470   14.7510   28.1730 C.2    55  GLY55       0.2309
     37  O         23.8800   13.9960   29.0670 O.2    55  GLY55      -0.2863
     38  N         26.4810   14.2000   30.3020 N.3    58  ASN58      -0.1240
     39  CA        26.1790   13.7240   31.6110 C.3    58  ASN58       0.1653
     40  C         26.4080   12.2340   31.7450 C.2    58  ASN58       0.2266
     41  O         26.6440   11.7490   32.8110 O.2    58  ASN58      -0.2867
     42  CB        24.7750   14.1450   32.0120 C.3    58  ASN58       0.1155
     43  CG        23.8510   12.9980   32.1920 C.2    58  ASN58       0.2627
     44  OD1       22.6760   13.0740   31.8730 O.2    58  ASN58      -0.2716
     45  ND2       24.3560   11.9340   32.7290 N.am   58  ASN58      -0.0877
     46  N         17.5720    7.5430   32.5340 N.3   160  GLU160     -0.1231
     47  CA        17.0930    8.9080   32.6790 C.3   160  GLU160      0.1699
     48  C         17.1620    9.6510   31.3300 C.2   160  GLU160      0.2592
     49  O         16.1840   10.2530   30.8390 O.2   160  GLU160     -0.2718
     50  CB        17.9940    9.6220   33.7120 C.3   160  GLU160      0.0402
     51  CG        17.7730   11.1440   33.9000 C.3   160  GLU160      0.1161
     52  CD        16.9780   11.4630   35.1590 C.2   160  GLU160      0.3649
     53  OE1       15.7510   11.2150   35.1760 O.co2 160  GLU160     -0.2457
     54  OE2       17.5850   11.9500   36.1410 O.co2 160  GLU160     -0.2457
     55  N         18.3370    9.6100   30.7290 N.am  161  LEU161     -0.1980
     56  CA        18.5340   10.3270   29.4900 C.3   161  LEU161      0.1596
     57  C         17.4710    9.8940   28.4580 C.2   161  LEU161      0.2287
     58  O         16.7910   10.7350   27.8590 O.2   161  LEU161     -0.2864
     59  CB        19.9570   10.0880   29.0070 C.3   161  LEU161      0.0297
     60  CG        20.5700   11.1490   28.1120 C.3   161  LEU161      0.0022
     61  CD1       20.4730   12.5250   28.7590 C.3   161  LEU161      0.0001
     62  CD2       22.0260   10.7830   27.7250 C.3   161  LEU161      0.0001
     63  N         13.8640   10.7680   28.8660 N.3   164  ASN164     -0.1225
     64  CA        13.6310   12.1820   28.5530 C.3   164  ASN164      0.1785
     65  C         13.4230   12.4120   27.0740 C.2   164  ASN164      0.2597
     66  O         12.4840   13.1160   26.6830 O.2   164  ASN164     -0.2718
     67  CB        14.6920   13.0910   29.1790 C.3   164  ASN164      0.1169
     68  CG        14.3440   13.4520   30.6460 C.2   164  ASN164      0.2627
     69  OD1       13.2280   13.8650   30.9310 O.2   164  ASN164     -0.2716
     70  ND2       15.2880   13.2860   31.5570 N.am  164  ASN164     -0.0877
     71  N         14.2390   11.7360   26.2620 N.am  165  TYR165     -0.1976
     72  CA        14.1120   11.7620   24.8060 C.3   165  TYR165      0.1639
     73  C         12.7850   11.1470   24.3780 C.2   165  TYR165      0.2290
     74  O         12.1770   11.5850   23.4050 O.2   165  TYR165     -0.2864
     75  CB        15.3460   11.1260   24.1290 C.3   165  TYR165      0.0560
     76  CG        16.5070   12.1060   24.0990 C.ar  165  TYR165     -0.0198
     77  CD1       17.2620   12.3830   25.2530 C.ar  165  TYR165     -0.0009
     78  CD2       16.7990   12.8270   22.9450 C.ar  165  TYR165     -0.0009
     79  CE1       18.3050   13.3250   25.2470 C.ar  165  TYR165      0.0417
     80  CE2       17.8200   13.7830   22.9210 C.ar  165  TYR165      0.0417
     81  CZ        18.5810   14.0310   24.0690 C.ar  165  TYR165      0.1957
     82  OH        19.6230   14.9570   24.0030 O.3   165  TYR165     -0.2866
     83  N         10.2350   13.9640   25.1130 N.3   168  GLU168     -0.1245
     84  CA        10.3630   15.0080   24.0920 C.3   168  GLU168      0.1567
     85  C          9.6950   14.6650   22.7810 C.2   168  GLU168      0.2260
     86  O          8.9820   15.4830   22.2290 O.2   168  GLU168     -0.2867
     87  CB        11.8040   15.4510   23.8920 C.3   168  GLU168      0.0388
     88  CG        12.3300   16.2660   25.0900 C.3   168  GLU168      0.1160
     89  CD        11.3630   17.3640   25.5780 C.2   168  GLU168      0.3649
     90  OE1       10.6350   17.9840   24.7620 O.co2 168  GLU168     -0.2457
     91  OE2       11.3320   17.6050   26.7990 O.co2 168  GLU168     -0.2457
     92  N          6.3320   14.9990   23.3980 N.3   171  ARG171     -0.1245
     93  CA         6.0090   16.4260   23.5060 C.3   171  ARG171      0.1563
     94  C          5.7750   17.0220   22.1120 C.2   171  ARG171      0.2260
     95  O          4.7900   17.7460   21.8880 O.2   171  ARG171     -0.2867
     96  CB         7.1120   17.1870   24.2570 C.3   171  ARG171      0.0307
     97  CG         6.7310   18.5810   24.7540 C.3   171  ARG171      0.0489
     98  CD         7.9730   19.3800   25.1740 C.3   171  ARG171      0.2205
     99  NE         8.1110   19.5830   26.6160 N.pl3 171  ARG171     -0.0865
    100  CZ         8.4520   18.6520   27.5060 C.cat 171  ARG171      0.5346
    101  NH1        8.6700   17.4030   27.1360 N.pl3 171  ARG171      0.1354
    102  NH2        8.5610   18.9700   28.7910 N.pl3 171  ARG171      0.1354
@<TRIPOS>BOND
     1     6     7    1
     2     6     5    1
     3     7     1    1
     4    19    18    2
     5     4     3    2
     6    18    17    1
     7     5     2    1
     8    25    23   ar
     9    25    26   ar
    10    95    94    2
    11     1     2    1
    12    94    93    1
    13    86    85    2
    14    23    21   ar
    15    11    10    2
    16    26    24   ar
    17     3     2    1
    18     3     8   am
    19    85    84    1
    20    80    78   ar
    21    80    81   ar
    22    78    76   ar
    23    17    16    1
    24    17    20    1
    25    10    16   am
    26    10     9    1
    27    33    27    1
    28    33    32    1
    29    21    20    1
    30    21    22   ar
    31    92    93    1
    32    74    73    2
    33    24    22   ar
    34    93    96    1
    35     8     9    1
    36     9    12    1
    37    87    84    1
    38    87    88    1
    39    82    81    1
    40    27    28    1
    41    81    79   ar
    42    32    31    1
    43    84    83    1
    44    76    75    1
    45    76    77   ar
    46    75    72    1
    47    96    97    1
    48    73    72    1
    49    97    98    1
    50    90    89   ar
    51    72    71    1
    52    88    89    1
    53    98    99    1
    54    12    14    1
    55    12    13    1
    56    79    77   ar
    57    31    28    1
    58    28    29    1
    59    89    91   ar
    60    13    15    1
    61    71    65   am
    62    30    29    2
    63    29    34   am
    64    99   100    2
    65    66    65    2
    66    65    64    1
    67   101   100    1
    68    34    35    1
    69   100   102    1
    70    62    60    1
    71    58    57    2
    72    60    61    1
    73    60    59    1
    74    36    35    1
    75    36    37    2
    76    57    56    1
    77    64    63    1
    78    64    67    1
    79    59    56    1
    80    67    68    1
    81    56    55    1
    82    38    39    1
    83    68    69    2
    84    68    70   am
    85    55    48   am
    86    49    48    2
    87    48    47    1
    88    39    40    1
    89    39    42    1
    90    40    41    2
    91    44    43    2
    92    42    43    1
    93    43    45   am
    94    46    47    1
    95    47    50    1
    96    50    51    1
    97    51    52    1
    98    52    53   ar
    99    52    54   ar
