@<TRIPOS>MOLECULE
tmp/3zquA00.pdb
 125 116 0 0 0
SMALL
GASTEIGER

@<TRIPOS>ATOM
      1  N         -6.6060   21.0520  -42.2770 N.3    12  THR12      -0.1203
      2  CA        -7.2700   21.4160  -43.5140 C.3    12  THR12       0.1994
      3  C         -6.5680   22.6570  -44.1160 C.2    12  THR12       0.2618
      4  O         -5.6310   23.2150  -43.5020 O.2    12  THR12      -0.2717
      5  CB        -8.7890   21.6630  -43.3020 C.3    12  THR12       0.1784
      6  OG1       -8.9360   22.7850  -42.3990 O.3    12  THR12      -0.2211
      7  CG2       -9.4670   20.4460  -42.7040 C.3    12  THR12       0.0376
      8  N         -7.0040   23.0650  -45.3150 N.am   13  GLY13      -0.1942
      9  CA        -6.1990   23.9120  -46.2010 C.3    13  GLY13       0.2014
     10  C         -6.1770   25.4060  -45.8930 C.2    13  GLY13       0.2639
     11  O         -6.1610   26.2000  -46.7910 O.2    13  GLY13      -0.2714
     12  N         -6.2160   25.7920  -44.6200 N.am   14  ALA14      -0.1963
     13  CA        -5.8650   27.1810  -44.2920 C.3    14  ALA14       0.1728
     14  C         -4.3470   27.3090  -44.1300 C.2    14  ALA14       0.2616
     15  O         -3.6670   26.3250  -43.7570 O.2    14  ALA14      -0.2715
     16  CB        -6.5390   27.6270  -43.0130 C.3    14  ALA14       0.0334
     17  N         -3.8250   28.5190  -44.3340 N.am   15  SER15      -0.1950
     18  CA        -2.4490   28.8160  -43.9570 C.3    15  SER15       0.1924
     19  C         -2.2180   28.5520  -42.4750 C.2    15  SER15       0.2314
     20  O         -3.1220   28.7140  -41.6270 O.2    15  SER15      -0.2863
     21  CB        -2.1320   30.2640  -44.3390 C.3    15  SER15       0.2116
     22  OG        -0.7280   30.4610  -44.2350 O.3    15  SER15      -0.2180
     23  N         -6.4900   17.0570  -45.3180 N.3    39  SER39      -0.1217
     24  CA        -7.1490   17.2480  -46.5720 C.3    39  SER39       0.1889
     25  C         -6.1770   17.4020  -47.7390 C.2    39  SER39       0.2288
     26  O         -4.9900   17.7030  -47.5490 O.2    39  SER39      -0.2866
     27  CB        -8.0780   18.4960  -46.4980 C.3    39  SER39       0.2089
     28  OG        -7.3180   19.6880  -46.6120 O.3    39  SER39      -0.2183
     29  N         -6.1570   19.8820  -49.9180 N.3    41  ALA41      -0.1245
     30  CA        -5.6560   21.2420  -49.9660 C.3    41  ALA41       0.1562
     31  C         -4.6090   21.4450  -48.8660 C.2    41  ALA41       0.2260
     32  O         -3.6400   22.1720  -49.0550 O.2    41  ALA41      -0.2867
     33  CB        -6.8460   22.2300  -49.7780 C.3    41  ALA41       0.0290
     34  N         -1.2220   20.5740  -49.9490 N.3    44  LEU44      -0.1231
     35  CA        -0.6060   21.6020  -50.7860 C.3    44  LEU44       0.1693
     36  C         -0.0880   22.7320  -49.9050 C.2    44  LEU44       0.2591
     37  O          0.9790   23.2630  -50.1290 O.2    44  LEU44      -0.2718
     38  CB        -1.5960   22.0870  -51.8480 C.3    44  LEU44       0.0284
     39  CG        -1.9420   21.1240  -52.9850 C.3    44  LEU44       0.0019
     40  CD1       -1.6780   19.6640  -52.6210 C.3    44  LEU44       0.0001
     41  CD2       -3.3840   21.3450  -53.4410 C.3    44  LEU44       0.0001
     42  N         -0.8480   23.1160  -48.8770 N.am   45  VAL45      -0.1980
     43  CA        -0.3870   24.1660  -48.0070 C.3    45  VAL45       0.1595
     44  C          0.9270   23.7280  -47.3140 C.2    45  VAL45       0.2287
     45  O          1.8880   24.5180  -47.2310 O.2    45  VAL45      -0.2864
     46  CB        -1.4450   24.4920  -46.8750 C.3    45  VAL45       0.0276
     47  CG1       -0.8520   25.5070  -45.8910 C.3    45  VAL45       0.0022
     48  CG2       -2.7120   25.0890  -47.5070 C.3    45  VAL45       0.0022
     49  N          3.8140   24.0700  -49.6570 N.3    48  THR48      -0.1203
     50  CA         4.0580   25.4970  -49.9610 C.3    48  THR48       0.1994
     51  C          4.7530   26.2200  -48.8140 C.2    48  THR48       0.2617
     52  O          5.6550   27.0040  -49.0620 O.2    48  THR48      -0.2717
     53  CB         2.6830   26.2240  -50.1870 C.3    48  THR48       0.1784
     54  OG1        1.9500   25.5530  -51.2080 O.3    48  THR48      -0.2211
     55  CG2        2.8510   27.6840  -50.6540 C.3    48  THR48       0.0376
     56  N          4.3640   25.9640  -47.5610 N.am   49  GLU49      -0.1979
     57  CA         4.7350   26.7990  -46.4020 C.3    49  GLU49       0.1602
     58  C          5.8050   26.2210  -45.5420 C.2    49  GLU49       0.2287
     59  O          6.3060   26.8930  -44.6420 O.2    49  GLU49      -0.2864
     60  CB         3.5400   26.9120  -45.4190 C.3    49  GLU49       0.0415
     61  CG         2.3810   27.5150  -46.0160 C.3    49  GLU49       0.1163
     62  CD         1.3740   28.0190  -44.9640 C.2    49  GLU49       0.3649
     63  OE1        1.2260   27.5250  -43.7730 O.co2  49  GLU49      -0.2457
     64  OE2        0.7060   28.9250  -45.4360 O.co2  49  GLU49      -0.2457
     65  N         -9.7740   25.5770  -42.3800 N.3   104  SER104     -0.1202
     66  CA       -10.1240   26.4480  -43.4950 C.3   104  SER104      0.2020
     67  C        -11.5790   26.9490  -43.3420 C.2   104  SER104      0.2619
     68  O        -12.4090   26.3540  -42.6100 O.2   104  SER104     -0.2717
     69  CB       -10.0170   25.6580  -44.8110 C.3   104  SER104      0.2103
     70  OG       -11.0410   24.6490  -44.8680 O.3   104  SER104     -0.2182
     71  N        -11.8830   28.0190  -44.0760 N.am  105  THR105     -0.1938
     72  CA       -13.2660   28.5270  -44.0020 C.3   105  THR105      0.2028
     73  C        -14.2060   27.4870  -44.6330 C.2   105  THR105      0.2643
     74  O        -15.3830   27.3670  -44.2040 O.2   105  THR105     -0.2714
     75  CB       -13.4540   29.9190  -44.6270 C.3   105  THR105      0.1808
     76  OG1      -13.1400   29.8300  -46.0010 O.3   105  THR105     -0.2208
     77  CG2      -12.5350   30.9440  -43.9320 C.3   105  THR105      0.0379
     78  N        -13.7280   26.7250  -45.6370 N.am  106  GLY106     -0.1939
     79  CA       -14.5410   25.6890  -46.2460 C.3   106  GLY106      0.2014
     80  C        -14.8780   24.5710  -45.2730 C.2   106  GLY106      0.2639
     81  O        -16.0190   24.0630  -45.3080 O.2   106  GLY106     -0.2714
     82  N        -13.9100   24.1340  -44.4620 N.am  107  THR107     -0.1950
     83  CA       -14.1890   23.1140  -43.4790 C.3   107  THR107      0.1897
     84  C        -15.0790   23.6310  -42.3560 C.2   107  THR107      0.2313
     85  O        -16.0250   22.9540  -41.9320 O.2   107  THR107     -0.2863
     86  CB       -12.9410   22.4510  -42.9660 C.3   107  THR107      0.1794
     87  OG1      -12.4160   21.6410  -44.0530 O.3   107  THR107     -0.2208
     88  CG2      -13.2340   21.5410  -41.7560 C.3   107  THR107      0.0378
     89  N        -16.3750   14.3930  -46.4130 N.3   118  ASN118     -0.1240
     90  CA       -15.1490   13.5930  -46.2420 C.3   118  ASN118      0.1653
     91  C        -15.0060   13.2260  -44.7870 C.2   118  ASN118      0.2266
     92  O        -15.8590   13.5960  -43.9510 O.2   118  ASN118     -0.2867
     93  CB       -13.9600   14.3860  -46.7570 C.3   118  ASN118      0.1155
     94  CG       -13.7570   15.6990  -46.0180 C.2   118  ASN118      0.2627
     95  OD1      -13.8230   15.7460  -44.8110 O.2   118  ASN118     -0.2716
     96  ND2      -13.2820   16.7050  -46.7400 N.am  118  ASN118     -0.0877
     97  N        -14.9710   16.0900  -42.1710 N.3   121  GLU121     -0.1245
     98  CA       -16.2750   16.7410  -41.9510 C.3   121  GLU121      0.1567
     99  C        -17.1840   15.8190  -41.1470 C.2   121  GLU121      0.2260
    100  O        -17.8650   16.2600  -40.1810 O.2   121  GLU121     -0.2867
    101  CB       -16.8500   17.1310  -43.2950 C.3   121  GLU121      0.0388
    102  CG       -16.0020   18.2050  -44.0070 C.3   121  GLU121      0.1160
    103  CD       -16.4390   18.5010  -45.4260 C.2   121  GLU121      0.3649
    104  OE1      -17.5380   18.0990  -45.8010 O.co2 121  GLU121     -0.2457
    105  OE2      -15.6610   19.1960  -46.1400 O.co2 121  GLU121     -0.2457
    106  N         -7.9060   30.1430  -39.6310 N.3   139  ARG139     -0.1231
    107  CA        -6.8890   31.1530  -39.9630 C.3   139  ARG139      0.1694
    108  C         -7.3700   31.8390  -41.2330 C.2   139  ARG139      0.2591
    109  O         -7.4070   31.2040  -42.2920 O.2   139  ARG139     -0.2718
    110  CB        -5.5270   30.4720  -40.2860 C.3   139  ARG139      0.0321
    111  CG        -4.2470   31.3660  -40.1410 C.3   139  ARG139      0.0489
    112  CD        -4.3260   32.7610  -40.8410 C.3   139  ARG139      0.2205
    113  NE        -4.5940   32.6730  -42.2580 N.pl3 139  ARG139     -0.0865
    114  CZ        -4.7920   33.7550  -43.0360 C.cat 139  ARG139      0.5346
    115  NH1       -4.7170   35.0040  -42.5560 N.pl3 139  ARG139      0.1354
    116  NH2       -5.0500   33.5760  -44.3210 N.pl3 139  ARG139      0.1354
    117  N         -7.8510   33.0810  -41.1030 N.am  140  GLU140     -0.1979
    118  CA        -8.3900   33.7980  -42.2530 C.3   140  GLU140      0.1602
    119  C         -8.4020   35.2440  -41.7880 C.2   140  GLU140      0.2287
    120  O         -8.4740   35.5370  -40.5870 O.2   140  GLU140     -0.2864
    121  CB        -9.8330   33.3010  -42.5530 C.3   140  GLU140      0.0415
    122  CG       -10.5160   34.0910  -43.7320 C.3   140  GLU140      0.1163
    123  CD        -9.7400   33.9700  -45.0020 C.2   140  GLU140      0.3649
    124  OE1       -8.7920   34.7860  -45.1690 O.co2 140  GLU140     -0.2457
    125  OE2      -10.0330   33.0560  -45.7860 O.co2 140  GLU140     -0.2457
@<TRIPOS>BOND
     1    41    39    1
     2    39    40    1
     3    39    38    1
     4    38    35    1
     5    54    53    1
     6    35    34    1
     7    35    36    1
     8    55    53    1
     9    53    50    1
    10    37    36    2
    11    30    29    1
    12    30    33    1
    13    30    31    1
    14    50    49    1
    15    50    51    1
    16    36    42   am
    17    52    51    2
    18    32    31    2
    19    42    43    1
    20    51    56   am
    21    43    44    1
    22    43    46    1
    23    25    26    2
    24    25    24    1
    25    56    57    1
    26    48    46    1
    27    44    45    2
    28    46    47    1
    29    11    10    2
    30    93    90    1
    31    93    94    1
    32    96    94   am
    33    28    27    1
    34    24    27    1
    35    24    23    1
    36    89    90    1
    37    57    58    1
    38    57    60    1
    39    79    78    1
    40    79    80    1
    41    90    91    1
    42     9    10    1
    43     9     8    1
    44   105   103   ar
    45    94    95    2
    46    61    60    1
    47    61    62    1
    48    76    75    1
    49    10    12   am
    50   104   103   ar
    51   125   123   ar
    52    78    73   am
    53    58    59    2
    54    64    62   ar
    55   103   102    1
    56     8     3   am
    57    81    80    2
    58    80    82   am
    59   124   123   ar
    60   123   122    1
    61    62    63   ar
    62    70    69    1
    63    69    66    1
    64    91    92    2
    65    73    74    2
    66    73    72    1
    67    75    72    1
    68    75    77    1
    69    12    13    1
    70    82    83    1
    71    21    22    1
    72    21    18    1
    73    17    14   am
    74    17    18    1
    75   116   114    1
    76    13    14    1
    77    13    16    1
    78    14    15    2
    79     3     2    1
    80     3     4    2
    81    71    72    1
    82    71    67   am
    83    87    86    1
    84   102   101    1
    85    18    19    1
    86   122   121    1
    87     2     5    1
    88     2     1    1
    89    66    67    1
    90    66    65    1
    91    83    86    1
    92    83    84    1
    93    67    68    2
    94     5     7    1
    95     5     6    1
    96   101    98    1
    97   114   115    1
    98   114   113    2
    99    86    88    1
   100   121   118    1
   101    19    20    2
   102    84    85    2
   103   109   108    2
   104   113   112    1
   105   118   119    1
   106   118   117    1
   107    97    98    1
   108    98    99    1
   109   119   120    2
   110   108   117   am
   111   108   107    1
   112    99   100    2
   113   112   111    1
   114   110   111    1
   115   110   107    1
   116   107   106    1
