@<TRIPOS>MOLECULE
tmp/3zr0B00.pdb
 205 201 0 0 0
SMALL
GASTEIGER

@<TRIPOS>ATOM
      1  N         34.8480    4.6840  -12.6410 N.3     6  TYR6       -0.1227
      2  CA        34.7800    6.0250  -12.1650 C.3     6  TYR6        0.1736
      3  C         34.1400    6.0280  -10.7720 C.2     6  TYR6        0.2596
      4  O         33.4990    5.0400  -10.3800 O.2     6  TYR6       -0.2718
      5  CB        33.8390    6.8520  -13.0110 C.3     6  TYR6        0.0548
      6  CG        34.3960    7.0900  -14.3860 C.ar    6  TYR6       -0.0200
      7  CD1       34.2140    6.1630  -15.3880 C.ar    6  TYR6       -0.0009
      8  CD2       35.0720    8.2500  -14.6800 C.ar    6  TYR6       -0.0009
      9  CE1       34.7460    6.4020  -16.6960 C.ar    6  TYR6        0.0417
     10  CE2       35.5490    8.4960  -15.9310 C.ar    6  TYR6        0.0417
     11  CZ        35.3950    7.5700  -16.9200 C.ar    6  TYR6        0.1957
     12  OH        35.9160    7.8490  -18.1500 O.3     6  TYR6       -0.2866
     13  N         34.3630    7.1270  -10.0800 N.am    7  THR7       -0.1939
     14  CA        33.7840    7.3150   -8.7560 C.3     7  THR7        0.2028
     15  C         32.9480    8.5570   -8.7440 C.2     7  THR7        0.2642
     16  O         33.0880    9.4500   -9.5870 O.2     7  THR7       -0.2714
     17  CB        34.9120    7.3980   -7.6920 C.3     7  THR7        0.1808
     18  OG1       35.7390    8.5230   -7.9380 O.3     7  THR7       -0.2208
     19  CG2       35.7340    6.1500   -7.7240 C.3     7  THR7        0.0379
     20  N         32.0040    8.6210   -7.8060 N.am    8  LEU8       -0.1977
     21  CA        31.1690    9.7690   -7.6360 C.3     8  LEU8        0.1596
     22  C         30.8740    9.8290   -6.1480 C.2     8  LEU8        0.2287
     23  O         30.4920    8.7890   -5.5860 O.2     8  LEU8       -0.2864
     24  CB        29.8780    9.6110   -8.4610 C.3     8  LEU8        0.0297
     25  CG        28.8750   10.7300   -8.3230 C.3     8  LEU8        0.0022
     26  CD1       29.4490   12.0480   -8.7150 C.3     8  LEU8        0.0001
     27  CD2       27.6000   10.4220   -9.1350 C.3     8  LEU8        0.0001
     28  N         31.0510   21.8800  -12.4140 N.3    18  LYS18      -0.1245
     29  CA        32.1890   21.3820  -13.1980 C.3    18  LYS18       0.1561
     30  C         32.6650   22.4170  -14.2260 C.2    18  LYS18       0.2260
     31  O         31.9120   22.8770  -15.0860 O.2    18  LYS18      -0.2867
     32  CB        31.8280   20.0570  -13.8830 C.3    18  LYS18       0.0271
     33  CG        32.9700   19.3120  -14.5990 C.3    18  LYS18       0.0035
     34  CD        33.9170   18.5340  -13.6400 C.3    18  LYS18       0.0206
     35  CE        35.0680   17.7900  -14.3810 C.3    18  LYS18       0.1093
     36  NZ        34.5630   16.5440  -14.9310 N.3    18  LYS18      -0.1314
     37  N         34.5280   16.5290  -18.8420 N.3    22  PHE22      -0.1241
     38  CA        33.2960   15.8130  -18.9570 C.3    22  PHE22       0.1605
     39  C         32.2470   16.4340  -18.0140 C.2    22  PHE22       0.2264
     40  O         32.5140   16.5880  -16.8330 O.2    22  PHE22      -0.2867
     41  CB        33.5390   14.3440  -18.6320 C.3    22  PHE22       0.0534
     42  CG        32.2990   13.4860  -18.6500 C.ar   22  PHE22      -0.0203
     43  CD1       31.8630   12.9060  -19.8310 C.ar   22  PHE22      -0.0042
     44  CD2       31.5840   13.2580  -17.4720 C.ar   22  PHE22      -0.0042
     45  CE1       30.7100   12.1090  -19.8550 C.ar   22  PHE22      -0.0003
     46  CE2       30.4450   12.4650  -17.4650 C.ar   22  PHE22      -0.0003
     47  CZ        30.0120   11.8770  -18.6780 C.ar   22  PHE22      -0.0000
     48  N         27.4000   18.4080   -9.9320 N.3    28  ASN28      -0.1225
     49  CA        27.5380   16.9450   -9.7600 C.3    28  ASN28       0.1785
     50  C         28.2730   16.6780   -8.4420 C.2    28  ASN28       0.2598
     51  O         28.8440   17.5900   -7.8550 O.2    28  ASN28      -0.2718
     52  CB        28.2780   16.3310  -10.9570 C.3    28  ASN28       0.1169
     53  CG        28.0410   14.8440  -11.0810 C.2    28  ASN28       0.2627
     54  OD1       27.4430   14.2430  -10.1980 O.2    28  ASN28      -0.2716
     55  ND2       28.4640   14.2540  -12.1860 N.am   28  ASN28      -0.0877
     56  N         28.2440   15.4330   -7.9700 N.am   29  GLY29      -0.1942
     57  CA        29.1290   15.0460   -6.8950 C.3    29  GLY29       0.2014
     58  C         30.5800   15.0270   -7.4110 C.2    29  GLY29       0.2639
     59  O         30.8410   15.3000   -8.5850 O.2    29  GLY29      -0.2714
     60  N         31.5020   14.6870   -6.5280 N.am   30  PHE30      -0.1959
     61  CA        32.9230   14.7240   -6.8120 C.3    30  PHE30       0.1774
     62  C         33.4040   13.3480   -7.1470 C.2    30  PHE30       0.2659
     63  O         32.8440   12.3250   -6.7040 O.2    30  PHE30      -0.2711
     64  CB        33.7010   15.2640   -5.6120 C.3    30  PHE30       0.0574
     65  CG        33.1890   16.5920   -5.1600 C.ar   30  PHE30      -0.0200
     66  CD1       33.5530   17.7290   -5.8300 C.ar   30  PHE30      -0.0042
     67  CD2       32.2390   16.6870   -4.1450 C.ar   30  PHE30      -0.0042
     68  CE1       33.0270   18.9650   -5.4800 C.ar   30  PHE30      -0.0003
     69  CE2       31.7110   17.9390   -3.7820 C.ar   30  PHE30      -0.0003
     70  CZ        32.0940   19.0740   -4.4510 C.ar   30  PHE30      -0.0000
     71  N         34.3800   13.3150   -8.0120 N.am   31  GLY31      -0.1716
     72  CA        34.9060   12.0540   -8.4760 C.2    31  GLY31       0.1480
     73  C         35.7100   12.0980   -9.7660 C.2    31  GLY31       0.2821
     74  O         36.1860   13.1620  -10.2060 O.2    31  GLY31      -0.2669
     75  N         35.9480   10.9170  -10.3270 N.am   32  GLY32      -0.1905
     76  CA        36.7670   10.8590  -11.5170 C.3    32  GLY32       0.2017
     77  C         37.1630    9.4560  -11.8720 C.2    32  GLY32       0.2638
     78  O         36.5590    8.4980  -11.4260 O.2    32  GLY32      -0.2714
     79  N         38.2160    9.3470  -12.6570 N.am   33  LYS33      -0.1977
     80  CA        38.6750    8.0450  -13.0790 C.3    33  LYS33       0.1596
     81  C         39.4290    7.3810  -11.9260 C.2    33  LYS33       0.2287
     82  O         39.9950    8.0730  -11.0550 O.2    33  LYS33      -0.2864
     83  CB        39.6540    8.1530  -14.2910 C.3    33  LYS33       0.0298
     84  CG        38.9110    8.4340  -15.6110 C.3    33  LYS33       0.0038
     85  CD        39.8210    9.2140  -16.5720 C.3    33  LYS33       0.0206
     86  CE        39.1900    9.2860  -17.9800 C.3    33  LYS33       0.1093
     87  NZ        40.2290    9.7200  -18.9790 N.3    33  LYS33      -0.1314
     88  N         39.9140   11.9170   -5.1490 N.3    47  GLU47      -0.1245
     89  CA        39.2320   12.9130   -6.0030 C.3    47  GLU47       0.1567
     90  C         38.4520   13.9440   -5.2360 C.2    47  GLU47       0.2260
     91  O         38.4440   15.1380   -5.5940 O.2    47  GLU47      -0.2867
     92  CB        38.3050   12.2280   -7.0050 C.3    47  GLU47       0.0388
     93  CG        39.0350   11.6890   -8.2050 C.3    47  GLU47       0.1160
     94  CD        39.5080   12.7630   -9.1640 C.2    47  GLU47       0.3649
     95  OE1       39.3630   13.9790   -8.8710 O.co2  47  GLU47      -0.2457
     96  OE2       40.0020   12.3800  -10.2360 O.co2  47  GLU47      -0.2457
     97  N         39.3180   17.8540   -5.6510 N.3    51  GLU51      -0.1245
     98  CA        38.3060   18.7010   -6.2350 C.3    51  GLU51       0.1567
     99  C         37.6500   19.7210   -5.2770 C.2    51  GLU51       0.2260
    100  O         37.1250   20.7210   -5.7410 O.2    51  GLU51      -0.2867
    101  CB        37.2210   17.8400   -6.8670 C.3    51  GLU51       0.0388
    102  CG        37.7270   17.1250   -8.1210 C.3    51  GLU51       0.1160
    103  CD        36.5900   16.5420   -8.9520 C.2    51  GLU51       0.3649
    104  OE1       35.5300   16.1390   -8.3950 O.co2  51  GLU51      -0.2457
    105  OE2       36.7600   16.4750  -10.1860 O.co2  51  GLU51      -0.2457
    106  N         26.2470    2.9130  -11.1970 N.3    65  ILE65      -0.1245
    107  CA        25.4980    3.3120  -12.3800 C.3    65  ILE65       0.1561
    108  C         26.4010    3.1530  -13.5600 C.2    65  ILE65       0.2260
    109  O         27.5380    3.6350  -13.5430 O.2    65  ILE65      -0.2867
    110  CB        25.0310    4.8150  -12.3350 C.3    65  ILE65       0.0252
    111  CG1       24.3460    5.1340  -10.9920 C.3    65  ILE65       0.0019
    112  CG2       24.0280    5.0430  -13.5110 C.3    65  ILE65       0.0019
    113  CD1       24.2090    6.6580  -10.7510 C.3    65  ILE65       0.0001
    114  N         26.8860    3.8810  -17.4430 N.3    67  PHE67      -0.1241
    115  CA        26.4270    4.8180  -18.5350 C.3    67  PHE67       0.1605
    116  C         26.9430    4.3320  -19.8390 C.2    67  PHE67       0.2264
    117  O         28.1040    4.0360  -19.9260 O.2    67  PHE67      -0.2867
    118  CB        26.9400    6.2120  -18.3540 C.3    67  PHE67       0.0534
    119  CG        26.3890    6.8920  -17.1460 C.ar   67  PHE67      -0.0203
    120  CD1       25.0850    7.4030  -17.1700 C.ar   67  PHE67      -0.0042
    121  CD2       27.1080    6.8980  -15.9520 C.ar   67  PHE67      -0.0042
    122  CE1       24.5410    7.9580  -16.0770 C.ar   67  PHE67      -0.0003
    123  CE2       26.5860    7.5170  -14.8420 C.ar   67  PHE67      -0.0003
    124  CZ        25.2920    8.0290  -14.8860 C.ar   67  PHE67      -0.0000
    125  N         27.1630    5.8070  -23.6680 N.3    69  PHE69      -0.1241
    126  CA        26.9640    6.9000  -24.6400 C.3    69  PHE69       0.1605
    127  C         27.0330    6.3440  -26.0630 C.2    69  PHE69       0.2264
    128  O         28.0350    5.7390  -26.4220 O.2    69  PHE69      -0.2867
    129  CB        28.0290    7.9740  -24.3830 C.3    69  PHE69       0.0534
    130  CG        27.7660    8.7740  -23.1170 C.ar   69  PHE69      -0.0203
    131  CD1       26.9110    9.8760  -23.1470 C.ar   69  PHE69      -0.0042
    132  CD2       28.3030    8.3830  -21.9050 C.ar   69  PHE69      -0.0042
    133  CE1       26.6370   10.5990  -22.0040 C.ar   69  PHE69      -0.0003
    134  CE2       28.0140    9.0790  -20.7390 C.ar   69  PHE69      -0.0003
    135  CZ        27.1880   10.1570  -20.7590 C.ar   69  PHE69      -0.0000
    136  N         30.9820    3.6660  -18.9370 N.3    76  MET76      -0.1245
    137  CA        31.3820    4.3270  -17.6980 C.3    76  MET76       0.1570
    138  C         30.7210    3.5870  -16.5060 C.2    76  MET76       0.2261
    139  O         29.5010    3.5380  -16.3810 O.2    76  MET76      -0.2867
    140  CB        30.9560    5.7810  -17.7270 C.3    76  MET76       0.0387
    141  CG        31.5410    6.5440  -18.8580 C.3    76  MET76       0.0595
    142  SD        30.9990    8.2590  -18.8410 S.3    76  MET76      -0.1393
    143  CE        32.0730    8.9510  -17.5680 C.3    76  MET76       0.0692
    144  N         30.3000    3.6750  -12.9110 N.3    78  VAL78      -0.1245
    145  CA        30.3700    4.7000  -11.9020 C.3    78  VAL78       0.1561
    146  C         30.0290    4.0880  -10.5580 C.2    78  VAL78       0.2260
    147  O         28.8610    3.7340  -10.3310 O.2    78  VAL78      -0.2867
    148  CB        29.4760    5.9360  -12.1950 C.3    78  VAL78       0.0252
    149  CG1       29.6730    7.0640  -11.0680 C.3    78  VAL78       0.0019
    150  CG2       29.8050    6.5200  -13.6160 C.3    78  VAL78       0.0019
    151  N         23.2550   16.4640  -14.7590 N.3   112  TRP112     -0.1241
    152  CA        23.0050   15.3420  -15.7080 C.3   112  TRP112      0.1605
    153  C         21.5200   14.8750  -15.5760 C.2   112  TRP112      0.2264
    154  O         21.0540   14.7280  -14.4810 O.2   112  TRP112     -0.2867
    155  CB        23.9260   14.1720  -15.4080 C.3   112  TRP112      0.0550
    156  CG        25.3440   14.4060  -15.9400 C.ar  112  TRP112      0.0003
    157  CD1       26.4290   14.8650  -15.2440 C.ar  112  TRP112      0.0946
    158  CD2       25.7850   14.1610  -17.2710 C.ar  112  TRP112      0.0152
    159  NE1       27.5260   14.9390  -16.0860 N.ar  112  TRP112     -0.2442
    160  CE2       27.1540   14.4830  -17.3260 C.ar  112  TRP112      0.0810
    161  CE3       25.1700   13.6490  -18.4130 C.ar  112  TRP112      0.0012
    162  CZ2       27.9000   14.3840  -18.5140 C.ar  112  TRP112      0.0191
    163  CZ3       25.9380   13.5410  -19.5950 C.ar  112  TRP112      0.0001
    164  CH2       27.2560   13.9140  -19.6220 C.ar  112  TRP112      0.0015
    165  N         20.0370   12.1220  -15.7040 N.3   114  ASP114     -0.1225
    166  CA        19.8020   10.9180  -14.9480 C.3   114  ASP114      0.1805
    167  C         19.6050   11.1330  -13.4550 C.2   114  ASP114      0.2597
    168  O         18.9300   10.3360  -12.8190 O.2   114  ASP114     -0.2718
    169  CB        20.8700    9.8280  -15.2040 C.3   114  ASP114      0.1424
    170  CG        22.2390   10.2740  -14.8370 C.2   114  ASP114      0.3668
    171  OD1       22.7880   11.1650  -15.5470 O.co2 114  ASP114     -0.2456
    172  OD2       22.7550    9.8220  -13.8020 O.co2 114  ASP114     -0.2456
    173  N         20.1700   12.1990  -12.9090 N.am  115  ASP115     -0.1974
    174  CA        20.2060   12.4010  -11.4650 C.3   115  ASP115      0.1709
    175  C         18.8310   12.4460  -10.8260 C.2   115  ASP115      0.2293
    176  O         18.6700   11.9030   -9.7740 O.2   115  ASP115     -0.2864
    177  CB        20.9810   13.6380  -11.1290 C.3   115  ASP115      0.1436
    178  CG        22.4370   13.4950  -11.4450 C.2   115  ASP115      0.3671
    179  OD1       22.8960   12.4400  -11.9080 O.co2 115  ASP115     -0.2456
    180  OD2       23.1920   14.4260  -11.2460 O.co2 115  ASP115     -0.2456
    181  N         17.6080    8.7810   -9.8750 N.3   118  TRP118     -0.1227
    182  CA        18.1920    7.9850   -8.7670 C.3   118  TRP118      0.1737
    183  C         18.3660    8.6900   -7.4230 C.2   118  TRP118      0.2595
    184  O         18.6210    8.0600   -6.3650 O.2   118  TRP118     -0.2718
    185  CB        19.5200    7.2850   -9.1920 C.3   118  TRP118      0.0564
    186  CG        20.6170    8.1750   -9.6500 C.ar  118  TRP118      0.0003
    187  CD1       20.9230    8.5240  -10.9670 C.ar  118  TRP118      0.0946
    188  CD2       21.6190    8.8040   -8.8430 C.ar  118  TRP118      0.0152
    189  NE1       22.0190    9.3210  -11.0070 N.ar  118  TRP118     -0.2442
    190  CE2       22.4930    9.5120   -9.7410 C.ar  118  TRP118      0.0810
    191  CE3       21.8890    8.8230   -7.4680 C.ar  118  TRP118      0.0012
    192  CZ2       23.5730   10.2490   -9.3020 C.ar  118  TRP118      0.0191
    193  CZ3       22.9600    9.5600   -7.0280 C.ar  118  TRP118      0.0001
    194  CH2       23.8040   10.2680   -7.9470 C.ar  118  TRP118      0.0015
    195  N         18.3570   10.0170   -7.4480 N.am  119  PHE119     -0.1976
    196  CA        18.4940   10.7600   -6.2310 C.3   119  PHE119      0.1639
    197  C         17.4360   10.3770   -5.1860 C.2   119  PHE119      0.2290
    198  O         17.7480   10.2710   -4.0000 O.2   119  PHE119     -0.2864
    199  CB        18.4480   12.2500   -6.5200 C.3   119  PHE119      0.0560
    200  CG        19.7620   12.9160   -6.3920 C.ar  119  PHE119     -0.0200
    201  CD1       20.7770   12.6740   -7.2900 C.ar  119  PHE119     -0.0042
    202  CD2       20.0020   13.7630   -5.3420 C.ar  119  PHE119     -0.0042
    203  CE1       21.9820   13.3100   -7.1530 C.ar  119  PHE119     -0.0003
    204  CE2       21.1780   14.4100   -5.2190 C.ar  119  PHE119     -0.0003
    205  CZ        22.1870   14.1740   -6.1100 C.ar  119  PHE119     -0.0000
@<TRIPOS>BOND
     1   128   127    2
     2   127   126    1
     3   126   129    1
     4   126   125    1
     5   129   130    1
     6   131   130   ar
     7   131   133   ar
     8   130   132   ar
     9   133   135   ar
    10   132   134   ar
    11   135   134   ar
    12   117   116    2
    13    45    43   ar
    14    45    47   ar
    15   116   115    1
    16    43    42   ar
    17   164   163   ar
    18   164   162   ar
    19   163   161   ar
    20    87    86    1
    21    38    37    1
    22    38    41    1
    23    38    39    1
    24   136   137    1
    25   141   142    1
    26   141   140    1
    27   142   143    1
    28    47    46   ar
    29    42    41    1
    30    42    44   ar
    31   115   118    1
    32   115   114    1
    33   162   160   ar
    34   161   158   ar
    35   118   119    1
    36    12    11    1
    37    39    40    2
    38    86    85    1
    39   140   137    1
    40   137   138    1
    41    44    46   ar
    42   160   158   ar
    43   160   159   ar
    44   158   156   ar
    45   120   119   ar
    46   120   122   ar
    47   119   121   ar
    48    11     9   ar
    49    11    10   ar
    50     9     7   ar
    51    85    84    1
    52   138   139    2
    53   159   157   ar
    54   122   124   ar
    55   121   123   ar
    56   156   155    1
    57   156   157   ar
    58    10     8   ar
    59   152   153    1
    60   152   155    1
    61   152   151    1
    62   165   166    1
    63    84    83    1
    64   153   154    2
    65   171   170   ar
    66     7     6   ar
    67   169   166    1
    68   169   170    1
    69    31    30    2
    70   166   167    1
    71    36    35    1
    72   124   123   ar
    73   170   172   ar
    74     8     6   ar
    75    33    32    1
    76    33    34    1
    77     6     5    1
    78    35    34    1
    79    83    80    1
    80    30    29    1
    81    32    29    1
    82   150   148    1
    83   108   109    2
    84   108   107    1
    85   112   110    1
    86   167   173   am
    87   167   168    2
    88    29    28    1
    89    80    79    1
    90    80    81    1
    91     5     2    1
    92   144   145    1
    93   173   174    1
    94    79    77   am
    95     1     2    1
    96   107   110    1
    97   107   106    1
    98   110   111    1
    99   148   145    1
   100   148   149    1
   101    55    53   am
   102     2     3    1
   103    81    82    2
   104   179   178   ar
   105   145   146    1
   106    77    76    1
   107    77    78    2
   108    76    75    1
   109   174   177    1
   110   174   175    1
   111   178   180   ar
   112   178   177    1
   113    53    52    1
   114    53    54    2
   115   189   187   ar
   116   189   190   ar
   117   111   113    1
   118   187   186   ar
   119    52    49    1
   120   175   176    2
   121     3     4    2
   122     3    13   am
   123   146   147    2
   124    75    73   am
   125    96    94   ar
   126    74    73    2
   127   105   103   ar
   128    13    14    1
   129    48    49    1
   130   181   182    1
   131    73    72    1
   132    49    50    1
   133   190   192   ar
   134   190   188   ar
   135   186   185    1
   136   186   188   ar
   137    16    15    2
   138   192   194   ar
   139   185   182    1
   140    94    95   ar
   141    94    93    1
   142    27    25    1
   143   103   104   ar
   144   103   102    1
   145   188   191   ar
   146   182   183    1
   147    14    15    1
   148    14    17    1
   149    15    20   am
   150    26    25    1
   151    59    58    2
   152    72    71    2
   153    24    25    1
   154    24    21    1
   155    50    56   am
   156    50    51    2
   157    93    92    1
   158   102   101    1
   159    71    62    1
   160    56    57    1
   161   194   193   ar
   162    18    17    1
   163    20    21    1
   164    19    17    1
   165    21    22    1
   166   191   193   ar
   167   195   183   am
   168   195   196    1
   169   183   184    2
   170    58    57    1
   171    58    60   am
   172   201   203   ar
   173   201   200   ar
   174   203   205   ar
   175    62    61    1
   176    62    63    2
   177    92    89    1
   178   101    98    1
   179    61    60    1
   180    61    64    1
   181   199   200    1
   182   199   196    1
   183   200   202   ar
   184    98    97    1
   185    98    99    1
   186   196   197    1
   187    22    23    2
   188   205   204   ar
   189    89    90    1
   190    89    88    1
   191    66    68   ar
   192    66    65   ar
   193   100    99    2
   194    64    65    1
   195    91    90    2
   196    68    70   ar
   197   202   204   ar
   198   197   198    2
   199    65    67   ar
   200    70    69   ar
   201    67    69   ar
