@<TRIPOS>MOLECULE
tmp/3zr4B00.pdb
 86 83 0 0 0
SMALL
GASTEIGER

@<TRIPOS>ATOM
      1  N         31.5290   32.7850    5.4000 N.3    51  VAL51      -0.1231
      2  CA        32.3850   33.3090    4.3450 C.3    51  VAL51       0.1692
      3  C         31.4740   33.8590    3.2360 C.2    51  VAL51       0.2592
      4  O         30.6900   33.1180    2.6400 O.2    51  VAL51      -0.2718
      5  CB        33.3840   32.2430    3.7780 C.3    51  VAL51       0.0266
      6  CG1       34.0930   32.7700    2.5340 C.3    51  VAL51       0.0020
      7  CG2       34.4140   31.9020    4.7980 C.3    51  VAL51       0.0020
      8  N         31.5670   35.1530    2.9690 N.am   52  GLY52      -0.1957
      9  CA        30.7040   35.8170    1.9770 C.3    52  GLY52       0.1869
     10  C         30.3270   37.2130    2.4490 C.2    52  GLY52       0.2309
     11  O         30.9400   37.7330    3.3730 O.2    52  GLY52      -0.2863
     12  N         35.3200   34.6040   11.2560 N.3    84  CYS84      -0.1221
     13  CA        35.3990   35.2720    9.9300 C.3    84  CYS84       0.1808
     14  C         34.2420   36.2690    9.7340 C.2    84  CYS84       0.2601
     15  O         34.1720   37.2940   10.4290 O.2    84  CYS84      -0.2717
     16  CB        35.5720   34.2650    8.7440 C.3    84  CYS84       0.0970
     17  SG        36.1020   35.0000    7.0260 S.3    84  CYS84      -0.0800
     18  N         33.3180   35.9790    8.8230 N.am   85  LEU85      -0.1979
     19  CA        32.1600   36.8730    8.6380 C.3    85  LEU85       0.1596
     20  C         31.3090   36.9170    9.9160 C.2    85  LEU85       0.2287
     21  O         30.5470   37.8530   10.1500 O.2    85  LEU85      -0.2864
     22  CB        31.3210   36.4700    7.4170 C.3    85  LEU85       0.0297
     23  CG        30.0530   37.3170    7.1640 C.3    85  LEU85       0.0022
     24  CD1       30.3910   38.8150    6.9140 C.3    85  LEU85       0.0001
     25  CD2       29.0970   36.7470    6.0410 C.3    85  LEU85       0.0001
     26  N         32.2310   39.8860   12.1200 N.3    88  GLN88      -0.1245
     27  CA        31.6810   41.1090   11.5910 C.3    88  GLN88       0.1566
     28  C         30.1820   41.2220   11.8940 C.2    88  GLN88       0.2260
     29  O         29.7070   42.2990   12.3080 O.2    88  GLN88      -0.2867
     30  CB        31.9440   41.1630   10.0900 C.3    88  GLN88       0.0367
     31  CG        33.4200   41.1990    9.7350 C.3    88  GLN88       0.0905
     32  CD        33.6460   41.3500    8.2660 C.2    88  GLN88       0.2608
     33  OE1       32.6890   41.4780    7.4980 O.2    88  GLN88      -0.2717
     34  NE2       34.9220   41.3450    7.8470 N.am   88  GLN88      -0.0878
     35  N         30.2580   46.9180    3.7940 N.3    96  GLU96      -0.1245
     36  CA        30.0040   45.8580    2.8110 C.3    96  GLU96       0.1567
     37  C         28.5190   45.6560    2.5180 C.2    96  GLU96       0.2260
     38  O         28.1520   45.1890    1.4400 O.2    96  GLU96      -0.2867
     39  CB        30.6130   44.5230    3.2520 C.3    96  GLU96       0.0388
     40  CG        30.5400   43.4310    2.1790 C.3    96  GLU96       0.1160
     41  CD        31.2350   42.1310    2.5700 C.2    96  GLU96       0.3649
     42  OE1       31.0140   41.6280    3.6800 O.co2  96  GLU96      -0.2457
     43  OE2       31.9710   41.5740    1.7270 O.co2  96  GLU96      -0.2457
     44  N         41.4650   40.8700   -1.0040 N.3   119  PRO119     -0.2116
     45  CA        41.4640   40.6830    0.4480 C.3   119  PRO119      0.1372
     46  C         42.8350   40.4570    1.0450 C.2   119  PRO119      0.2244
     47  O         43.7370   39.9600    0.3660 O.2   119  PRO119     -0.2868
     48  CB        40.6770   39.3860    0.6230 C.3   119  PRO119      0.0268
     49  CG        40.9740   38.6280   -0.6160 C.3   119  PRO119      0.0207
     50  CD        40.9470   39.6840   -1.7100 C.3   119  PRO119      0.0892
     51  N         41.2790   35.5300    5.5470 N.3   140  VAL140     -0.1231
     52  CA        40.7990   35.9370    4.2020 C.3   140  VAL140      0.1692
     53  C         39.6560   36.9230    4.3680 C.2   140  VAL140      0.2592
     54  O         38.5320   36.5130    4.6480 O.2   140  VAL140     -0.2718
     55  CB        40.2600   34.8020    3.2970 C.3   140  VAL140      0.0266
     56  CG1       39.6320   35.4360    2.0120 C.3   140  VAL140      0.0020
     57  CG2       41.3580   33.8130    2.8880 C.3   140  VAL140      0.0020
     58  N         39.9380   38.2120    4.1970 N.am  141  HIS141     -0.1962
     59  CA        38.9140   39.2500    4.3690 C.3   141  HIS141      0.1787
     60  C         39.3480   40.5960    3.8090 C.2   141  HIS141      0.2621
     61  O         40.5440   40.9670    3.8040 O.2   141  HIS141     -0.2715
     62  CB        38.5380   39.4120    5.8280 C.3   141  HIS141      0.0785
     63  CG        39.6300   40.0030    6.6700 C.ar  141  HIS141      0.0821
     64  ND1       39.5220   41.2380    7.2740 N.ar  141  HIS141     -0.2267
     65  CD2       40.8490   39.5220    7.0130 C.ar  141  HIS141      0.1154
     66  CE1       40.6310   41.4960    7.9430 C.ar  141  HIS141      0.1986
     67  NE2       41.4520   40.4680    7.8040 N.ar  141  HIS141     -0.2212
     68  N         38.3400   41.3080    3.3360 N.am  142  THR142     -0.1937
     69  CA        38.4700   42.6210    2.7820 C.3   142  THR142      0.2028
     70  C         38.1030   43.6870    3.8180 C.2   142  THR142      0.2642
     71  O         38.5160   44.8340    3.6860 O.2   142  THR142     -0.2714
     72  CB        37.5740   42.6930    1.5570 C.3   142  THR142      0.1808
     73  OG1       38.0710   41.7750    0.5890 O.3   142  THR142     -0.2208
     74  CG2       37.5130   44.0930    0.9280 C.3   142  THR142      0.0379
     75  N         37.3600   43.3040    4.8620 N.am  143  TYR143     -0.1973
     76  CA        36.7910   44.2640    5.8080 C.3   143  TYR143      0.1639
     77  C         37.2930   44.0410    7.2260 C.2   143  TYR143      0.2290
     78  O         37.7950   42.9790    7.5590 O.2   143  TYR143     -0.2864
     79  CB        35.2350   44.2450    5.7480 C.3   143  TYR143      0.0560
     80  CG        34.6760   44.7790    4.4380 C.ar  143  TYR143     -0.0198
     81  CD1       34.6530   43.9860    3.2860 C.ar  143  TYR143     -0.0009
     82  CD2       34.1860   46.0900    4.3540 C.ar  143  TYR143     -0.0009
     83  CE1       34.1470   44.4940    2.0520 C.ar  143  TYR143      0.0417
     84  CE2       33.7060   46.6110    3.1470 C.ar  143  TYR143      0.0417
     85  CZ        33.6810   45.8140    2.0110 C.ar  143  TYR143      0.1957
     86  OH        33.2140   46.3580    0.8450 O.3   143  TYR143     -0.2866
@<TRIPOS>BOND
     1    50    44    1
     2    50    49    1
     3    44    45    1
     4    49    48    1
     5    47    46    2
     6    45    48    1
     7    45    46    1
     8    73    72    1
     9    86    85    1
    10    74    72    1
    11    38    37    2
    12    72    69    1
    13    43    41   ar
    14     9    10    1
    15     9     8    1
    16    85    83   ar
    17    85    84   ar
    18    56    55    1
    19    83    81   ar
    20    40    41    1
    21    40    39    1
    22    10    11    2
    23    37    36    1
    24     6     5    1
    25    41    42   ar
    26     4     3    2
    27    69    68    1
    28    69    70    1
    29    36    39    1
    30    36    35    1
    31    57    55    1
    32     8     3   am
    33    84    82   ar
    34     3     2    1
    35    81    80   ar
    36    55    52    1
    37    68    60   am
    38    71    70    2
    39     5     2    1
    40     5     7    1
    41    61    60    2
    42    60    59    1
    43    70    75   am
    44    58    53   am
    45    58    59    1
    46    52    53    1
    47    52    51    1
    48     2     1    1
    49    82    80   ar
    50    53    54    2
    51    59    62    1
    52    80    79    1
    53    75    76    1
    54    79    76    1
    55    76    77    1
    56    62    63    1
    57    25    23    1
    58    63    65   ar
    59    63    64   ar
    60    24    23    1
    61    65    67   ar
    62    17    16    1
    63    23    22    1
    64    77    78    2
    65    64    66   ar
    66    22    19    1
    67    33    32    2
    68    67    66   ar
    69    34    32   am
    70    32    31    1
    71    19    18    1
    72    19    20    1
    73    16    13    1
    74    18    14   am
    75    14    13    1
    76    14    15    2
    77    31    30    1
    78    20    21    2
    79    13    12    1
    80    30    27    1
    81    27    28    1
    82    27    26    1
    83    28    29    2
