@<TRIPOS>MOLECULE
tmp/3zr6A03.pdb
 128 124 0 0 0
SMALL
GASTEIGER

@<TRIPOS>ATOM
      1  N         77.1820   92.7110   25.7030 N.3    24  GLY24      -0.1225
      2  CA        77.1410   91.5150   24.9010 C.3    24  GLY24       0.1811
      3  C         78.5030   90.8600   24.7810 C.2    24  GLY24       0.2280
      4  O         79.0070   90.7160   23.6810 O.2    24  GLY24      -0.2866
      5  N         77.9330   86.9160   26.1290 N.3    69  THR69      -0.1218
      6  CA        79.0470   86.5330   25.2540 C.3    69  THR69       0.1862
      7  C         80.3350   86.3250   26.0050 C.2    69  THR69       0.2287
      8  O         81.0490   85.3830   25.7180 O.2    69  THR69      -0.2866
      9  CB        79.2910   87.4620   24.0430 C.3    69  THR69       0.1770
     10  OG1       78.2130   87.3270   23.1080 O.3    69  THR69      -0.2211
     11  CG2       80.6460   87.0950   23.3440 C.3    69  THR69       0.0375
     12  N         69.9900   92.1980   25.4440 N.3   111  TRP111     -0.1241
     13  CA        70.4150   90.8960   24.8850 C.3   111  TRP111      0.1605
     14  C         69.5890   89.7630   25.5360 C.2   111  TRP111      0.2264
     15  O         69.0010   88.9240   24.8450 O.2   111  TRP111     -0.2867
     16  CB        71.8840   90.6260   25.2010 C.3   111  TRP111      0.0550
     17  CG        72.9450   90.9180   24.1560 C.ar  111  TRP111      0.0003
     18  CD1       73.7100   89.9950   23.4940 C.ar  111  TRP111      0.0946
     19  CD2       73.4200   92.2140   23.7280 C.ar  111  TRP111      0.0152
     20  NE1       74.6120   90.6320   22.6710 N.ar  111  TRP111     -0.2442
     21  CE2       74.4540   91.9890   22.7900 C.ar  111  TRP111      0.0810
     22  CE3       73.0690   93.5440   24.0540 C.ar  111  TRP111      0.0012
     23  CZ2       75.1350   93.0320   22.1640 C.ar  111  TRP111      0.0191
     24  CZ3       73.7450   94.5800   23.4460 C.ar  111  TRP111      0.0001
     25  CH2       74.7610   94.3200   22.4950 C.ar  111  TRP111      0.0015
     26  N         68.5830   92.0170   20.7540 N.3   157  ASN157     -0.1225
     27  CA        69.8070   91.7480   20.0290 C.3   157  ASN157      0.1785
     28  C         69.8210   90.4580   19.2480 C.2   157  ASN157      0.2597
     29  O         69.8160   89.3810   19.8280 O.2   157  ASN157     -0.2718
     30  CB        70.9920   91.7280   20.9850 C.3   157  ASN157      0.1169
     31  CG        72.3010   91.6980   20.2560 C.2   157  ASN157      0.2627
     32  OD1       72.6060   92.6170   19.4930 O.2   157  ASN157     -0.2716
     33  ND2       73.0740   90.6250   20.4480 N.am  157  ASN157     -0.0877
     34  N         69.8610   90.5750   17.9230 N.am  158  GLU158     -0.1979
     35  CA        70.0230   89.4140   17.0540 C.3   158  GLU158      0.1602
     36  C         68.9920   88.3340   17.3040 C.2   158  GLU158      0.2287
     37  O         69.2500   87.1550   17.0670 O.2   158  GLU158     -0.2864
     38  CB        71.4240   88.8610   17.2270 C.3   158  GLU158      0.0415
     39  CG        72.4310   89.9360   16.9630 C.3   158  GLU158      0.1163
     40  CD        73.7610   89.3930   16.5490 C.2   158  GLU158      0.3649
     41  OE1       74.0350   88.2070   16.8780 O.co2 158  GLU158     -0.2457
     42  OE2       74.5300   90.1490   15.9060 O.co2 158  GLU158     -0.2457
     43  N         76.6880   93.2040   11.0400 N.3   214  TYR214     -0.1241
     44  CA        77.7100   92.5780   10.2010 C.3   214  TYR214      0.1605
     45  C         77.2890   92.4630    8.7290 C.2   214  TYR214      0.2264
     46  O         77.3080   91.3710    8.1520 O.2   214  TYR214     -0.2867
     47  CB        78.1110   91.2170   10.7800 C.3   214  TYR214      0.0534
     48  CG        78.6070   91.3390   12.1980 C.ar  214  TYR214     -0.0201
     49  CD1       79.9380   91.6670   12.4690 C.ar  214  TYR214     -0.0009
     50  CD2       77.7350   91.1670   13.2790 C.ar  214  TYR214     -0.0009
     51  CE1       80.3870   91.8090   13.7740 C.ar  214  TYR214      0.0417
     52  CE2       78.1780   91.3040   14.5750 C.ar  214  TYR214      0.0417
     53  CZ        79.5010   91.6260   14.8240 C.ar  214  TYR214      0.1957
     54  OH        79.9270   91.7630   16.1310 O.3   214  TYR214     -0.2866
     55  N         76.0430   96.9730   14.6820 N.3   234  GLU234     -0.1245
     56  CA        77.1110   96.1890   15.2930 C.3   234  GLU234      0.1567
     57  C         77.9820   95.6030   14.2040 C.2   234  GLU234      0.2260
     58  O         77.4800   94.9320   13.3050 O.2   234  GLU234     -0.2867
     59  CB        76.5810   95.0490   16.1700 C.3   234  GLU234      0.0388
     60  CG        77.6790   94.4920   17.1110 C.3   234  GLU234      0.1160
     61  CD        77.2190   93.3290   17.9840 C.2   234  GLU234      0.3649
     62  OE1       76.2810   93.5110   18.7920 O.co2 234  GLU234     -0.2457
     63  OE2       77.8080   92.2300   17.8720 O.co2 234  GLU234     -0.2457
     64  N         84.3340   93.2740   15.6320 N.3   237  SER237     -0.1217
     65  CA        84.4800   91.9810   16.3510 C.3   237  SER237      0.1889
     66  C         85.7430   91.1990   15.9480 C.2   237  SER237      0.2288
     67  O         85.7930   89.9650   15.9860 O.2   237  SER237     -0.2866
     68  CB        83.2160   91.1100   16.1750 C.3   237  SER237      0.2089
     69  OG        83.2850   89.8420   16.8250 O.3   237  SER237     -0.2183
     70  N         81.5580   96.3270   17.9220 N.3   267  TRP267     -0.1241
     71  CA        81.6580   95.4410   19.0600 C.3   267  TRP267      0.1605
     72  C         83.1170   95.0370   19.1030 C.2   267  TRP267      0.2264
     73  O         83.5630   94.3790   18.1870 O.2   267  TRP267     -0.2867
     74  CB        80.8340   94.1820   18.8540 C.3   267  TRP267      0.0550
     75  CG        80.7700   93.3930   20.1260 C.ar  267  TRP267      0.0003
     76  CD1       79.9780   93.6480   21.1970 C.ar  267  TRP267      0.0946
     77  CD2       81.5840   92.2780   20.4860 C.ar  267  TRP267      0.0152
     78  NE1       80.2230   92.7460   22.2010 N.ar  267  TRP267     -0.2442
     79  CE2       81.2130   91.8950   21.7960 C.ar  267  TRP267      0.0810
     80  CE3       82.5870   91.5570   19.8270 C.ar  267  TRP267      0.0012
     81  CZ2       81.8020   90.8090   22.4640 C.ar  267  TRP267      0.0191
     82  CZ3       83.1860   90.4920   20.4810 C.ar  267  TRP267      0.0001
     83  CH2       82.7880   90.1220   21.7900 C.ar  267  TRP267      0.0015
     84  N         86.0520   85.4480   21.5220 N.3   279  TYR279     -0.1241
     85  CA        86.3880   86.6810   20.7950 C.3   279  TYR279      0.1605
     86  C         87.2330   87.6160   21.6590 C.2   279  TYR279      0.2264
     87  O         86.9360   88.8050   21.7870 O.2   279  TYR279     -0.2867
     88  CB        85.1300   87.4150   20.2510 C.3   279  TYR279      0.0534
     89  CG        84.1610   86.5720   19.4160 C.ar  279  TYR279     -0.0201
     90  CD1       84.4440   86.2570   18.1080 C.ar  279  TYR279     -0.0009
     91  CD2       82.9600   86.0920   19.9560 C.ar  279  TYR279     -0.0009
     92  CE1       83.5900   85.4850   17.3440 C.ar  279  TYR279      0.0417
     93  CE2       82.0760   85.3060   19.1950 C.ar  279  TYR279      0.0417
     94  CZ        82.4050   85.0180   17.8650 C.ar  279  TYR279      0.1957
     95  OH        81.5660   84.2590   17.0380 O.3   279  TYR279     -0.2866
     96  N         83.2460   88.6520   10.2180 N.3   356  ARG356     -0.1245
     97  CA        81.9690   88.5170    9.5060 C.3   356  ARG356      0.1563
     98  C         81.6770   89.6920    8.5720 C.2   356  ARG356      0.2260
     99  O         81.5380   90.8210    9.0220 O.2   356  ARG356     -0.2867
    100  CB        80.8120   88.3800   10.4890 C.3   356  ARG356      0.0307
    101  CG        80.7160   87.0190   11.0940 C.3   356  ARG356      0.0489
    102  CD        79.2920   86.6560   11.4330 C.3   356  ARG356      0.2205
    103  NE        78.8340   87.3650   12.6100 N.pl3 356  ARG356     -0.0865
    104  CZ        79.5620   87.5270   13.7110 C.cat 356  ARG356      0.5346
    105  NH1       80.7860   87.0260   13.7990 N.pl3 356  ARG356      0.1354
    106  NH2       79.0600   88.1890   14.7390 N.pl3 356  ARG356      0.1354
    107  N         69.8420   84.5740   25.9880 N.3   497  TRP497     -0.1241
    108  CA        70.3350   84.9340   24.6660 C.3   497  TRP497      0.1605
    109  C         71.2730   83.8240   24.1920 C.2   497  TRP497      0.2264
    110  O         71.1360   83.2930   23.0850 O.2   497  TRP497     -0.2867
    111  CB        71.0900   86.2540   24.7360 C.3   497  TRP497      0.0550
    112  CG        71.5170   86.7580   23.4190 C.ar  497  TRP497      0.0003
    113  CD1       70.7420   87.4440   22.5030 C.ar  497  TRP497      0.0946
    114  CD2       72.8100   86.6400   22.8360 C.ar  497  TRP497      0.0152
    115  NE1       71.4820   87.7450   21.3970 N.ar  497  TRP497     -0.2442
    116  CE2       72.7540   87.2680   21.5680 C.ar  497  TRP497      0.0810
    117  CE3       74.0080   86.0540   23.2510 C.ar  497  TRP497      0.0012
    118  CZ2       73.8560   87.3440   20.7200 C.ar  497  TRP497      0.0191
    119  CZ3       75.1100   86.1180   22.3900 C.ar  497  TRP497      0.0001
    120  CH2       75.0190   86.7650   21.1430 C.ar  497  TRP497      0.0015
    121  N         79.9300   82.5740   25.7550 N.3   543  ILE543     -0.1245
    122  CA        79.1010   81.7840   24.8480 C.3   543  ILE543      0.1561
    123  C         79.2660   80.2740   25.0570 C.2   543  ILE543      0.2260
    124  O         78.3060   79.5100   24.9650 O.2   543  ILE543     -0.2867
    125  CB        79.4800   82.0740   23.4020 C.3   543  ILE543      0.0252
    126  CG1       78.9910   83.4530   22.9760 C.3   543  ILE543      0.0019
    127  CG2       78.8250   81.0870   22.5120 C.3   543  ILE543      0.0019
    128  CD1       77.4920   83.5150   22.7960 C.3   543  ILE543      0.0001
@<TRIPOS>BOND
     1    46    45    2
     2    98    99    2
     3    98    97    1
     4    45    44    1
     5    97    96    1
     6    97   100    1
     7    44    47    1
     8    44    43    1
     9   100   101    1
    10    47    48    1
    11   101   102    1
    12   102   103    1
    13    48    49   ar
    14    48    50   ar
    15    49    51   ar
    16   103   104    2
    17    50    52   ar
    18    58    57    2
    19   104   105    1
    20   104   106    1
    21    51    53   ar
    22    57    56    1
    23    52    53   ar
    24    55    56    1
    25    53    54    1
    26    56    59    1
    27    64    65    1
    28    42    40   ar
    29    66    67    2
    30    66    65    1
    31    59    60    1
    32    68    65    1
    33    68    69    1
    34    40    41   ar
    35    40    39    1
    36    39    38    1
    37    95    94    1
    38    35    38    1
    39    35    36    1
    40    35    34    1
    41    37    36    2
    42    60    61    1
    43    92    94   ar
    44    92    90   ar
    45    94    93   ar
    46    63    61   ar
    47    70    71    1
    48    34    28   am
    49    61    62   ar
    50    90    89   ar
    51    73    72    2
    52    74    71    1
    53    74    75    1
    54    71    72    1
    55    93    91   ar
    56    28    29    2
    57    28    27    1
    58    89    91   ar
    59    89    88    1
    60    32    31    2
    61    80    82   ar
    62    80    77   ar
    63    27    26    1
    64    27    30    1
    65    75    77   ar
    66    75    76   ar
    67    88    85    1
    68    31    33   am
    69    31    30    1
    70    82    83   ar
    71    77    79   ar
    72   118   120   ar
    73   118   116   ar
    74    85    84    1
    75    85    86    1
    76   120   119   ar
    77    76    78   ar
    78   115   116   ar
    79   115   113   ar
    80   116   114   ar
    81    86    87    2
    82    83    81   ar
    83    79    78   ar
    84    79    81   ar
    85    23    25   ar
    86    23    21   ar
    87   119   117   ar
    88    25    24   ar
    89   113   112   ar
    90   127   125    1
    91    20    21   ar
    92    20    18   ar
    93    21    19   ar
    94   128   126    1
    95   114   117   ar
    96   114   112   ar
    97   126   125    1
    98   110   109    2
    99    10     9    1
   100    11     9    1
   101   125   122    1
   102   112   111    1
   103    24    22   ar
   104    18    17   ar
   105     4     3    2
   106    19    22   ar
   107    19    17   ar
   108     9     6    1
   109    17    16    1
   110   109   108    1
   111   108   111    1
   112   108   107    1
   113     3     2    1
   114    15    14    2
   115   122   123    1
   116   122   121    1
   117    13    16    1
   118    13    12    1
   119    13    14    1
   120     2     1    1
   121   124   123    2
   122     6     7    1
   123     6     5    1
   124     8     7    2
