@<TRIPOS>MOLECULE
tmp/3zr7A00.pdb
 198 186 0 0 0
SMALL
GASTEIGER

@<TRIPOS>ATOM
      1  N          6.6390   11.9440   11.9830 N.3    33  LEU33      -0.1245
      2  CA         6.5770   10.4920   11.7850 C.3    33  LEU33       0.1561
      3  C          5.5140   10.1180   10.7580 C.2    33  LEU33       0.2260
      4  O          5.7050    9.1950    9.9760 O.2    33  LEU33      -0.2867
      5  CB         6.3390    9.7510   13.1120 C.3    33  LEU33       0.0270
      6  CG         7.4680    9.9260   14.1330 C.3    33  LEU33       0.0019
      7  CD1        7.0300    9.4160   15.5180 C.3    33  LEU33       0.0001
      8  CD2        8.7630    9.2550   13.6800 C.3    33  LEU33       0.0001
      9  N          6.9980   10.8900    7.4320 N.3    36  LEU36      -0.1231
     10  CA         7.9890    9.8670    7.0940 C.3    36  LEU36       0.1693
     11  C          7.3040    8.5660    6.6320 C.2    36  LEU36       0.2592
     12  O          7.7850    7.8990    5.6990 O.2    36  LEU36      -0.2718
     13  CB         8.9290    9.6200    8.2910 C.3    36  LEU36       0.0284
     14  CG         9.9690   10.7170    8.5400 C.3    36  LEU36       0.0019
     15  CD1       10.5390   10.6570    9.9630 C.3    36  LEU36       0.0001
     16  CD2       11.0860   10.6170    7.4780 C.3    36  LEU36       0.0001
     17  N          6.1810    8.2140    7.2570 N.am   37  ASN37      -0.1974
     18  CA         5.4150    7.0470    6.8250 C.3    37  ASN37       0.1688
     19  C          4.7640    7.2250    5.4560 C.2    37  ASN37       0.2292
     20  O          4.7360    6.2920    4.6760 O.2    37  ASN37      -0.2864
     21  CB         4.3550    6.6350    7.8600 C.3    37  ASN37       0.1181
     22  CG         4.9400    5.8780    9.0420 C.2    37  ASN37       0.2629
     23  OD1        6.0720    5.3950    8.9910 O.2    37  ASN37      -0.2716
     24  ND2        4.1510    5.7430   10.1040 N.am   37  ASN37      -0.0877
     25  N          6.0370    9.1410    3.1210 N.3    39  LEU39      -0.1231
     26  CA         7.1900    9.0290    2.2250 C.3    39  LEU39       0.1693
     27  C          7.5400    7.5630    2.0440 C.2    39  LEU39       0.2592
     28  O          7.8430    7.1190    0.9380 O.2    39  LEU39      -0.2718
     29  CB         8.4070    9.7490    2.8080 C.3    39  LEU39       0.0284
     30  CG         9.7230    9.6430    2.0410 C.3    39  LEU39       0.0019
     31  CD1        9.5540   10.2450    0.6220 C.3    39  LEU39       0.0001
     32  CD2       10.8790   10.3280    2.7680 C.3    39  LEU39       0.0001
     33  N          7.5160    6.8300    3.1520 N.am   40  GLY40      -0.1957
     34  CA         7.7210    5.3850    3.1520 C.3    40  GLY40       0.1869
     35  C          6.8320    4.6090    2.2070 C.2    40  GLY40       0.2309
     36  O          7.3100    3.7380    1.4570 O.2    40  GLY40      -0.2863
     37  N          7.9070    5.3420   -1.3020 N.3    43  GLN43      -0.1245
     38  CA         9.1410    4.6050   -1.5980 C.3    43  GLN43       0.1566
     39  C          8.8700    3.1180   -1.7650 C.2    43  GLN43       0.2260
     40  O          9.4760    2.4800   -2.6270 O.2    43  GLN43      -0.2867
     41  CB        10.1990    4.8610   -0.5330 C.3    43  GLN43       0.0367
     42  CG        10.7530    6.2660   -0.6060 C.3    43  GLN43       0.0905
     43  CD        11.7050    6.5530    0.5090 C.2    43  GLN43       0.2608
     44  OE1       11.9480    5.6930    1.3480 O.2    43  GLN43      -0.2717
     45  NE2       12.2340    7.7700    0.5520 N.am   43  GLN43      -0.0878
     46  N         12.3680   -4.3390    2.7810 N.3    73  TRP73      -0.1227
     47  CA        11.9920   -2.9370    2.5820 C.3    73  TRP73       0.1737
     48  C         12.6870   -1.9460    3.5090 C.2    73  TRP73       0.2595
     49  O         13.1350   -0.8930    3.0480 O.2    73  TRP73      -0.2718
     50  CB        10.4730   -2.7560    2.6240 C.3    73  TRP73       0.0564
     51  CG         9.8740   -3.0820    3.9480 C.ar   73  TRP73       0.0003
     52  CD1        9.4850   -4.2970    4.3910 C.ar   73  TRP73       0.0946
     53  CD2        9.5860   -2.1560    4.9910 C.ar   73  TRP73       0.0152
     54  NE1        8.9790   -4.1980    5.6780 N.ar   73  TRP73      -0.2442
     55  CE2        9.0310   -2.8820    6.0590 C.ar   73  TRP73       0.0810
     56  CE3        9.7580   -0.7740    5.1260 C.ar   73  TRP73       0.0012
     57  CZ2        8.6410   -2.2730    7.2520 C.ar   73  TRP73       0.0191
     58  CZ3        9.3590   -0.1700    6.2990 C.ar   73  TRP73       0.0001
     59  CH2        8.8070   -0.9170    7.3480 C.ar   73  TRP73       0.0015
     60  N         12.7900   -2.2560    4.8080 N.am   74  MET74      -0.1979
     61  CA        13.4500   -1.3260    5.7260 C.3    74  MET74       0.1605
     62  C         14.9020   -1.1250    5.3220 C.2    74  MET74       0.2287
     63  O         15.3940    0.0130    5.2910 O.2    74  MET74      -0.2864
     64  CB        13.3650   -1.8230    7.1820 C.3    74  MET74       0.0413
     65  CG        14.0530   -0.9310    8.1580 C.3    74  MET74       0.0598
     66  SD        13.1140    0.5750    8.4560 S.3    74  MET74      -0.1393
     67  CE        11.8340   -0.1150    9.5190 C.3    74  MET74       0.0692
     68  N         15.1290    1.1010    2.2550 N.3    77  MET77      -0.1230
     69  CA        14.8240    2.4960    2.5790 C.3    77  MET77       0.1702
     70  C         15.9860    3.2000    3.2720 C.2    77  MET77       0.2592
     71  O         16.3530    4.3180    2.9010 O.2    77  MET77      -0.2718
     72  CB        13.5460    2.6160    3.4170 C.3    77  MET77       0.0401
     73  CG        12.3030    2.3850    2.6100 C.3    77  MET77       0.0596
     74  SD        10.8090    2.5470    3.5930 S.3    77  MET77      -0.1393
     75  CE         9.6660    1.8070    2.4310 C.3    77  MET77       0.0692
     76  N         16.5740    2.5730    4.2850 N.am   78  VAL78      -0.1980
     77  CA        17.6510    3.2320    5.0140 C.3    78  VAL78       0.1595
     78  C         18.9210    3.3140    4.1600 C.2    78  VAL78       0.2287
     79  O         19.6910    4.2770    4.2700 O.2    78  VAL78      -0.2864
     80  CB        17.8990    2.5590    6.3930 C.3    78  VAL78       0.0276
     81  CG1       18.5540    1.1930    6.2460 C.3    78  VAL78       0.0022
     82  CG2       18.7000    3.4760    7.2720 C.3    78  VAL78       0.0022
     83  N         18.2670    6.2050    1.8320 N.3    81  LEU81      -0.1245
     84  CA        18.4080    7.4200    2.6410 C.3    81  LEU81       0.1561
     85  C         19.8950    7.7750    2.7830 C.2    81  LEU81       0.2260
     86  O         20.3030    8.9420    2.6650 O.2    81  LEU81      -0.2867
     87  CB        17.7840    7.2300    4.0310 C.3    81  LEU81       0.0270
     88  CG        18.0550    8.3110    5.0730 C.3    81  LEU81       0.0019
     89  CD1       17.4650    9.6640    4.6810 C.3    81  LEU81       0.0001
     90  CD2       17.5220    7.8610    6.4290 C.3    81  LEU81       0.0001
     91  N         21.1650    9.1660   -0.7380 N.3    84  ARG84      -0.1245
     92  CA        20.6780   10.5270   -1.0090 C.3    84  ARG84       0.1563
     93  C         21.3520   11.5650   -0.1060 C.2    84  ARG84       0.2260
     94  O         21.6730   12.6760   -0.5320 O.2    84  ARG84      -0.2867
     95  CB        19.1560   10.6000   -0.8210 C.3    84  ARG84       0.0307
     96  CG        18.3560    9.7690   -1.8140 C.3    84  ARG84       0.0489
     97  CD        16.8730   10.1110   -1.7310 C.3    84  ARG84       0.2205
     98  NE        16.3030    9.7890   -0.4280 N.pl3  84  ARG84      -0.0865
     99  CZ        15.8820    8.5740   -0.0550 C.cat  84  ARG84       0.5346
    100  NH1       15.9950    7.5200   -0.8590 N.pl3  84  ARG84       0.1354
    101  NH2       15.3520    8.4050    1.1430 N.pl3  84  ARG84       0.1354
    102  N         15.8090   12.6800    3.5870 N.3    96  PHE96      -0.1241
    103  CA        14.6850   11.7620    3.3640 C.3    96  PHE96       0.1605
    104  C         14.0470   12.0430    2.0070 C.2    96  PHE96       0.2264
    105  O         13.7330   11.1280    1.2750 O.2    96  PHE96      -0.2867
    106  CB        13.6460   11.8710    4.4870 C.3    96  PHE96       0.0534
    107  CG        14.1330   11.3620    5.8070 C.ar   96  PHE96      -0.0203
    108  CD1       14.1090   10.0020    6.0850 C.ar   96  PHE96      -0.0042
    109  CD2       14.6090   12.2300    6.7790 C.ar   96  PHE96      -0.0042
    110  CE1       14.5560    9.5180    7.2980 C.ar   96  PHE96      -0.0003
    111  CE2       15.0660   11.7430    8.0000 C.ar   96  PHE96      -0.0003
    112  CZ        15.0380   10.3800    8.2530 C.ar   96  PHE96      -0.0000
    113  N         12.9970   11.6110   18.2370 N.3   112  PHE112     -0.1241
    114  CA        13.6990   10.3900   17.8750 C.3   112  PHE112      0.1605
    115  C         15.1390   10.6960   17.4430 C.2   112  PHE112      0.2264
    116  O         15.6250   10.1480   16.4620 O.2   112  PHE112     -0.2867
    117  CB        12.9190    9.6000   16.8050 C.3   112  PHE112      0.0534
    118  CG        12.4810   10.4200   15.6090 C.ar  112  PHE112     -0.0203
    119  CD1       11.3560   11.2480   15.6790 C.ar  112  PHE112     -0.0042
    120  CD2       13.1620   10.3340   14.4050 C.ar  112  PHE112     -0.0042
    121  CE1       10.9390   11.9880   14.5700 C.ar  112  PHE112     -0.0003
    122  CE2       12.7540   11.0710   13.2920 C.ar  112  PHE112     -0.0003
    123  CZ        11.6480   11.8980   13.3780 C.ar  112  PHE112     -0.0000
    124  N         17.3660    7.5960   17.0470 N.3   115  LEU115     -0.1245
    125  CA        17.0760    6.8970   15.8060 C.3   115  LEU115      0.1561
    126  C         17.7550    7.6160   14.6480 C.2   115  LEU115      0.2260
    127  O         18.3200    6.9720   13.7750 O.2   115  LEU115     -0.2867
    128  CB        15.5670    6.8130   15.5370 C.3   115  LEU115      0.0270
    129  CG        15.2050    5.8250   14.4260 C.3   115  LEU115      0.0019
    130  CD1       15.5310    4.4030   14.8460 C.3   115  LEU115      0.0001
    131  CD2       13.7490    5.9360   14.0050 C.3   115  LEU115      0.0001
    132  N         20.5610    6.1190   12.0350 N.3   119  MET119     -0.1245
    133  CA        20.3950    6.1580   10.5780 C.3   119  MET119      0.1570
    134  C         21.5070    6.9630    9.9010 C.2   119  MET119      0.2261
    135  O         21.9250    6.6310    8.7880 O.2   119  MET119     -0.2867
    136  CB        19.0360    6.7470   10.2020 C.3   119  MET119      0.0387
    137  CG        17.8390    5.8820   10.5870 C.3   119  MET119      0.0595
    138  SD        16.3080    6.6170   10.0110 S.3   119  MET119     -0.1393
    139  CE        16.0460    7.9650   11.1170 C.3   119  MET119      0.0692
    140  N         15.9600   -0.5230   13.7520 N.3   205  LEU205     -0.1245
    141  CA        14.8810    0.1760   13.0480 C.3   205  LEU205      0.1561
    142  C         13.6000   -0.6650   13.0310 C.2   205  LEU205      0.2260
    143  O         12.5190   -0.1230   13.1580 O.2   205  LEU205     -0.2867
    144  CB        15.3000    0.5610   11.6090 C.3   205  LEU205      0.0270
    145  CG        16.5960    1.3600   11.4540 C.3   205  LEU205      0.0019
    146  CD1       16.7480    1.7290    9.9730 C.3   205  LEU205      0.0001
    147  CD2       16.6820    2.5850   12.3450 C.3   205  LEU205      0.0001
    148  N         11.9130   -0.3210   16.4990 N.3   208  TYR208     -0.1227
    149  CA        11.2840    0.9980   16.5380 C.3   208  TYR208      0.1736
    150  C          9.9710    0.9990   15.7430 C.2   208  TYR208      0.2595
    151  O          8.9380    1.4870   16.2160 O.2   208  TYR208     -0.2718
    152  CB        12.2400    2.0790   15.9830 C.3   208  TYR208      0.0548
    153  CG        11.6480    3.4720   16.0730 C.ar  208  TYR208     -0.0200
    154  CD1       10.8400    3.9690   15.0570 C.ar  208  TYR208     -0.0009
    155  CD2       11.8560    4.2590   17.1840 C.ar  208  TYR208     -0.0009
    156  CE1       10.2700    5.2260   15.1450 C.ar  208  TYR208      0.0417
    157  CE2       11.2910    5.5260   17.2850 C.ar  208  TYR208      0.0417
    158  CZ        10.5000    5.9970   16.2650 C.ar  208  TYR208      0.1957
    159  OH         9.9480    7.2550   16.3550 O.3   208  TYR208     -0.2866
    160  N         10.0300    0.4430   14.5380 N.am  209  CYS209     -0.1970
    161  CA         8.8710    0.3540   13.6620 C.3   209  CYS209      0.1712
    162  C          7.7190   -0.3980   14.3080 C.2   209  CYS209      0.2296
    163  O          6.5980    0.0970   14.3530 O.2   209  CYS209     -0.2864
    164  CB         9.2560   -0.3340   12.3430 C.3   209  CYS209      0.0983
    165  SG         7.8750   -0.5030   11.2090 S.3   209  CYS209     -0.0798
    166  N          6.2390    1.4950   17.1970 N.3   212  THR212     -0.1218
    167  CA         5.4870    2.6490   16.6830 C.3   212  THR212      0.1862
    168  C          4.1300    2.2420   16.0480 C.2   212  THR212      0.2287
    169  O          3.1060    2.8940   16.2640 O.2   212  THR212     -0.2866
    170  CB         6.3610    3.4800   15.7250 C.3   212  THR212      0.1770
    171  OG1        7.5470    3.8930   16.4250 O.3   212  THR212     -0.2211
    172  CG2        5.6290    4.7200   15.2500 C.3   212  THR212      0.0375
    173  N          0.1740    8.5230   14.8380 N.3   221  VAL221     -0.1245
    174  CA         1.0550    8.2670   13.7090 C.3   221  VAL221      0.1561
    175  C          0.3180    7.3480   12.7290 C.2   221  VAL221      0.2260
    176  O         -0.0440    6.2280   13.0780 O.2   221  VAL221     -0.2867
    177  CB         2.3900    7.6420   14.1770 C.3   221  VAL221      0.0252
    178  CG1        3.2570    7.2460   12.9750 C.3   221  VAL221      0.0019
    179  CG2        3.1480    8.6170   15.0650 C.3   221  VAL221      0.0019
    180  N         -0.0360    4.9140    9.6080 N.3   223  PHE223     -0.1241
    181  CA         0.6590    3.9650    8.7570 C.3   223  PHE223      0.1605
    182  C         -0.2180    3.6770    7.5540 C.2   223  PHE223      0.2264
    183  O         -1.3090    3.1840    7.7170 O.2   223  PHE223     -0.2867
    184  CB         0.9460    2.6550    9.5120 C.3   223  PHE223      0.0534
    185  CG         2.0930    2.7700   10.4590 C.ar  223  PHE223     -0.0203
    186  CD1        1.9150    3.3780   11.6840 C.ar  223  PHE223     -0.0042
    187  CD2        3.3560    2.3200   10.1090 C.ar  223  PHE223     -0.0042
    188  CE1        2.9680    3.5110   12.5690 C.ar  223  PHE223     -0.0003
    189  CE2        4.4110    2.4390   10.9920 C.ar  223  PHE223     -0.0003
    190  CZ         4.2130    3.0420   12.2270 C.ar  223  PHE223     -0.0000
    191  N          2.4180   -0.2160    3.5870 N.3   227  MET227     -0.1245
    192  CA         3.3350   -0.2780    4.7210 C.3   227  MET227      0.1570
    193  C          2.7410   -1.1290    5.8490 C.2   227  MET227      0.2261
    194  O          3.4360   -1.9450    6.4370 O.2   227  MET227     -0.2867
    195  CB         3.6670    1.1160    5.2470 C.3   227  MET227      0.0387
    196  CG         4.5710    1.0820    6.4680 C.3   227  MET227      0.0595
    197  SD         5.1070    2.7070    6.9770 S.3   227  MET227     -0.1393
    198  CE         6.0010    3.2120    5.5070 C.3   227  MET227      0.0692
@<TRIPOS>BOND
     1    40    39    2
     2    96    97    1
     3    96    95    1
     4    39    38    1
     5    97    98    1
     6    38    37    1
     7    38    41    1
     8    92    95    1
     9    92    91    1
    10    92    93    1
    11   100    99    1
    12    42    41    1
    13    42    43    1
    14    94    93    2
    15    98    99    2
    16    99   101    1
    17    43    45   am
    18    43    44    2
    19    31    30    1
    20    28    27    2
    21   105   104    2
    22    36    35    2
    23    83    84    1
    24   104   103    1
    25    30    32    1
    26    30    29    1
    27    27    26    1
    28    27    33   am
    29    35    34    1
    30    26    29    1
    31    26    25    1
    32    68    69    1
    33    75    74    1
    34    69    70    1
    35    69    72    1
    36    47    50    1
    37    47    46    1
    38    47    48    1
    39    73    72    1
    40    73    74    1
    41    50    51    1
    42    84    85    1
    43    84    87    1
    44    86    85    2
    45    71    70    2
    46    49    48    2
    47    34    33    1
    48    70    76   am
    49   103   102    1
    50   103   106    1
    51    48    60   am
    52   191   192    1
    53    51    52   ar
    54    51    53   ar
    55    87    88    1
    56    78    79    2
    57    78    77    1
    58    76    77    1
    59    52    54   ar
    60   106   107    1
    61    20    19    2
    62    89    88    1
    63   192   195    1
    64   192   193    1
    65    60    61    1
    66    53    56   ar
    67    53    55   ar
    68    77    80    1
    69    88    90    1
    70    56    58   ar
    71   195   196    1
    72    63    62    2
    73    62    61    1
    74    19    18    1
    75   198   197    1
    76    54    55   ar
    77    12    11    2
    78    61    64    1
    79   107   108   ar
    80   107   109   ar
    81   193   194    2
    82    55    57   ar
    83   108   110   ar
    84    81    80    1
    85    58    59   ar
    86    80    82    1
    87   196   197    1
    88    11    10    1
    89    11    17   am
    90   109   111   ar
    91    18    17    1
    92    18    21    1
    93    10     9    1
    94    10    13    1
    95    64    65    1
    96    57    59   ar
    97   110   112   ar
    98    16    14    1
    99   182   183    2
   100   182   181    1
   101    21    22    1
   102   111   112   ar
   103    65    66    1
   104    13    14    1
   105    66    67    1
   106    14    15    1
   107   181   184    1
   108   181   180    1
   109   135   134    2
   110    23    22    2
   111    22    24   am
   112   184   185    1
   113   134   133    1
   114   146   145    1
   115     4     3    2
   116   138   137    1
   117   138   139    1
   118   187   185   ar
   119   187   189   ar
   120   136   133    1
   121   136   137    1
   122   185   186   ar
   123   133   132    1
   124     3     2    1
   125   189   190   ar
   126   165   164    1
   127   145   144    1
   128   145   147    1
   129   144   141    1
   130   186   188   ar
   131     2     1    1
   132     2     5    1
   133   190   188   ar
   134   164   161    1
   135   175   176    2
   136   175   174    1
   137   178   177    1
   138   142   141    1
   139   142   143    2
   140   141   140    1
   141     5     6    1
   142   122   123   ar
   143   122   120   ar
   144   123   121   ar
   145   161   162    1
   146   161   160    1
   147     8     6    1
   148   174   177    1
   149   174   173    1
   150   127   126    2
   151   131   129    1
   152     6     7    1
   153   177   179    1
   154   162   163    2
   155   120   118   ar
   156   129   130    1
   157   129   128    1
   158   160   150   am
   159   121   119   ar
   160   126   125    1
   161   154   156   ar
   162   154   153   ar
   163   156   158   ar
   164   172   170    1
   165   128   125    1
   166   118   119   ar
   167   118   117    1
   168   170   171    1
   169   170   167    1
   170   150   151    2
   171   150   149    1
   172   125   124    1
   173   152   153    1
   174   152   149    1
   175   168   169    2
   176   168   167    1
   177   153   155   ar
   178   158   159    1
   179   158   157   ar
   180   116   115    2
   181   148   149    1
   182   167   166    1
   183   117   114    1
   184   155   157   ar
   185   115   114    1
   186   114   113    1
