@<TRIPOS>MOLECULE
tmp/3zraA00.pdb
 198 186 0 0 0
SMALL
GASTEIGER

@<TRIPOS>ATOM
      1  N          5.1330   12.3460   11.1960 N.3    33  LEU33      -0.1245
      2  CA         5.0570   10.8900   11.1280 C.3    33  LEU33       0.1561
      3  C          4.0600   10.4450   10.0560 C.2    33  LEU33       0.2260
      4  O          4.3390    9.5170    9.3060 O.2    33  LEU33      -0.2867
      5  CB         4.7080   10.2930   12.4930 C.3    33  LEU33       0.0270
      6  CG         5.8460   10.4040   13.5220 C.3    33  LEU33       0.0019
      7  CD1        5.3220   10.2100   14.9390 C.3    33  LEU33       0.0001
      8  CD2        6.9560    9.4150   13.2350 C.3    33  LEU33       0.0001
      9  N          5.7440   11.0080    6.6620 N.3    36  LEU36      -0.1231
     10  CA         6.7630    9.9820    6.4640 C.3    36  LEU36       0.1693
     11  C          6.1370    8.6340    6.0850 C.2    36  LEU36       0.2592
     12  O          6.6630    7.9430    5.2240 O.2    36  LEU36      -0.2718
     13  CB         7.6770    9.8480    7.6910 C.3    36  LEU36       0.0284
     14  CG         8.6470   11.0170    7.8930 C.3    36  LEU36       0.0019
     15  CD1        9.3570   10.9360    9.2440 C.3    36  LEU36       0.0001
     16  CD2        9.6700   11.0860    6.7630 C.3    36  LEU36       0.0001
     17  N          5.0110    8.2700    6.7030 N.am   37  ASN37      -0.1974
     18  CA         4.3160    7.0290    6.3220 C.3    37  ASN37       0.1688
     19  C          3.7170    7.0830    4.9200 C.2    37  ASN37       0.2292
     20  O          3.7270    6.0810    4.2070 O.2    37  ASN37      -0.2864
     21  CB         3.2350    6.6260    7.3370 C.3    37  ASN37       0.1181
     22  CG         3.8000    5.8590    8.5290 C.2    37  ASN37       0.2629
     23  OD1        4.9510    5.4330    8.5070 O.2    37  ASN37      -0.2716
     24  ND2        2.9770    5.6680    9.5750 N.am   37  ASN37      -0.0877
     25  N          4.8820    8.9740    2.4390 N.3    39  LEU39      -0.1231
     26  CA         6.0790    8.8420    1.6190 C.3    39  LEU39       0.1693
     27  C          6.4770    7.3670    1.5560 C.2    39  LEU39       0.2592
     28  O          6.7260    6.8290    0.4760 O.2    39  LEU39      -0.2718
     29  CB         7.2230    9.6980    2.2020 C.3    39  LEU39       0.0284
     30  CG         8.5740    9.6670    1.4760 C.3    39  LEU39       0.0019
     31  CD1        8.4370   10.1780    0.0460 C.3    39  LEU39       0.0001
     32  CD2        9.6220   10.4670    2.2400 C.3    39  LEU39       0.0001
     33  N          6.5070    6.7210    2.7240 N.am   40  GLY40      -0.1957
     34  CA         6.7560    5.2830    2.8510 C.3    40  GLY40       0.1869
     35  C          5.9040    4.4390    1.9280 C.2    40  GLY40       0.2309
     36  O          6.4110    3.5470    1.2450 O.2    40  GLY40      -0.2863
     37  N          7.0540    5.1320   -1.7610 N.3    43  GLN43      -0.1245
     38  CA         8.3260    4.4580   -1.9750 C.3    43  GLN43       0.1566
     39  C          8.1740    2.9430   -2.0720 C.2    43  GLN43       0.2260
     40  O          8.8760    2.3130   -2.8480 O.2    43  GLN43      -0.2867
     41  CB         9.3230    4.8250   -0.8820 C.3    43  GLN43       0.0367
     42  CG         9.7330    6.2760   -1.0040 C.3    43  GLN43       0.0905
     43  CD        10.7860    6.6940   -0.0050 C.2    43  GLN43       0.2608
     44  OE1       11.1120    5.9580    0.9250 O.2    43  GLN43      -0.2717
     45  NE2       11.3180    7.8940   -0.1890 N.am   43  GLN43      -0.0878
     46  N         11.8490   -4.3550    2.5180 N.3    73  TRP73      -0.1227
     47  CA        11.4200   -2.9760    2.2070 C.3    73  TRP73       0.1737
     48  C         12.0560   -1.9320    3.1150 C.2    73  TRP73       0.2595
     49  O         12.4040   -0.8440    2.6510 O.2    73  TRP73      -0.2718
     50  CB         9.8930   -2.8270    2.2360 C.3    73  TRP73       0.0564
     51  CG         9.2730   -3.0900    3.5920 C.ar   73  TRP73       0.0003
     52  CD1        8.8930   -4.2950    4.0890 C.ar   73  TRP73       0.0946
     53  CD2        8.9760   -2.1230    4.6110 C.ar   73  TRP73       0.0152
     54  NE1        8.3870   -4.1500    5.3690 N.ar   73  TRP73      -0.2442
     55  CE2        8.4200   -2.8250    5.7090 C.ar   73  TRP73       0.0810
     56  CE3        9.1330   -0.7290    4.7080 C.ar   73  TRP73       0.0012
     57  CZ2        8.0140   -2.1860    6.8810 C.ar   73  TRP73       0.0191
     58  CZ3        8.7250   -0.0920    5.8750 C.ar   73  TRP73       0.0001
     59  CH2        8.1700   -0.8260    6.9500 C.ar   73  TRP73       0.0015
     60  N         12.2210   -2.2630    4.3960 N.am   74  MET74      -0.1979
     61  CA        12.7540   -1.3040    5.3750 C.3    74  MET74       0.1605
     62  C         14.2300   -1.0510    5.1070 C.2    74  MET74       0.2287
     63  O         14.6910    0.0990    5.1920 O.2    74  MET74      -0.2864
     64  CB        12.5460   -1.7950    6.8190 C.3    74  MET74       0.0413
     65  CG        13.1930   -0.9120    7.8880 C.3    74  MET74       0.0598
     66  SD        12.2570    0.5940    8.2450 S.3    74  MET74      -0.1393
     67  CE        10.8590   -0.1740    9.0810 C.3    74  MET74       0.0692
     68  N         14.4100    1.1310    1.9820 N.3    77  MET77      -0.1230
     69  CA        13.9500    2.5040    2.1710 C.3    77  MET77       0.1702
     70  C         15.0220    3.3480    2.8800 C.2    77  MET77       0.2592
     71  O         15.2580    4.5000    2.5040 O.2    77  MET77      -0.2718
     72  CB        12.6040    2.5350    2.9040 C.3    77  MET77       0.0401
     73  CG        11.3890    2.2860    1.9700 C.3    77  MET77       0.0596
     74  SD         9.7400    2.4290    2.7380 S.3    77  MET77      -0.1393
     75  CE        10.0810    3.6920    3.9620 C.3    77  MET77       0.0692
     76  N         15.7000    2.7610    3.8630 N.am   78  VAL78      -0.1980
     77  CA        16.7260    3.4820    4.6060 C.3    78  VAL78       0.1595
     78  C         18.0540    3.5760    3.8510 C.2    78  VAL78       0.2287
     79  O         18.8260    4.5160    4.0480 O.2    78  VAL78      -0.2864
     80  CB        16.9440    2.8680    6.0180 C.3    78  VAL78       0.0276
     81  CG1       17.6480    1.5240    5.9240 C.3    78  VAL78       0.0022
     82  CG2       17.7130    3.8510    6.9180 C.3    78  VAL78       0.0022
     83  N         17.2580    6.4110    1.5290 N.3    81  LEU81      -0.1245
     84  CA        17.3790    7.6670    2.2680 C.3    81  LEU81       0.1561
     85  C         18.8420    8.0490    2.4050 C.2    81  LEU81       0.2260
     86  O         19.1990    9.1940    2.2010 O.2    81  LEU81      -0.2867
     87  CB        16.7580    7.5390    3.6620 C.3    81  LEU81       0.0270
     88  CG        16.9770    8.6590    4.6800 C.3    81  LEU81       0.0019
     89  CD1       16.2740    9.9330    4.2430 C.3    81  LEU81       0.0001
     90  CD2       16.4620    8.1790    6.0280 C.3    81  LEU81       0.0001
     91  N         20.1340    9.3780   -1.1980 N.3    84  ARG84      -0.1245
     92  CA        19.6100   10.7240   -1.4580 C.3    84  ARG84       0.1563
     93  C         20.2670   11.7630   -0.5500 C.2    84  ARG84       0.2260
     94  O         20.6490   12.8370   -1.0030 O.2    84  ARG84      -0.2867
     95  CB        18.0890   10.7860   -1.2760 C.3    84  ARG84       0.0307
     96  CG        17.2970   10.0610   -2.3450 C.3    84  ARG84       0.0489
     97  CD        15.7950   10.3510   -2.2670 C.3    84  ARG84       0.2205
     98  NE        15.2160   10.0180   -0.9670 N.pl3  84  ARG84      -0.0865
     99  CZ        14.9170    8.7870   -0.5430 C.cat  84  ARG84       0.5346
    100  NH1       15.1440    7.7130   -1.3000 N.pl3  84  ARG84       0.1354
    101  NH2       14.3970    8.6250    0.6680 N.pl3  84  ARG84       0.1354
    102  N         14.4900   12.9240    2.9940 N.3    96  PHE96      -0.1241
    103  CA        13.4110   11.9560    2.7890 C.3    96  PHE96       0.1605
    104  C         12.7570   12.1920    1.4340 C.2    96  PHE96       0.2264
    105  O         12.4190   11.2390    0.7240 O.2    96  PHE96      -0.2867
    106  CB        12.3670   12.0390    3.9040 C.3    96  PHE96       0.0534
    107  CG        12.8910   11.6530    5.2620 C.ar   96  PHE96      -0.0203
    108  CD1       12.9170   10.3190    5.6630 C.ar   96  PHE96      -0.0042
    109  CD2       13.3370   12.6170    6.1470 C.ar   96  PHE96      -0.0042
    110  CE1       13.3890    9.9670    6.9270 C.ar   96  PHE96      -0.0003
    111  CE2       13.8070   12.2650    7.4140 C.ar   96  PHE96      -0.0003
    112  CZ        13.8380   10.9420    7.7940 C.ar   96  PHE96      -0.0000
    113  N         11.2470   12.3090   17.6700 N.3   112  PHE112     -0.1241
    114  CA        11.9820   11.0710   17.3880 C.3   112  PHE112      0.1605
    115  C         13.4330   11.3550   16.9960 C.2   112  PHE112      0.2264
    116  O         13.9160   10.9090   15.9510 O.2   112  PHE112     -0.2867
    117  CB        11.2580   10.2350   16.3160 C.3   112  PHE112      0.0534
    118  CG        10.8850   11.0070   15.0730 C.ar  112  PHE112     -0.0203
    119  CD1        9.7800   11.8580   15.0710 C.ar  112  PHE112     -0.0042
    120  CD2       11.6180   10.8610   13.8990 C.ar  112  PHE112     -0.0042
    121  CE1        9.4260   12.5710   13.9290 C.ar  112  PHE112     -0.0003
    122  CE2       11.2730   11.5700   12.7490 C.ar  112  PHE112     -0.0003
    123  CZ        10.1740   12.4270   12.7630 C.ar  112  PHE112     -0.0000
    124  N         15.6330    8.1170   16.6240 N.3   115  LEU115     -0.1245
    125  CA        15.3750    7.4370   15.3530 C.3   115  LEU115      0.1561
    126  C         16.1140    8.1480   14.2170 C.2   115  LEU115      0.2260
    127  O         16.6790    7.4940   13.3430 O.2   115  LEU115     -0.2867
    128  CB        13.8740    7.3580   15.0320 C.3   115  LEU115      0.0270
    129  CG        13.5030    6.4580   13.8350 C.3   115  LEU115      0.0019
    130  CD1       13.6890    4.9760   14.1600 C.3   115  LEU115      0.0001
    131  CD2       12.0680    6.7270   13.3660 C.3   115  LEU115      0.0001
    132  N         19.0390    6.5190   11.7190 N.3   119  MET119     -0.1245
    133  CA        18.9130    6.5360   10.2640 C.3   119  MET119      0.1570
    134  C         20.0720    7.3080    9.6130 C.2   119  MET119      0.2261
    135  O         20.5180    6.9600    8.5220 O.2   119  MET119     -0.2867
    136  CB        17.5770    7.1730    9.8520 C.3   119  MET119      0.0387
    137  CG        16.3320    6.3260   10.1720 C.3   119  MET119      0.0595
    138  SD        14.7980    7.0970    9.5850 S.3   119  MET119     -0.1393
    139  CE        14.6470    8.4970   10.6730 C.3   119  MET119      0.0692
    140  N         14.9150   -0.2840   13.5360 N.3   205  LEU205     -0.1245
    141  CA        13.8420    0.3930   12.7900 C.3   205  LEU205      0.1561
    142  C         12.5750   -0.4700   12.7830 C.2   205  LEU205      0.2260
    143  O         11.4460    0.0430   12.9280 O.2   205  LEU205     -0.2867
    144  CB        14.2710    0.7280   11.3500 C.3   205  LEU205      0.0270
    145  CG        15.5500    1.5500   11.1470 C.3   205  LEU205      0.0019
    146  CD1       15.8160    1.8370    9.6730 C.3   205  LEU205      0.0001
    147  CD2       15.5060    2.8480   11.9390 C.3   205  LEU205      0.0001
    148  N         10.9140   -0.1100   16.2660 N.3   208  TYR208     -0.1227
    149  CA        10.2840    1.2020   16.3010 C.3   208  TYR208      0.1736
    150  C          9.0250    1.2380   15.4230 C.2   208  TYR208      0.2595
    151  O          8.0030    1.8240   15.8000 O.2   208  TYR208     -0.2718
    152  CB        11.2750    2.2800   15.8530 C.3   208  TYR208      0.0548
    153  CG        10.7760    3.6950   16.0460 C.ar  208  TYR208     -0.0200
    154  CD1        9.9170    4.2780   15.1270 C.ar  208  TYR208     -0.0009
    155  CD2       11.1690    4.4540   17.1500 C.ar  208  TYR208     -0.0009
    156  CE1        9.4500    5.5810   15.3000 C.ar  208  TYR208      0.0417
    157  CE2       10.7150    5.7480   17.3270 C.ar  208  TYR208      0.0417
    158  CZ         9.8510    6.3030   16.3950 C.ar  208  TYR208      0.1957
    159  OH         9.3960    7.5970   16.5490 O.3   208  TYR208     -0.2866
    160  N          9.1060    0.6030   14.2650 N.am  209  CYS209     -0.1970
    161  CA         7.9780    0.5120   13.3400 C.3   209  CYS209      0.1712
    162  C          6.8280   -0.2570   13.9860 C.2   209  CYS209      0.2296
    163  O          5.6830    0.2070   13.9960 O.2   209  CYS209     -0.2864
    164  CB         8.4010   -0.1570   12.0210 C.3   209  CYS209      0.0983
    165  SG         6.9900   -0.5940   10.9630 S.3   209  CYS209     -0.0798
    166  N          5.2740    1.7260   16.8590 N.3   212  THR212     -0.1218
    167  CA         4.4820    2.8240   16.2930 C.3   212  THR212      0.1862
    168  C          3.1720    2.3080   15.6640 C.2   212  THR212      0.2287
    169  O          2.1200    2.9210   15.8250 O.2   212  THR212     -0.2866
    170  CB         5.3000    3.6450   15.2370 C.3   212  THR212      0.1770
    171  OG1        6.4710    4.2030   15.8580 O.3   212  THR212     -0.2211
    172  CG2        4.4540    4.7780   14.6490 C.3   212  THR212      0.0375
    173  N         -1.0460    8.7010   13.9160 N.3   221  VAL221     -0.1245
    174  CA        -0.1520    8.4180   12.7900 C.3   221  VAL221      0.1561
    175  C         -0.7650    7.3140   11.9400 C.2   221  VAL221      0.2260
    176  O         -0.7000    6.1440   12.3150 O.2   221  VAL221     -0.2867
    177  CB         1.2380    7.9350   13.2810 C.3   221  VAL221      0.0252
    178  CG1        2.2000    7.7710   12.0990 C.3   221  VAL221      0.0019
    179  CG2        1.8090    8.8870   14.3170 C.3   221  VAL221      0.0019
    180  N         -1.3050    4.5590    9.0080 N.3   223  PHE223     -0.1241
    181  CA        -0.5230    3.6390    8.2060 C.3   223  PHE223      0.1605
    182  C         -1.3300    3.3020    6.9650 C.2   223  PHE223      0.2264
    183  O         -2.3820    2.6890    7.0710 O.2   223  PHE223     -0.2867
    184  CB        -0.2020    2.3750    9.0120 C.3   223  PHE223      0.0534
    185  CG         0.9150    2.5650    9.9930 C.ar  223  PHE223     -0.0203
    186  CD1        0.7080    3.2710   11.1690 C.ar  223  PHE223     -0.0042
    187  CD2        2.1790    2.0770    9.7230 C.ar  223  PHE223     -0.0042
    188  CE1        1.7370    3.4620   12.0730 C.ar  223  PHE223     -0.0003
    189  CE2        3.2140    2.2690   10.6200 C.ar  223  PHE223     -0.0003
    190  CZ         2.9890    2.9670   11.8030 C.ar  223  PHE223     -0.0000
    191  N          1.6550   -0.5720    3.1010 N.3   227  MET227     -0.1245
    192  CA         2.5370   -0.6050    4.2710 C.3   227  MET227      0.1570
    193  C          1.9410   -1.4340    5.4180 C.2   227  MET227      0.2261
    194  O          2.6270   -2.2810    6.0020 O.2   227  MET227     -0.2867
    195  CB         2.8400    0.8150    4.7480 C.3   227  MET227      0.0387
    196  CG         3.7470    0.8580    5.9560 C.3   227  MET227      0.0595
    197  SD         4.0240    2.5280    6.5300 S.3   227  MET227     -0.1393
    198  CE         4.9660    3.1680    5.1300 C.3   227  MET227      0.0692
@<TRIPOS>BOND
     1    40    39    2
     2    96    97    1
     3    96    95    1
     4    97    98    1
     5    39    38    1
     6    38    37    1
     7    38    41    1
     8    92    95    1
     9    92    91    1
    10    92    93    1
    11   100    99    1
    12    42    41    1
    13    42    43    1
    14    94    93    2
    15    98    99    2
    16    99   101    1
    17    45    43   am
    18    43    44    2
    19    31    30    1
    20    28    27    2
    21   105   104    2
    22    36    35    2
    23   104   103    1
    24    30    29    1
    25    30    32    1
    26    83    84    1
    27    27    26    1
    28    27    33   am
    29    26    29    1
    30    26    25    1
    31    35    34    1
    32    73    74    1
    33    73    72    1
    34    68    69    1
    35    69    70    1
    36    69    72    1
    37    86    85    2
    38    47    50    1
    39    47    46    1
    40    47    48    1
    41    50    51    1
    42    84    85    1
    43    84    87    1
    44    71    70    2
    45    49    48    2
    46    33    34    1
    47    74    75    1
    48   103   102    1
    49   103   106    1
    50    70    76   am
    51   191   192    1
    52    48    60   am
    53    51    52   ar
    54    51    53   ar
    55    87    88    1
    56    78    79    2
    57    78    77    1
    58    76    77    1
    59   106   107    1
    60    52    54   ar
    61    20    19    2
    62    89    88    1
    63   192   195    1
    64   192   193    1
    65    60    61    1
    66    77    80    1
    67    53    56   ar
    68    53    55   ar
    69    88    90    1
    70    56    58   ar
    71   195   196    1
    72    19    18    1
    73    62    63    2
    74    62    61    1
    75   198   197    1
    76    12    11    2
    77   107   108   ar
    78   107   109   ar
    79    54    55   ar
    80    61    64    1
    81   193   194    2
    82   108   110   ar
    83    55    57   ar
    84    58    59   ar
    85    81    80    1
    86   196   197    1
    87    80    82    1
    88    11    10    1
    89    11    17   am
    90   109   111   ar
    91    18    17    1
    92    18    21    1
    93    10     9    1
    94    10    13    1
    95    16    14    1
    96    64    65    1
    97    57    59   ar
    98   110   112   ar
    99   182   183    2
   100   182   181    1
   101    21    22    1
   102   111   112   ar
   103    13    14    1
   104    65    66    1
   105    14    15    1
   106   181   180    1
   107   181   184    1
   108    66    67    1
   109    23    22    2
   110   135   134    2
   111    22    24   am
   112   184   185    1
   113     4     3    2
   114   138   137    1
   115   138   139    1
   116   134   133    1
   117   146   145    1
   118   187   185   ar
   119   187   189   ar
   120   136   137    1
   121   136   133    1
   122   185   186   ar
   123     3     2    1
   124   133   132    1
   125   189   190   ar
   126   165   164    1
   127     2     1    1
   128     2     5    1
   129   145   144    1
   130   145   147    1
   131   186   188   ar
   132   144   141    1
   133   190   188   ar
   134   175   176    2
   135   175   174    1
   136   164   161    1
   137   178   177    1
   138     5     6    1
   139   122   123   ar
   140   122   120   ar
   141   123   121   ar
   142   142   141    1
   143   142   143    2
   144   141   140    1
   145   174   177    1
   146   174   173    1
   147     8     6    1
   148   177   179    1
   149   161   162    1
   150   161   160    1
   151   127   126    2
   152   131   129    1
   153     6     7    1
   154   129   130    1
   155   129   128    1
   156   120   118   ar
   157   121   119   ar
   158   162   163    2
   159   126   125    1
   160   160   150   am
   161   172   170    1
   162   128   125    1
   163   119   118   ar
   164   118   117    1
   165   154   156   ar
   166   154   153   ar
   167   170   171    1
   168   170   167    1
   169   156   158   ar
   170   125   124    1
   171   150   151    2
   172   150   149    1
   173   168   169    2
   174   168   167    1
   175   152   153    1
   176   152   149    1
   177   116   115    2
   178   153   155   ar
   179   148   149    1
   180   167   166    1
   181   117   114    1
   182   158   159    1
   183   158   157   ar
   184   115   114    1
   185   155   157   ar
   186   114   113    1
