@<TRIPOS>MOLECULE
tmp/3zrbB00.pdb
 187 175 0 0 0
SMALL
GASTEIGER

@<TRIPOS>ATOM
      1  N         18.8140   17.4480   23.3120 N.3    33  LEU33      -0.1245
      2  CA        18.8650   16.0000   23.4270 C.3    33  LEU33       0.1561
      3  C         19.8820   15.5660   24.4870 C.2    33  LEU33       0.2260
      4  O         19.5990   14.6670   25.2810 O.2    33  LEU33      -0.2867
      5  CB        19.1590   15.3490   22.0700 C.3    33  LEU33       0.0270
      6  CG        18.0440   15.4970   21.0260 C.3    33  LEU33       0.0019
      7  CD1       18.5500   15.1230   19.6310 C.3    33  LEU33       0.0001
      8  CD2       16.8070   14.6940   21.3680 C.3    33  LEU33       0.0001
      9  N         18.3420   16.3220   27.9560 N.3    36  LEU36      -0.1231
     10  CA        17.3170   15.3140   28.2020 C.3    36  LEU36       0.1693
     11  C         17.9050   13.9550   28.6030 C.2    36  LEU36       0.2592
     12  O         17.3210   13.2380   29.4190 O.2    36  LEU36      -0.2718
     13  CB        16.4080   15.1570   26.9760 C.3    36  LEU36       0.0284
     14  CG        15.4480   16.3210   26.7470 C.3    36  LEU36       0.0019
     15  CD1       14.6820   16.1780   25.4340 C.3    36  LEU36       0.0001
     16  CD2       14.4840   16.4160   27.9210 C.3    36  LEU36       0.0001
     17  N         19.0480   13.5970   28.0240 N.am   37  ASN37      -0.1974
     18  CA        19.7380   12.3630   28.3950 C.3    37  ASN37       0.1688
     19  C         20.4070   12.4160   29.7700 C.2    37  ASN37       0.2292
     20  O         20.4360   11.4090   30.4710 O.2    37  ASN37      -0.2864
     21  CB        20.7890   11.9690   27.3500 C.3    37  ASN37       0.1181
     22  CG        20.2200   11.1540   26.1990 C.2    37  ASN37       0.2629
     23  OD1       19.0500   10.7890   26.1920 O.2    37  ASN37      -0.2716
     24  ND2       21.0670   10.8750   25.2000 N.am   37  ASN37      -0.0877
     25  N         19.2970   14.2220   32.1610 N.3    39  LEU39      -0.1231
     26  CA        18.1030   14.1710   32.9910 C.3    39  LEU39       0.1693
     27  C         17.6390   12.7390   33.0900 C.2    39  LEU39       0.2592
     28  O         17.2280   12.2890   34.1550 O.2    39  LEU39      -0.2718
     29  CB        16.9810   15.0280   32.3850 C.3    39  LEU39       0.0284
     30  CG        15.6710   15.1110   33.1710 C.3    39  LEU39       0.0019
     31  CD1       15.9270   15.5500   34.6120 C.3    39  LEU39       0.0001
     32  CD2       14.7110   16.0610   32.4810 C.3    39  LEU39       0.0001
     33  N         17.6790   12.0430   31.9540 N.am   40  GLY40      -0.1957
     34  CA        17.3530   10.6220   31.8720 C.3    40  GLY40       0.1869
     35  C         18.2240    9.7920   32.7830 C.2    40  GLY40       0.2309
     36  O         17.7320    8.9080   33.4830 O.2    40  GLY40      -0.2863
     37  N         17.0730   10.5390   36.4410 N.3    43  GLN43      -0.1245
     38  CA        15.8270    9.8180   36.6640 C.3    43  GLN43       0.1566
     39  C         15.9930    8.3080   36.7370 C.2    43  GLN43       0.2260
     40  O         15.3040    7.6490   37.5160 O.2    43  GLN43      -0.2867
     41  CB        14.8120   10.1730   35.5860 C.3    43  GLN43       0.0367
     42  CG        14.4450   11.6390   35.6600 C.3    43  GLN43       0.0905
     43  CD        13.3740   12.0320   34.6770 C.2    43  GLN43       0.2608
     44  OE1       12.9570   11.2300   33.8450 O.2    43  GLN43      -0.2717
     45  NE2       12.9240   13.2770   34.7610 N.am   43  GLN43      -0.0878
     46  N         12.3690    0.9180   32.0750 N.3    73  TRP73      -0.1227
     47  CA        12.7970    2.2970   32.3740 C.3    73  TRP73       0.1737
     48  C         12.1650    3.3430   31.4600 C.2    73  TRP73       0.2595
     49  O         11.7660    4.4190   31.9230 O.2    73  TRP73      -0.2718
     50  CB        14.3190    2.4410   32.3690 C.3    73  TRP73       0.0564
     51  CG        14.9620    2.1870   31.0410 C.ar   73  TRP73       0.0003
     52  CD1       15.3610    0.9830   30.5530 C.ar   73  TRP73       0.0946
     53  CD2       15.2790    3.1580   30.0280 C.ar   73  TRP73       0.0152
     54  NE1       15.8800    1.1300   29.2940 N.ar   73  TRP73      -0.2442
     55  CE2       15.8560    2.4560   28.9490 C.ar   73  TRP73       0.0810
     56  CE3       15.1180    4.5470   29.9240 C.ar   73  TRP73       0.0012
     57  CZ2       16.2800    3.0930   27.7740 C.ar   73  TRP73       0.0191
     58  CZ3       15.5590    5.1860   28.7620 C.ar   73  TRP73       0.0001
     59  CH2       16.1280    4.4520   27.7010 C.ar   73  TRP73       0.0015
     60  N         12.0450    3.0360   30.1700 N.am   74  MET74      -0.1979
     61  CA        11.5170    4.0220   29.2160 C.3    74  MET74       0.1605
     62  C         10.0540    4.2860   29.5450 C.2    74  MET74       0.2287
     63  O          9.6130    5.4440   29.5870 O.2    74  MET74      -0.2864
     64  CB        11.6490    3.5250   27.7670 C.3    74  MET74       0.0413
     65  CG        10.9350    4.4020   26.7470 C.3    74  MET74       0.0598
     66  SD        11.8850    5.8940   26.4160 S.3    74  MET74      -0.1393
     67  CE        13.1900    5.1100   25.4740 C.3    74  MET74       0.0692
     68  N          9.8180    6.3810   32.6360 N.3    77  MET77      -0.1230
     69  CA        10.2190    7.7610   32.3760 C.3    77  MET77       0.1702
     70  C          9.1160    8.5670   31.7190 C.2    77  MET77       0.2592
     71  O          8.8470    9.7020   32.1130 O.2    77  MET77      -0.2718
     72  CB        11.4900    7.8260   31.5300 C.3    77  MET77       0.0401
     73  CG        12.7370    7.6390   32.3660 C.3    77  MET77       0.0596
     74  SD        14.2930    7.9650   31.5060 S.3    77  MET77      -0.1393
     75  CE        15.3650    7.0950   32.6350 C.3    77  MET77       0.0692
     76  N          8.4560    7.9760   30.7300 N.am   78  VAL78      -0.1980
     77  CA         7.4690    8.7140   29.9680 C.3    78  VAL78       0.1595
     78  C          6.1450    8.7880   30.7220 C.2    78  VAL78       0.2287
     79  O          5.3390    9.6800   30.4790 O.2    78  VAL78      -0.2864
     80  CB         7.2830    8.1150   28.5550 C.3    78  VAL78       0.0276
     81  CG1        6.4400    6.8550   28.6140 C.3    78  VAL78       0.0022
     82  CG2        6.6760    9.1510   27.5930 C.3    78  VAL78       0.0022
     83  N          6.9590   11.6970   33.1740 N.3    81  LEU81      -0.1245
     84  CA         6.8310   12.9080   32.3590 C.3    81  LEU81       0.1561
     85  C          5.3650   13.2880   32.2110 C.2    81  LEU81       0.2260
     86  O          4.9820   14.4300   32.4580 O.2    81  LEU81      -0.2867
     87  CB         7.4290   12.6880   30.9630 C.3    81  LEU81       0.0270
     88  CG         7.2310   13.8130   29.9400 C.3    81  LEU81       0.0019
     89  CD1        7.9510   15.0800   30.3710 C.3    81  LEU81       0.0001
     90  CD2        7.6910   13.3740   28.5610 C.3    81  LEU81       0.0001
     91  N          4.0480   14.5960   35.7550 N.3    84  ARG84      -0.1245
     92  CA         4.5770   15.9380   35.9980 C.3    84  ARG84       0.1563
     93  C          3.9020   16.9750   35.1020 C.2    84  ARG84       0.2260
     94  O          3.5260   18.0540   35.5590 O.2    84  ARG84      -0.2867
     95  CB         6.0910   15.9870   35.7630 C.3    84  ARG84       0.0307
     96  CG         6.9110   15.2080   36.7850 C.3    84  ARG84       0.0489
     97  CD         8.3860   15.5930   36.7580 C.3    84  ARG84       0.2205
     98  NE         9.0280   15.3110   35.4730 N.pl3  84  ARG84      -0.0865
     99  CZ         9.3870   14.1030   35.0360 C.cat  84  ARG84       0.5346
    100  NH1        9.1570   13.0130   35.7620 N.pl3  84  ARG84       0.1354
    101  NH2        9.9780   13.9790   33.8480 N.pl3  84  ARG84       0.1354
    102  N          9.6180   18.2210   31.6400 N.3    96  PHE96      -0.1241
    103  CA        10.6870   17.2520   31.8420 C.3    96  PHE96       0.1605
    104  C         11.3550   17.4850   33.1910 C.2    96  PHE96       0.2264
    105  O         11.7160   16.5360   33.8900 O.2    96  PHE96      -0.2867
    106  CB        11.7430   17.3540   30.7360 C.3    96  PHE96       0.0534
    107  CG        11.2420   16.9730   29.3710 C.ar   96  PHE96      -0.0203
    108  CD1       11.2200   15.6470   28.9720 C.ar   96  PHE96      -0.0042
    109  CD2       10.8220   17.9440   28.4770 C.ar   96  PHE96      -0.0042
    110  CE1       10.7680   15.2930   27.7150 C.ar   96  PHE96      -0.0003
    111  CE2       10.3740   17.5940   27.2140 C.ar   96  PHE96      -0.0003
    112  CZ        10.3510   16.2670   26.8340 C.ar   96  PHE96      -0.0000
    113  N          8.3780   13.2580   17.9690 N.3   115  LEU115     -0.1245
    114  CA         8.6640   12.5870   19.2330 C.3   115  LEU115      0.1561
    115  C          7.8920   13.3000   20.3290 C.2   115  LEU115      0.2260
    116  O          7.1670   12.6630   21.0820 O.2   115  LEU115     -0.2867
    117  CB        10.1580   12.5990   19.5720 C.3   115  LEU115      0.0270
    118  CG        10.5640   11.7110   20.7550 C.3   115  LEU115      0.0019
    119  CD1       10.3140   10.2440   20.4400 C.3   115  LEU115      0.0001
    120  CD2       12.0290   11.9380   21.1430 C.3   115  LEU115      0.0001
    121  N          4.9940   11.6400   22.9430 N.3   119  MET119     -0.1245
    122  CA         5.1250   11.6680   24.3900 C.3   119  MET119      0.1570
    123  C          3.9780   12.4380   25.0410 C.2   119  MET119      0.2261
    124  O          3.4870   12.0660   26.1110 O.2   119  MET119     -0.2867
    125  CB         6.4450   12.3400   24.7580 C.3   119  MET119      0.0387
    126  CG         7.6660   11.6200   24.1970 C.3   119  MET119      0.0595
    127  SD         9.1580   12.0360   25.1090 S.3   119  MET119     -0.1393
    128  CE         9.7180   13.4950   24.2680 C.3   119  MET119      0.0692
    129  N          9.1790    4.9210   21.0900 N.3   205  LEU205     -0.1245
    130  CA        10.2270    5.5860   21.8570 C.3   205  LEU205      0.1561
    131  C         11.4930    4.7420   21.8540 C.2   205  LEU205      0.2260
    132  O         12.6040    5.2690   21.7290 O.2   205  LEU205     -0.2867
    133  CB         9.7780    5.8200   23.3040 C.3   205  LEU205      0.0270
    134  CG         8.8840    7.0290   23.6020 C.3   205  LEU205      0.0019
    135  CD1        7.8120    7.2250   22.5540 C.3   205  LEU205      0.0001
    136  CD2        8.2610    6.9060   24.9870 C.3   205  LEU205      0.0001
    137  N         13.2020    5.1180   18.4780 N.3   208  TYR208     -0.1227
    138  CA        13.8150    6.4310   18.3720 C.3   208  TYR208      0.1736
    139  C         15.0920    6.4330   19.1920 C.2   208  TYR208      0.2595
    140  O         16.1360    6.8960   18.7370 O.2   208  TYR208     -0.2718
    141  CB        12.8680    7.5190   18.8980 C.3   208  TYR208      0.0548
    142  CG        13.4350    8.9140   18.7330 C.ar  208  TYR208     -0.0200
    143  CD1       14.3260    9.4320   19.6610 C.ar  208  TYR208     -0.0009
    144  CD2       13.1180    9.6880   17.6270 C.ar  208  TYR208     -0.0009
    145  CE1       14.8770   10.6960   19.4970 C.ar  208  TYR208      0.0417
    146  CE2       13.6470   10.9480   17.4600 C.ar  208  TYR208      0.0417
    147  CZ        14.5240   11.4490   18.4010 C.ar  208  TYR208      0.1957
    148  OH        15.0340   12.7160   18.2460 O.3   208  TYR208     -0.2866
    149  N         14.9930    5.8700   20.3900 N.am  209  CYS209     -0.1970
    150  CA        16.1220    5.7560   21.3020 C.3   209  CYS209      0.1712
    151  C         17.2790    4.9700   20.6870 C.2   209  CYS209      0.2296
    152  O         18.4320    5.4190   20.7180 O.2   209  CYS209     -0.2864
    153  CB        15.6970    5.0930   22.6160 C.3   209  CYS209      0.0983
    154  SG        17.1080    4.7070   23.6620 S.3   209  CYS209     -0.0798
    155  N         18.9450    6.8490   17.8740 N.3   212  THR212     -0.1218
    156  CA        19.7100    8.0030   18.3320 C.3   212  THR212      0.1862
    157  C         21.0220    7.5470   18.9510 C.2   212  THR212      0.2287
    158  O         22.0590    8.1800   18.7450 O.2   212  THR212     -0.2866
    159  CB        18.9130    8.8490   19.3460 C.3   212  THR212      0.1770
    160  OG1       17.7360    9.3580   18.7060 O.3   212  THR212     -0.2211
    161  CG2       19.7470   10.0280   19.8450 C.3   212  THR212      0.0375
    162  N         24.8910   13.8020   20.5280 N.3   221  VAL221     -0.1245
    163  CA        24.0180   13.5020   21.6620 C.3   221  VAL221      0.1561
    164  C         24.7730   12.5610   22.6050 C.2   221  VAL221      0.2260
    165  O         25.0470   11.4140   22.2490 O.2   221  VAL221     -0.2867
    166  CB        22.7080   12.8220   21.1890 C.3   221  VAL221      0.0252
    167  CG1       21.7090   12.6780   22.3370 C.3   221  VAL221      0.0019
    168  CG2       22.0720   13.5920   20.0460 C.3   221  VAL221      0.0019
    169  N         25.1540    9.9720   25.5440 N.3   223  PHE223     -0.1241
    170  CA        24.4250    8.9950   26.3580 C.3   223  PHE223      0.1605
    171  C         25.2670    8.6640   27.5850 C.2   223  PHE223      0.2264
    172  O         26.3590    8.1160   27.4480 O.2   223  PHE223     -0.2867
    173  CB        24.1220    7.7240   25.5520 C.3   223  PHE223      0.0534
    174  CG        22.9760    7.8820   24.5970 C.ar  223  PHE223     -0.0203
    175  CD1       23.1400    8.5660   23.4020 C.ar  223  PHE223     -0.0042
    176  CD2       21.7220    7.3960   24.9150 C.ar  223  PHE223     -0.0042
    177  CE1       22.0690    8.7410   22.5320 C.ar  223  PHE223     -0.0003
    178  CE2       20.6560    7.5790   24.0600 C.ar  223  PHE223     -0.0003
    179  CZ        20.8350    8.2440   22.8640 C.ar  223  PHE223     -0.0000
    180  N         22.3720    4.8200   31.4890 N.3   227  MET227     -0.1245
    181  CA        21.4900    4.7470   30.3340 C.3   227  MET227      0.1570
    182  C         22.1190    3.9220   29.1980 C.2   227  MET227      0.2261
    183  O         21.4560    3.0570   28.6240 O.2   227  MET227     -0.2867
    184  CB        21.1350    6.1530   29.8550 C.3   227  MET227      0.0387
    185  CG        20.0820    6.1920   28.7660 C.3   227  MET227      0.0595
    186  SD        19.9840    7.8510   28.0910 S.3   227  MET227     -0.1393
    187  CE        18.9060    8.5780   29.3190 C.3   227  MET227      0.0692
@<TRIPOS>BOND
     1   146   144   ar
     2   146   147   ar
     3   144   142   ar
     4   155   156    1
     5   113   114    1
     6   148   147    1
     7   156   157    1
     8   156   159    1
     9   138   137    1
    10   138   141    1
    11   138   139    1
    12   147   145   ar
    13   160   159    1
    14   142   141    1
    15   142   143   ar
    16   140   139    2
    17   158   157    2
    18   139   149   am
    19   114   117    1
    20   114   115    1
    21   159   161    1
    22   145   143   ar
    23   117   118    1
    24     7     6    1
    25   168   166    1
    26   115   116    2
    27   149   150    1
    28   119   118    1
    29   162   163    1
    30   151   152    2
    31   151   150    1
    32   118   120    1
    33     6     8    1
    34     6     5    1
    35   129   130    1
    36   166   163    1
    37   166   167    1
    38   150   153    1
    39   163   164    1
    40   132   131    2
    41   131   130    1
    42   130   133    1
    43     5     2    1
    44   165   164    2
    45   177   179   ar
    46   177   175   ar
    47   135   134    1
    48   153   154    1
    49   179   178   ar
    50   121   122    1
    51   133   134    1
    52     1     2    1
    53   175   174   ar
    54     2     3    1
    55   134   136    1
    56   178   176   ar
    57   126   125    1
    58   126   127    1
    59   128   127    1
    60   122   125    1
    61   122   123    1
    62     3     4    2
    63   174   176   ar
    64   174   173    1
    65   123   124    2
    66    24    22   am
    67    15    14    1
    68    67    66    1
    69   169   170    1
    70   173   170    1
    71    23    22    2
    72    22    21    1
    73   170   171    1
    74    66    65    1
    75    14    13    1
    76    14    16    1
    77    65    64    1
    78   112   111   ar
    79   112   110   ar
    80    13    10    1
    81   111   109   ar
    82    21    18    1
    83   172   171    2
    84    82    80    1
    85    59    57   ar
    86    59    58   ar
    87   110   108   ar
    88    64    61    1
    89    57    55   ar
    90     9    10    1
    91    17    18    1
    92    17    11   am
    93   186   185    1
    94   186   187    1
    95    10    11    1
    96    18    19    1
    97   109   107   ar
    98    80    81    1
    99    80    77    1
   100    90    88    1
   101    11    12    2
   102   183   182    2
   103    58    56   ar
   104   185   184    1
   105    55    54   ar
   106    55    53   ar
   107   108   107   ar
   108   182   181    1
   109    61    62    1
   110    61    60    1
   111    54    52   ar
   112   107   106    1
   113    62    63    2
   114    19    20    2
   115   184   181    1
   116    56    53   ar
   117    88    89    1
   118    88    87    1
   119    77    78    1
   120    77    76    1
   121    53    51   ar
   122    60    48   am
   123   181   180    1
   124    79    78    2
   125    52    51   ar
   126    76    70   am
   127   106   103    1
   128    87    84    1
   129    51    50    1
   130    48    49    2
   131    48    47    1
   132    74    73    1
   133    74    75    1
   134    72    73    1
   135    72    69    1
   136   102   103    1
   137    70    71    2
   138    70    69    1
   139   103   104    1
   140    34    33    1
   141    34    35    1
   142    33    27   am
   143    46    47    1
   144    25    26    1
   145    85    84    1
   146    85    86    2
   147    84    83    1
   148    50    47    1
   149    69    68    1
   150    29    26    1
   151    29    30    1
   152    32    30    1
   153    35    36    2
   154    26    27    1
   155    27    28    2
   156    30    31    1
   157   104   105    2
   158    44    43    2
   159   101    99    1
   160    43    45   am
   161    43    42    1
   162    99    98    2
   163    99   100    1
   164    93    94    2
   165    93    92    1
   166    98    97    1
   167    41    42    1
   168    41    38    1
   169    91    92    1
   170    95    92    1
   171    95    96    1
   172    37    38    1
   173    38    39    1
   174    39    40    2
   175    97    96    1
