@<TRIPOS>MOLECULE
tmp/3zrcL00.pdb
 160 160 0 0 0
SMALL
GASTEIGER

@<TRIPOS>ATOM
      1  N        -62.3450   31.0220   -6.9290 N.3     6  ASN6       -0.1240
      2  CA       -61.7240   32.3380   -6.8380 C.3     6  ASN6        0.1653
      3  C        -62.7160   33.4950   -6.6100 C.2     6  ASN6        0.2266
      4  O        -62.7290   34.4830   -7.3400 O.2     6  ASN6       -0.2867
      5  CB       -60.7800   32.5730   -8.0190 C.3     6  ASN6        0.1155
      6  CG       -60.0410   33.8660   -7.9070 C.2     6  ASN6        0.2627
      7  OD1      -60.5760   34.8200   -7.3890 O.2     6  ASN6       -0.2716
      8  ND2      -58.8120   33.9090   -8.3820 N.am    6  ASN6       -0.0877
      9  N        -62.8650   35.9880   -4.6300 N.3     8  ARG8       -0.1245
     10  CA       -62.3770   37.3350   -4.5970 C.3     8  ARG8        0.1563
     11  C        -63.0610   38.0780   -3.4820 C.2     8  ARG8        0.2260
     12  O        -62.7240   39.2350   -3.2230 O.2     8  ARG8       -0.2867
     13  CB       -62.7170   38.0460   -5.9010 C.3     8  ARG8        0.0307
     14  CG       -61.6790   37.8920   -6.9680 C.3     8  ARG8        0.0489
     15  CD       -60.5820   38.9300   -6.8320 C.3     8  ARG8        0.2205
     16  NE       -59.4040   38.5270   -7.5850 N.pl3   8  ARG8       -0.0865
     17  CZ       -59.4360   38.1170   -8.8560 C.cat   8  ARG8        0.5346
     18  NH1      -60.6050   38.0400   -9.5030 N.pl3   8  ARG8        0.1354
     19  NH2      -58.3110   37.7750   -9.4840 N.pl3   8  ARG8        0.1354
     20  N        -58.4380   31.4390   13.6550 N.3    15  PHE15      -0.1241
     21  CA       -57.8530   30.1160   13.8760 C.3    15  PHE15       0.1605
     22  C        -57.6680   29.8030   15.3640 C.2    15  PHE15       0.2264
     23  O        -56.6380   30.1780   15.9840 O.2    15  PHE15      -0.2867
     24  CB       -56.4890   30.0310   13.2190 C.3    15  PHE15       0.0534
     25  CG       -56.5340   29.7790   11.7630 C.ar   15  PHE15      -0.0203
     26  CD1      -57.7190   29.4410   11.1360 C.ar   15  PHE15      -0.0042
     27  CD2      -55.3670   29.8280   11.0210 C.ar   15  PHE15      -0.0042
     28  CE1      -57.7320   29.1950    9.7940 C.ar   15  PHE15      -0.0003
     29  CE2      -55.3610   29.5690    9.6800 C.ar   15  PHE15      -0.0003
     30  CZ       -56.5240   29.2640    9.0570 C.ar   15  PHE15      -0.0000
     31  N        -51.5790   25.3150    9.3400 N.3    25  PRO25      -0.2116
     32  CA       -52.7010   25.5220    8.4470 C.3    25  PRO25       0.1372
     33  C        -52.1900   25.3600    7.0230 C.2    25  PRO25       0.2244
     34  O        -51.0590   25.7140    6.7210 O.2    25  PRO25      -0.2868
     35  CB       -53.0890   26.9640    8.7170 C.3    25  PRO25       0.0268
     36  CG       -51.8320   27.6170    9.2270 C.3    25  PRO25       0.0207
     37  CD       -51.1750   26.5520   10.0380 C.3    25  PRO25       0.0892
     38  N        -53.4860   26.0050    3.1530 N.3    27  TRP27      -0.1241
     39  CA       -54.4340   26.4500    2.1830 C.3    27  TRP27       0.1605
     40  C        -54.2920   25.6700    0.8880 C.2    27  TRP27       0.2264
     41  O        -53.1910   25.3730    0.4870 O.2    27  TRP27      -0.2867
     42  CB       -54.1350   27.9130    1.9220 C.3    27  TRP27       0.0550
     43  CG       -54.8620   28.5270    0.7470 C.ar   27  TRP27       0.0003
     44  CD1      -56.1970   28.5950    0.5690 C.ar   27  TRP27       0.0946
     45  CD2      -54.2650   29.1870   -0.3690 C.ar   27  TRP27       0.0152
     46  NE1      -56.4750   29.2360   -0.5970 N.ar   27  TRP27      -0.2442
     47  CE2      -55.3040   29.6070   -1.1980 C.ar   27  TRP27       0.0810
     48  CE3      -52.9390   29.4470   -0.7540 C.ar   27  TRP27       0.0012
     49  CZ2      -55.0820   30.2870   -2.3870 C.ar   27  TRP27       0.0191
     50  CZ3      -52.7190   30.1180   -1.9330 C.ar   27  TRP27       0.0001
     51  CH2      -53.7930   30.5350   -2.7350 C.ar   27  TRP27       0.0015
     52  N        -55.4160   27.6040   -5.9800 N.3    30  PHE30      -0.1241
     53  CA       -56.3380   27.5780   -7.0920 C.3    30  PHE30       0.1605
     54  C        -56.0170   26.4180   -8.0740 C.2    30  PHE30       0.2264
     55  O        -56.9150   25.9760   -8.8110 O.2    30  PHE30      -0.2867
     56  CB       -56.3320   28.9310   -7.8070 C.3    30  PHE30       0.0534
     57  CG       -56.8500   30.0830   -6.9690 C.ar   30  PHE30      -0.0203
     58  CD1      -58.1640   30.0820   -6.4650 C.ar   30  PHE30      -0.0042
     59  CD2      -56.0440   31.1860   -6.7040 C.ar   30  PHE30      -0.0042
     60  CE1      -58.6450   31.1480   -5.6880 C.ar   30  PHE30      -0.0003
     61  CE2      -56.5130   32.2670   -5.9310 C.ar   30  PHE30      -0.0003
     62  CZ       -57.8070   32.2490   -5.4310 C.ar   30  PHE30      -0.0000
     63  N        -48.8710   27.5040    5.6980 N.3    37  TYR37      -0.1228
     64  CA       -48.9600   28.8270    6.2490 C.3    37  TYR37       0.1721
     65  C        -48.2400   28.8730    7.5790 C.2    37  TYR37       0.2437
     66  O        -47.8290   27.8340    8.0870 O.2    37  TYR37      -0.2733
     67  CB       -50.4240   29.1790    6.3930 C.3    37  TYR37       0.0547
     68  CG       -50.8920   29.8400    5.1640 C.ar   37  TYR37      -0.0200
     69  CD1      -51.1110   29.1020    4.0020 C.ar   37  TYR37      -0.0009
     70  CD2      -51.0510   31.2150    5.1210 C.ar   37  TYR37      -0.0009
     71  CE1      -51.5110   29.7190    2.8330 C.ar   37  TYR37       0.0417
     72  CE2      -51.4540   31.8440    3.9500 C.ar   37  TYR37       0.0417
     73  CZ       -51.6820   31.0820    2.8200 C.ar   37  TYR37       0.1957
     74  OH       -52.0860   31.6910    1.6850 O.3    37  TYR37      -0.2866
     75  N        -48.0820   30.0750    8.1560 N.am   38  PRO38      -0.2729
     76  CA       -47.3220   30.1180    9.3950 C.3    38  PRO38       0.1401
     77  C        -48.0170   29.3320   10.5050 C.2    38  PRO38       0.2269
     78  O        -49.2490   29.3120   10.5860 O.2    38  PRO38      -0.2865
     79  CB       -47.2530   31.6110    9.7110 C.3    38  PRO38       0.0296
     80  CG       -47.7210   32.3010    8.4970 C.3    38  PRO38       0.0237
     81  CD       -48.6650   31.3870    7.8490 C.3    38  PRO38       0.0939
     82  N        -49.0350   27.5090   14.2150 N.3    40  LEU40      -0.1245
     83  CA       -49.6770   27.9690   15.4390 C.3    40  LEU40       0.1561
     84  C        -49.0580   27.3180   16.6680 C.2    40  LEU40       0.2260
     85  O        -49.0150   26.0830   16.7280 O.2    40  LEU40      -0.2867
     86  CB       -51.1430   27.5990   15.3710 C.3    40  LEU40       0.0270
     87  CG       -51.9450   28.3530   14.3090 C.3    40  LEU40       0.0019
     88  CD1      -52.8040   27.3840   13.4950 C.3    40  LEU40       0.0001
     89  CD2      -52.7960   29.4890   14.8740 C.3    40  LEU40       0.0001
     90  N        -55.9290   33.3120   16.2590 N.3    46  ARG46      -0.1245
     91  CA       -55.2790   34.2320   15.3490 C.3    46  ARG46       0.1563
     92  C        -56.1840   34.5980   14.1900 C.2    46  ARG46       0.2260
     93  O        -56.6960   33.7250   13.4740 O.2    46  ARG46      -0.2867
     94  CB       -54.0250   33.5390   14.8200 C.3    46  ARG46       0.0307
     95  CG       -53.1440   34.4000   13.9930 C.3    46  ARG46       0.0489
     96  CD       -51.8240   33.7140   13.7860 C.3    46  ARG46       0.2205
     97  NE       -51.0110   33.6920   15.0020 N.pl3  46  ARG46      -0.0865
     98  CZ       -49.9180   32.9460   15.1680 C.cat  46  ARG46       0.5346
     99  NH1      -49.4890   32.1320   14.1890 N.pl3  46  ARG46       0.1354
    100  NH2      -49.2550   33.0040   16.3230 N.pl3  46  ARG46       0.1354
    101  N        -57.1320   36.2540   10.5500 N.3    48  ILE48      -0.1231
    102  CA       -56.6140   35.7520    9.3000 C.3    48  ILE48       0.1692
    103  C        -57.5320   36.2080    8.1610 C.2    48  ILE48       0.2592
    104  O        -58.7750   36.0600    8.2280 O.2    48  ILE48      -0.2718
    105  CB       -56.6130   34.2280    9.3140 C.3    48  ILE48       0.0266
    106  CG1      -55.3940   33.7010   10.0480 C.3    48  ILE48       0.0019
    107  CG2      -56.7060   33.6550    7.9080 C.3    48  ILE48       0.0020
    108  CD1      -54.2370   34.6650   10.0350 C.3    48  ILE48       0.0001
    109  N        -56.9230   36.7790    7.1190 N.am   49  HIS49      -0.1962
    110  CA       -57.7090   37.2620    6.0110 C.3    49  HIS49       0.1787
    111  C        -57.7920   36.1870    4.9420 C.2    49  HIS49       0.2621
    112  O        -56.7630   35.7590    4.4250 O.2    49  HIS49      -0.2715
    113  CB       -57.1500   38.5760    5.4990 C.3    49  HIS49       0.0785
    114  CG       -57.2600   39.6890    6.4920 C.ar   49  HIS49       0.0821
    115  ND1      -56.2980   39.9280    7.4560 N.ar   49  HIS49      -0.2267
    116  CD2      -58.2380   40.6060    6.7040 C.ar   49  HIS49       0.1154
    117  CE1      -56.6690   40.9530    8.2080 C.ar   49  HIS49       0.1986
    118  NE2      -57.8400   41.3850    7.7710 N.ar   49  HIS49      -0.2212
    119  N        -59.0070   35.7090    4.6560 N.am   50  SER50      -0.1936
    120  CA       -59.1940   34.8010    3.5240 C.3    50  SER50       0.2055
    121  C        -60.2470   35.3160    2.5490 C.2    50  SER50       0.2643
    122  O        -60.3460   36.5340    2.3380 O.2    50  SER50      -0.2714
    123  CB       -59.4720   33.3680    3.9630 C.3    50  SER50       0.2130
    124  OG       -59.1990   32.4450    2.9110 O.3    50  SER50      -0.2179
    125  N        -61.0070   34.3870    1.9600 N.am   51  TYR51      -0.1973
    126  CA       -61.9380   34.6950    0.8910 C.3    51  TYR51       0.1639
    127  C        -62.9900   33.6060    0.8540 C.2    51  TYR51       0.2290
    128  O        -62.6400   32.4430    0.9430 O.2    51  TYR51      -0.2864
    129  CB       -61.1700   34.7470   -0.4680 C.3    51  TYR51       0.0560
    130  CG       -60.1450   35.8550   -0.5210 C.ar   51  TYR51      -0.0198
    131  CD1      -58.8690   35.6590   -0.0450 C.ar   51  TYR51      -0.0009
    132  CD2      -60.4860   37.1280   -0.9700 C.ar   51  TYR51      -0.0009
    133  CE1      -57.9570   36.6610   -0.0340 C.ar   51  TYR51       0.0417
    134  CE2      -59.5650   38.1470   -0.9630 C.ar   51  TYR51       0.0417
    135  CZ       -58.3060   37.8950   -0.4950 C.ar   51  TYR51       0.1957
    136  OH       -57.3760   38.8890   -0.4850 O.3    51  TYR51      -0.2866
    137  N        -62.7900   29.4320   -0.3520 N.3    54  HIS54      -0.1241
    138  CA       -61.4150   28.8040   -0.3070 C.3    54  HIS54       0.1621
    139  C        -61.3530   27.5700    0.5710 C.2    54  HIS54       0.2264
    140  O        -62.3010   27.2650    1.3180 O.2    54  HIS54      -0.2867
    141  CB       -60.3280   29.7370    0.1750 C.3    54  HIS54       0.0745
    142  CG       -59.9640   30.7960   -0.7950 C.ar   54  HIS54       0.0817
    143  ND1      -58.7630   31.4560   -0.7360 N.ar   54  HIS54      -0.2268
    144  CD2      -60.6460   31.3370   -1.8340 C.ar   54  HIS54       0.1154
    145  CE1      -58.7180   32.3660   -1.6910 C.ar   54  HIS54       0.1986
    146  NE2      -59.8450   32.3110   -2.3770 N.ar   54  HIS54      -0.2212
    147  N        -59.1890   24.8440    3.2180 N.3    56  TRP56      -0.1241
    148  CA       -58.1850   24.7200    4.2840 C.3    56  TRP56       0.1605
    149  C        -58.2910   23.3760    4.9450 C.2    56  TRP56       0.2264
    150  O        -59.3560   22.7530    4.9900 O.2    56  TRP56      -0.2867
    151  CB       -58.4370   25.7540    5.3610 C.3    56  TRP56       0.0550
    152  CG       -58.2180   27.0800    4.9210 C.ar   56  TRP56       0.0003
    153  CD1      -59.1070   27.8770    4.2660 C.ar   56  TRP56       0.0946
    154  CD2      -57.0090   27.8390    5.0670 C.ar   56  TRP56       0.0152
    155  NE1      -58.5180   29.1100    3.9980 N.ar   56  TRP56      -0.2442
    156  CE2      -57.2250   29.0920    4.4620 C.ar   56  TRP56       0.0810
    157  CE3      -55.7450   27.5670    5.6210 C.ar   56  TRP56       0.0012
    158  CZ2      -56.2470   30.0770    4.4360 C.ar   56  TRP56       0.0191
    159  CZ3      -54.7660   28.5220    5.5470 C.ar   56  TRP56       0.0001
    160  CH2      -55.0210   29.7690    4.9720 C.ar   56  TRP56       0.0015
@<TRIPOS>BOND
     1    18    17    1
     2    19    17    1
     3    17    16    2
     4    55    54    2
     5     8     6   am
     6    54    53    1
     7     5     6    1
     8     5     2    1
     9     6     7    2
    10    56    53    1
    11    56    57    1
    12    16    15    1
    13     4     3    2
    14    53    52    1
    15    57    59   ar
    16    57    58   ar
    17    14    15    1
    18    14    13    1
    19     1     2    1
    20     2     3    1
    21    59    61   ar
    22    58    60   ar
    23    61    62   ar
    24    13    10    1
    25    60    62   ar
    26     9    10    1
    27    10    11    1
    28    11    12    2
    29    51    49   ar
    30    51    50   ar
    31    49    47   ar
    32   146   144   ar
    33   146   145   ar
    34    50    48   ar
    35   144   142   ar
    36   145   143   ar
    37    47    46   ar
    38    47    45   ar
    39   132   134   ar
    40   132   130   ar
    41   134   135   ar
    42   142   143   ar
    43   142   141    1
    44    48    45   ar
    45    46    44   ar
    46   130   129    1
    47   130   131   ar
    48   135   136    1
    49   135   133   ar
    50   129   126    1
    51    45    43   ar
    52   137   138    1
    53   138   141    1
    54   138   139    1
    55   131   133   ar
    56    41    40    2
    57    44    43   ar
    58   139   140    2
    59    43    42    1
    60   127   126    1
    61   127   128    2
    62    40    39    1
    63   126   125    1
    64    74    73    1
    65    42    39    1
    66   125   121   am
    67    39    38    1
    68   122   121    2
    69   121   120    1
    70    73    71   ar
    71    73    72   ar
    72    71    69   ar
    73   124   123    1
    74   147   148    1
    75   120   123    1
    76   120   119    1
    77    72    70   ar
    78   155   153   ar
    79   155   156   ar
    80    69    68   ar
    81   153   152   ar
    82   148   149    1
    83   148   151    1
    84   112   111    2
    85   158   156   ar
    86   158   160   ar
    87   156   154   ar
    88   119   111   am
    89   152   154   ar
    90   152   151    1
    91   111   110    1
    92   149   150    2
    93   160   159   ar
    94   154   157   ar
    95    70    68   ar
    96    68    67    1
    97   113   110    1
    98   113   114    1
    99   159   157   ar
   100    63    64    1
   101   110   109    1
   102    64    67    1
   103    64    65    1
   104   114   116   ar
   105   114   115   ar
   106   116   118   ar
   107    34    33    2
   108    33    32    1
   109   109   103   am
   110   115   117   ar
   111    65    66    2
   112    65    75   am
   113   118   117   ar
   114    81    75    1
   115    81    80    1
   116   107   105    1
   117    75    76    1
   118   103   104    2
   119   103   102    1
   120    32    35    1
   121    32    31    1
   122    80    79    1
   123    35    36    1
   124    30    29   ar
   125    30    28   ar
   126    36    37    1
   127   102   105    1
   128   102   101    1
   129   105   106    1
   130    31    37    1
   131    76    79    1
   132    76    77    1
   133    29    27   ar
   134    28    26   ar
   135   108   106    1
   136    77    78    2
   137    27    25   ar
   138    26    25   ar
   139    25    24    1
   140    24    21    1
   141    93    92    2
   142    88    87    1
   143    20    21    1
   144    96    95    1
   145    96    97    1
   146    21    22    1
   147    95    94    1
   148    99    98    1
   149    92    91    1
   150    82    83    1
   151    87    89    1
   152    87    86    1
   153    94    91    1
   154    97    98    2
   155    98   100    1
   156    91    90    1
   157    22    23    2
   158    86    83    1
   159    83    84    1
   160    84    85    2
