@<TRIPOS>MOLECULE
tmp/3zrjB00.pdb
 137 133 0 0 0
SMALL
GASTEIGER

@<TRIPOS>ATOM
      1  N        -13.9010   16.1950   31.8320 N.3    13  LEU13      -0.1231
      2  CA       -15.2260   16.6330   31.4700 C.3    13  LEU13       0.1678
      3  C        -15.5660   18.1520   31.6510 C.2    13  LEU13       0.2434
      4  O        -16.1140   18.7490   30.7270 O.2    13  LEU13      -0.2733
      5  CB       -16.2690   15.7830   32.1290 C.3    13  LEU13       0.0284
      6  CG       -17.7060   16.2390   31.7820 C.3    13  LEU13       0.0019
      7  CD1      -18.0290   16.1670   30.2840 C.3    13  LEU13       0.0001
      8  CD2      -18.7520   15.4610   32.5490 C.3    13  LEU13       0.0001
      9  N        -15.2680   18.7630   32.8260 N.am   14  PRO14      -0.2729
     10  CA       -15.5790   20.2130   32.8190 C.3    14  PRO14       0.1401
     11  C        -14.7820   21.0020   31.8030 C.2    14  PRO14       0.2269
     12  O        -15.2370   22.1000   31.3920 O.2    14  PRO14      -0.2865
     13  CB       -15.2610   20.6710   34.2550 C.3    14  PRO14       0.0296
     14  CG       -15.4360   19.4110   35.1110 C.3    14  PRO14       0.0237
     15  CD       -14.8980   18.2950   34.1850 C.3    14  PRO14       0.0939
     16  N        -16.8230   20.6260   28.5560 N.3    17  ILE17      -0.1245
     17  CA       -18.0630   21.4170   28.5600 C.3    17  ILE17       0.1561
     18  C        -17.7640   22.9080   28.3590 C.2    17  ILE17       0.2260
     19  O        -18.5180   23.6860   27.6930 O.2    17  ILE17      -0.2867
     20  CB       -18.8050   21.2260   29.9550 C.3    17  ILE17       0.0252
     21  CG1      -19.3450   19.8030   30.1060 C.3    17  ILE17       0.0019
     22  CG2      -19.9120   22.2870   30.1590 C.3    17  ILE17       0.0019
     23  CD1      -20.0330   19.2750   28.9580 C.3    17  ILE17       0.0001
     24  N        -24.4430   24.8590   24.5510 N.3    25  LYS25      -0.1245
     25  CA       -24.3670   24.5390   25.9540 C.3    25  LYS25       0.1561
     26  C        -25.6980   24.6690   26.6200 C.2    25  LYS25       0.2260
     27  O        -26.0290   23.8880   27.5370 O.2    25  LYS25      -0.2867
     28  CB       -23.3810   25.4520   26.6130 C.3    25  LYS25       0.0271
     29  CG       -23.0020   24.9410   27.9870 C.3    25  LYS25       0.0035
     30  CD       -22.3230   26.0560   28.7850 C.3    25  LYS25       0.0206
     31  CE       -22.2130   25.5840   30.2090 C.3    25  LYS25       0.1093
     32  NZ       -21.1220   26.2660   30.9460 N.3    25  LYS25      -0.1314
     33  N        -27.4920   21.6370   25.9840 N.3    28  LEU28      -0.1231
     34  CA       -27.0170   20.4890   26.7580 C.3    28  LEU28       0.1693
     35  C        -27.6590   20.5690   28.1610 C.2    28  LEU28       0.2591
     36  O        -28.0240   19.5580   28.7620 O.2    28  LEU28      -0.2718
     37  CB       -25.4960   20.4410   26.8520 C.3    28  LEU28       0.0284
     38  CG       -24.9090   19.1960   27.5330 C.3    28  LEU28       0.0019
     39  CD1      -25.3220   17.9610   26.7740 C.3    28  LEU28       0.0001
     40  CD2      -23.3940   19.2490   27.6610 C.3    28  LEU28       0.0001
     41  N        -27.8040   21.7860   28.6470 N.am   29  GLU29      -0.1979
     42  CA       -28.5000   22.0120   29.9020 C.3    29  GLU29       0.1602
     43  C        -29.9830   21.6120   29.8520 C.2    29  GLU29       0.2287
     44  O        -30.4900   20.9780   30.7600 O.2    29  GLU29      -0.2864
     45  CB       -28.3890   23.4660   30.2990 C.3    29  GLU29       0.0415
     46  CG       -28.0090   23.6090   31.7640 C.3    29  GLU29       0.1163
     47  CD       -28.4300   24.9290   32.3430 C.2    29  GLU29       0.3649
     48  OE1      -29.0780   25.7520   31.6200 O.co2  29  GLU29      -0.2457
     49  OE2      -28.0880   25.1440   33.5320 O.co2  29  GLU29      -0.2457
     50  N        -30.0910   17.8990   29.9630 N.3    32  ALA32      -0.1231
     51  CA       -30.0390   17.4140   31.3390 C.3    32  ALA32       0.1694
     52  C        -31.3960   17.6020   32.0900 C.2    32  ALA32       0.2592
     53  O        -31.9480   16.6510   32.7370 O.2    32  ALA32      -0.2718
     54  CB       -28.8010   18.0860   32.1130 C.3    32  ALA32       0.0304
     55  N        -32.0240   18.7600   31.9020 N.am   33  SER33      -0.1952
     56  CA       -33.3280   18.9700   32.5430 C.3    33  SER33       0.1924
     57  C        -34.3840   18.0510   31.9940 C.2    33  SER33       0.2314
     58  O        -35.2660   17.6340   32.7240 O.2    33  SER33      -0.2863
     59  CB       -33.8320   20.3890   32.2540 C.3    33  SER33       0.2116
     60  OG       -32.8700   21.3270   32.6950 O.3    33  SER33      -0.2180
     61  N        -34.0030   14.7440   33.6880 N.3    36  ILE36      -0.1245
     62  CA       -34.6250   14.8410   35.0450 C.3    36  ILE36       0.1561
     63  C        -36.1550   14.8030   34.9740 C.2    36  ILE36       0.2260
     64  O        -36.7600   13.9220   35.6010 O.2    36  ILE36      -0.2867
     65  CB       -34.0900   16.0350   35.8620 C.3    36  ILE36       0.0252
     66  CG1      -32.5980   15.8010   36.0820 C.3    36  ILE36       0.0019
     67  CG2      -34.8670   16.1550   37.2540 C.3    36  ILE36       0.0019
     68  CD1      -31.9100   17.0610   36.5120 C.3    36  ILE36       0.0001
     69  N        -27.9170   11.1910   31.3800 N.3    43  VAL43      -0.1245
     70  CA       -28.0710   12.0920   30.2680 C.3    43  VAL43       0.1561
     71  C        -27.3990   11.5260   28.9990 C.2    43  VAL43       0.2260
     72  O        -26.2100   11.1930   29.0300 O.2    43  VAL43      -0.2867
     73  CB       -27.5210   13.5320   30.6150 C.3    43  VAL43       0.0252
     74  CG1      -27.9110   14.4730   29.4510 C.3    43  VAL43       0.0019
     75  CG2      -28.2730   13.9920   31.8990 C.3    43  VAL43       0.0019
     76  N        -30.2370   11.8490   43.4270 N.3    90  THR90      -0.1203
     77  CA       -29.0730   12.6700   43.1280 C.3    90  THR90       0.1994
     78  C        -29.3110   13.1750   41.6920 C.2    90  THR90       0.2618
     79  O        -30.3160   12.7920   41.0240 O.2    90  THR90      -0.2717
     80  CB       -27.7220   11.8380   43.1590 C.3    90  THR90       0.1784
     81  OG1      -27.6730   10.9660   42.0150 O.3    90  THR90      -0.2211
     82  CG2      -27.6200   10.9440   44.3490 C.3    90  THR90       0.0376
     83  N        -28.4510   14.0660   41.2170 N.am   91  TYR91      -0.1962
     84  CA       -28.5450   14.4920   39.8090 C.3    91  TYR91       0.1756
     85  C        -28.1660   13.2970   38.9490 C.2    91  TYR91       0.2461
     86  O        -27.4100   12.4640   39.4060 O.2    91  TYR91      -0.2730
     87  CB       -27.6090   15.6480   39.5110 C.3    91  TYR91       0.0574
     88  CG       -27.9910   16.9010   40.2420 C.ar   91  TYR91      -0.0198
     89  CD1      -29.0220   17.7340   39.7940 C.ar   91  TYR91      -0.0009
     90  CD2      -27.3290   17.2410   41.4090 C.ar   91  TYR91      -0.0009
     91  CE1      -29.3350   18.9330   40.4790 C.ar   91  TYR91       0.0417
     92  CE2      -27.6580   18.3690   42.1120 C.ar   91  TYR91       0.0417
     93  CZ       -28.6340   19.2230   41.6440 C.ar   91  TYR91       0.1957
     94  OH       -28.8480   20.3170   42.4180 O.3    91  TYR91      -0.2866
     95  N        -28.7290   13.1900   37.7260 N.am   92  PRO92      -0.2716
     96  CA       -28.2080   12.1800   36.8110 C.3    92  PRO92       0.1536
     97  C        -26.7780   12.5160   36.3990 C.2    92  PRO92       0.2598
     98  O        -26.4420   13.7030   36.2780 O.2    92  PRO92      -0.2715
     99  CB       -29.1190   12.3220   35.5600 C.3    92  PRO92       0.0310
    100  CG       -29.5700   13.7840   35.5630 C.3    92  PRO92       0.0237
    101  CD       -29.7030   14.1090   37.0950 C.3    92  PRO92       0.0939
    102  N        -25.9870   11.5110   36.0500 N.am   93  ALA93      -0.1964
    103  CA       -24.7010   11.7600   35.3710 C.3    93  ALA93       0.1728
    104  C        -24.8380   11.7710   33.8270 C.2    93  ALA93       0.2616
    105  O        -25.8140   11.2200   33.2830 O.2    93  ALA93      -0.2715
    106  CB       -23.7120   10.6750   35.7730 C.3    93  ALA93       0.0334
    107  N        -23.8630   12.3640   33.1030 N.am   94  PHE94      -0.1960
    108  CA       -23.8210   12.0890   31.6700 C.3    94  PHE94       0.1771
    109  C        -23.4790   10.5940   31.4100 C.2    94  PHE94       0.2620
    110  O        -22.6790   10.0010   32.1290 O.2    94  PHE94      -0.2715
    111  CB       -22.7850   12.9230   30.9450 C.3    94  PHE94       0.0574
    112  CG       -22.9730   14.3980   31.0580 C.ar   94  PHE94      -0.0200
    113  CD1      -24.0270   15.0520   30.4690 C.ar   94  PHE94      -0.0042
    114  CD2      -22.0220   15.1620   31.7260 C.ar   94  PHE94      -0.0042
    115  CE1      -24.1710   16.4620   30.5270 C.ar   94  PHE94      -0.0003
    116  CE2      -22.1570   16.5710   31.7820 C.ar   94  PHE94      -0.0003
    117  CZ       -23.2500   17.1960   31.1550 C.ar   94  PHE94      -0.0000
    118  N        -24.0820   10.0030   30.3780 N.am   95  SER95      -0.1936
    119  CA       -23.6730    8.6500   30.0040 C.3    95  SER95       0.2040
    120  C        -22.1910    8.6240   29.5900 C.2    95  SER95       0.2485
    121  O        -21.6700    9.6180   29.0740 O.2    95  SER95      -0.2729
    122  CB       -24.5650    8.0930   28.8910 C.3    95  SER95       0.2129
    123  OG       -24.1430    8.6090   27.6590 O.3    95  SER95      -0.2179
    124  N        -21.4920    7.5190   29.8930 N.am   96  PRO96      -0.2726
    125  CA       -20.0950    7.4140   29.5310 C.3    96  PRO96       0.1402
    126  C        -19.9050    7.6030   28.0060 C.2    96  PRO96       0.2269
    127  O        -18.9010    8.2060   27.5770 O.2    96  PRO96      -0.2865
    128  CB       -19.7200    5.9640   29.9590 C.3    96  PRO96       0.0296
    129  CG       -20.6820    5.5620   30.9760 C.3    96  PRO96       0.0237
    130  CD       -21.9440    6.4140   30.7610 C.3    96  PRO96       0.0939
    131  N        -19.8410   11.4420   27.2260 N.3    99  VAL99      -0.1245
    132  CA       -18.6150   12.1210   27.5720 C.3    99  VAL99       0.1561
    133  C        -17.5340   11.7460   26.5620 C.2    99  VAL99       0.2260
    134  O        -16.7740   12.6010   26.1610 O.2    99  VAL99      -0.2867
    135  CB       -18.1530   11.7010   28.9950 C.3    99  VAL99       0.0252
    136  CG1      -16.7100   12.2690   29.3310 C.3    99  VAL99       0.0019
    137  CG2      -19.2450   12.1560   30.0400 C.3    99  VAL99       0.0019
@<TRIPOS>BOND
     1    24    25    1
     2    25    28    1
     3    25    26    1
     4    33    34    1
     5   134   133    2
     6   133   132    1
     7    28    29    1
     8    26    27    2
     9    34    37    1
    10    34    35    1
    11    39    38    1
    12    37    38    1
    13   131   132    1
    14    38    40    1
    15   132   135    1
    16   127   126    2
    17   123   122    1
    18    19    18    2
    19    29    30    1
    20   126   125    1
    21    35    41   am
    22    35    36    2
    23    18    17    1
    24    16    17    1
    25    17    20    1
    26    41    42    1
    27    30    31    1
    28   122   119    1
    29    23    21    1
    30   135   136    1
    31   135   137    1
    32    71    72    2
    33    71    70    1
    34   121   120    2
    35    74    73    1
    36   125   124    1
    37   125   128    1
    38   120   124   am
    39   120   119    1
    40    43    42    1
    41    43    44    2
    42   124   130    1
    43    42    45    1
    44    20    21    1
    45    20    22    1
    46   128   129    1
    47    50    51    1
    48   119   118    1
    49    31    32    1
    50    70    73    1
    51    70    69    1
    52     7     6    1
    53    45    46    1
    54   118   109   am
    55   113   115   ar
    56   113   112   ar
    57   115   117   ar
    58    73    75    1
    59     4     3    2
    60   130   129    1
    61   111   112    1
    62   111   108    1
    63   112   114   ar
    64   117   116   ar
    65    51    52    1
    66    51    54    1
    67    12    11    2
    68   109   108    1
    69   109   110    2
    70     2     3    1
    71     2     1    1
    72     2     5    1
    73    48    47   ar
    74     3     9   am
    75   108   107    1
    76   114   116   ar
    77    46    47    1
    78     6     5    1
    79     6     8    1
    80    11    10    1
    81    55    52   am
    82    55    56    1
    83    57    56    1
    84    57    58    2
    85    52    53    2
    86    59    56    1
    87    59    60    1
    88    47    49   ar
    89    10     9    1
    90    10    13    1
    91     9    15    1
    92   107   104   am
    93   105   104    2
    94    61    62    1
    95   104   103    1
    96    15    14    1
    97    13    14    1
    98    63    62    1
    99    63    64    2
   100    62    65    1
   101   103   106    1
   102   103   102    1
   103    99   100    1
   104    99    96    1
   105   100   101    1
   106    65    66    1
   107    65    67    1
   108   102    97   am
   109    66    68    1
   110    98    97    2
   111    97    96    1
   112    96    95    1
   113   101    95    1
   114    95    85   am
   115    85    86    2
   116    85    84    1
   117    87    84    1
   118    87    88    1
   119    89    88   ar
   120    89    91   ar
   121    84    83    1
   122    88    90   ar
   123    91    93   ar
   124    79    78    2
   125    83    78   am
   126    90    92   ar
   127    93    92   ar
   128    93    94    1
   129    78    77    1
   130    81    80    1
   131    77    80    1
   132    77    76    1
   133    80    82    1
