@<TRIPOS>MOLECULE
tmp/3zrkB00.pdb
 125 116 0 0 0
SMALL
GASTEIGER

@<TRIPOS>ATOM
      1  N        109.7120   61.7160   53.6000 N.3    27  ILE27      -0.1231
      2  CA       110.2120   60.6710   52.6960 C.3    27  ILE27       0.1692
      3  C        110.7100   61.2110   51.3480 C.2    27  ILE27       0.2592
      4  O        111.2020   60.4450   50.5140 O.2    27  ILE27      -0.2718
      5  CB       109.1710   59.5280   52.4670 C.3    27  ILE27       0.0266
      6  CG1      107.8370   60.0870   51.9480 C.3    27  ILE27       0.0019
      7  CG2      108.9920   58.6990   53.7460 C.3    27  ILE27       0.0020
      8  CD1      106.8670   59.0300   51.4310 C.3    27  ILE27       0.0001
      9  N        110.5900   62.5220   51.1410 N.am   28  GLY28      -0.1957
     10  CA       111.0200   63.1450   49.8930 C.3    28  GLY28       0.1869
     11  C        111.0260   64.6600   49.9290 C.2    28  GLY28       0.2309
     12  O        110.1140   65.2810   50.4790 O.2    28  GLY28      -0.2863
     13  N        109.8770   71.0090   44.1390 N.3    32  PHE32      -0.1241
     14  CA       108.4220   70.8470   44.1170 C.3    32  PHE32       0.1605
     15  C        107.7830   71.1060   45.4850 C.2    32  PHE32       0.2264
     16  O        106.6720   71.6340   45.5670 O.2    32  PHE32      -0.2867
     17  CB       108.0490   69.4390   43.6240 C.3    32  PHE32       0.0534
     18  CG       108.2720   68.3560   44.6460 C.ar   32  PHE32      -0.0203
     19  CD1      109.5230   67.7610   44.7890 C.ar   32  PHE32      -0.0042
     20  CD2      107.2330   67.9350   45.4700 C.ar   32  PHE32      -0.0042
     21  CE1      109.7350   66.7620   45.7380 C.ar   32  PHE32      -0.0003
     22  CE2      107.4360   66.9410   46.4220 C.ar   32  PHE32      -0.0003
     23  CZ       108.6900   66.3520   46.5550 C.ar   32  PHE32      -0.0000
     24  N        107.2920   65.5830   50.4850 N.3    35  VAL35      -0.1245
     25  CA       106.4050   64.4240   50.5830 C.3    35  VAL35       0.1561
     26  C        106.5940   63.7610   51.9470 C.2    35  VAL35       0.2260
     27  O        107.7210   63.5000   52.3740 O.2    35  VAL35      -0.2867
     28  CB       106.6270   63.3930   49.4370 C.3    35  VAL35       0.0252
     29  CG1      105.6540   62.2260   49.5630 C.3    35  VAL35       0.0019
     30  CG2      106.4480   64.0470   48.0830 C.3    35  VAL35       0.0019
     31  N        100.7670   58.9850   51.4690 N.3    48  ALA48      -0.1245
     32  CA       101.7970   59.9640   51.1780 C.3    48  ALA48       0.1562
     33  C        101.1440   61.3360   51.0720 C.2    48  ALA48       0.2260
     34  O        100.1180   61.5040   50.4040 O.2    48  ALA48      -0.2867
     35  CB       102.5360   59.6130   49.8920 C.3    48  ALA48       0.0290
     36  N        101.8340   64.9270   49.7460 N.3    50  LYS50      -0.1245
     37  CA       102.6370   65.8380   48.9390 C.3    50  LYS50       0.1561
     38  C        102.2310   67.2800   49.2440 C.2    50  LYS50       0.2260
     39  O        101.1180   67.7070   48.9190 O.2    50  LYS50      -0.2867
     40  CB       102.4780   65.5270   47.4470 C.3    50  LYS50       0.0271
     41  CG       103.4750   66.2430   46.5330 C.3    50  LYS50       0.0035
     42  CD       103.0690   66.0800   45.0630 C.3    50  LYS50       0.0206
     43  CE       104.0410   66.7870   44.1280 C.3    50  LYS50       0.1093
     44  NZ       103.8230   66.4210   42.6910 N.3    50  LYS50      -0.1314
     45  N         97.7350   70.2310   38.8030 N.3    62  GLU62      -0.1245
     46  CA        97.9640   68.8740   39.3060 C.3    62  GLU62       0.1567
     47  C         96.7250   68.3580   40.0210 C.2    62  GLU62       0.2260
     48  O         96.2900   67.2290   39.7810 O.2    62  GLU62      -0.2867
     49  CB        99.2000   68.8140   40.2230 C.3    62  GLU62       0.0388
     50  CG        99.4960   67.4250   40.7830 C.3    62  GLU62       0.1160
     51  CD       100.8380   67.3240   41.4960 C.2    62  GLU62       0.3649
     52  OE1      101.4730   68.3630   41.7850 O.co2  62  GLU62      -0.2457
     53  OE2      101.2620   66.1840   41.7700 O.co2  62  GLU62      -0.2457
     54  N         98.2760   56.4570   40.9560 N.3    75  VAL75      -0.1245
     55  CA        98.2420   56.7230   42.3840 C.3    75  VAL75       0.1561
     56  C         96.9560   57.4960   42.7100 C.2    75  VAL75       0.2260
     57  O         96.6350   58.4940   42.0550 O.2    75  VAL75      -0.2867
     58  CB        99.5350   57.4440   42.8810 C.3    75  VAL75       0.0252
     59  CG1       99.6220   58.8650   42.3580 C.3    75  VAL75       0.0019
     60  CG2       99.6090   57.4340   44.3980 C.3    75  VAL75       0.0019
     61  N         97.8510   60.9490   49.0160 N.3    97  LEU97      -0.1231
     62  CA        97.8720   59.8460   48.0620 C.3    97  LEU97       0.1693
     63  C         98.0310   58.5090   48.7820 C.2    97  LEU97       0.2592
     64  O         98.5770   58.4650   49.8840 O.2    97  LEU97      -0.2718
     65  CB        99.0190   60.0460   47.0660 C.3    97  LEU97       0.0284
     66  CG        99.1990   61.4540   46.4720 C.3    97  LEU97       0.0019
     67  CD1      100.6390   61.7000   46.0560 C.3    97  LEU97       0.0001
     68  CD2       98.2370   61.7180   45.3150 C.3    97  LEU97       0.0001
     69  N         97.5460   57.4300   48.1660 N.am   98  ASP98      -0.1960
     70  CA        97.8340   56.0740   48.6470 C.3    98  ASP98       0.1840
     71  C         99.3430   55.8440   48.6470 C.2    98  ASP98       0.2622
     72  O        100.0090   56.1220   47.6470 O.2    98  ASP98      -0.2715
     73  CB        97.1600   55.0170   47.7700 C.3    98  ASP98       0.1450
     74  CG        95.7040   54.8170   48.1150 C.2    98  ASP98       0.3671
     75  OD1       94.8600   55.5640   47.5930 O.co2  98  ASP98      -0.2456
     76  OD2       95.3970   53.9210   48.9190 O.co2  98  ASP98      -0.2456
     77  N         99.8820   55.3720   49.7700 N.am   99  TYR99      -0.1960
     78  CA       101.3170   55.1440   49.8690 C.3    99  TYR99       0.1771
     79  C        101.7110   53.8940   49.0960 C.2    99  TYR99       0.2619
     80  O        101.0400   52.8590   49.1680 O.2    99  TYR99      -0.2715
     81  CB       101.7990   55.0690   51.3240 C.3    99  TYR99       0.0574
     82  CG       103.2820   54.7770   51.4610 C.ar   99  TYR99      -0.0198
     83  CD1      104.2360   55.7770   51.2510 C.ar   99  TYR99      -0.0009
     84  CD2      103.7320   53.4940   51.7830 C.ar   99  TYR99      -0.0009
     85  CE1      105.6000   55.5050   51.3580 C.ar   99  TYR99       0.0417
     86  CE2      105.0940   53.2140   51.8960 C.ar   99  TYR99       0.0417
     87  CZ       106.0170   54.2180   51.6850 C.ar   99  TYR99       0.1957
     88  OH       107.3590   53.9360   51.7990 O.3    99  TYR99      -0.2866
     89  N        102.7910   54.0220   48.3300 N.am  100  VAL100     -0.1977
     90  CA       103.3620   52.9100   47.5860 C.3   100  VAL100      0.1596
     91  C        104.8440   52.8580   47.9570 C.2   100  VAL100      0.2287
     92  O        105.5370   53.8730   47.8590 O.2   100  VAL100     -0.2864
     93  CB       103.1570   53.0750   46.0630 C.3   100  VAL100      0.0276
     94  CG1      103.8170   51.9420   45.3010 C.3   100  VAL100      0.0022
     95  CG2      101.6730   53.1270   45.7220 C.3   100  VAL100      0.0022
     96  N        109.0040   58.2230   38.5420 N.3   151  ASN151     -0.1240
     97  CA       107.5750   58.5250   38.6490 C.3   151  ASN151      0.1653
     98  C        106.6790   57.3030   38.4970 C.2   151  ASN151      0.2266
     99  O        105.4530   57.4270   38.4280 O.2   151  ASN151     -0.2867
    100  CB       107.1690   59.6190   37.6510 C.3   151  ASN151      0.1155
    101  CG       107.7190   60.9810   38.0260 C.2   151  ASN151      0.2627
    102  OD1      108.0800   61.2260   39.1810 O.2   151  ASN151     -0.2716
    103  ND2      107.7960   61.8730   37.0490 N.am  151  ASN151     -0.0877
    104  N        105.5610   54.2230   40.4750 N.3   153  LEU153     -0.1245
    105  CA       105.5420   53.6140   41.7990 C.3   153  LEU153      0.1561
    106  C        105.2720   52.1210   41.7000 C.2   153  LEU153      0.2260
    107  O        104.5360   51.6680   40.8180 O.2   153  LEU153     -0.2867
    108  CB       104.5060   54.2880   42.7080 C.3   153  LEU153      0.0270
    109  CG       104.6070   55.7900   43.0000 C.3   153  LEU153      0.0019
    110  CD1      103.3700   56.2410   43.7470 C.3   153  LEU153      0.0001
    111  CD2      105.8550   56.1630   43.7740 C.3   153  LEU153      0.0001
    112  N        102.6550   58.2990   39.0550 N.3   164  CYS164     -0.1221
    113  CA       102.5300   59.4240   39.9720 C.3   164  CYS164      0.1808
    114  C        103.2330   60.6780   39.4460 C.2   164  CYS164      0.2601
    115  O        103.7860   60.6820   38.3380 O.2   164  CYS164     -0.2717
    116  CB       103.0730   59.0540   41.3570 C.3   164  CYS164      0.0970
    117  SG       104.8720   59.0170   41.4270 S.3   164  CYS164     -0.0800
    118  N        103.1990   61.7240   40.2730 N.am  165  ASP165     -0.1973
    119  CA       103.7390   63.0560   39.9800 C.3   165  ASP165      0.1709
    120  C        103.1390   63.7040   38.7380 C.2   165  ASP165      0.2293
    121  O        103.7760   63.7550   37.6770 O.2   165  ASP165     -0.2864
    122  CB       105.2720   63.0610   39.9160 C.3   165  ASP165      0.1436
    123  CG       105.8500   64.4720   39.9620 C.2   165  ASP165      0.3671
    124  OD1      105.0690   65.4470   39.9160 O.co2 165  ASP165     -0.2456
    125  OD2      107.0860   64.6100   40.0500 O.co2 165  ASP165     -0.2456
@<TRIPOS>BOND
     1   103   101   am
     2   100   101    1
     3   100    97    1
     4   121   120    2
     5   101   102    2
     6   115   114    2
     7    99    98    2
     8    98    97    1
     9    96    97    1
    10   120   119    1
    11    45    46    1
    12   112   113    1
    13    46    47    1
    14    46    49    1
    15   114   113    1
    16   114   118   am
    17    48    47    2
    18   122   123    1
    19   122   119    1
    20   124   123   ar
    21   123   125   ar
    22   113   116    1
    23   119   118    1
    24    49    50    1
    25   104   105    1
    26    50    51    1
    27   107   106    2
    28    54    55    1
    29   116   117    1
    30    51    53   ar
    31    51    52   ar
    32   106   105    1
    33   105   108    1
    34    57    56    2
    35    59    58    1
    36    55    56    1
    37    55    58    1
    38    44    43    1
    39   108   109    1
    40    58    60    1
    41   109   110    1
    42   109   111    1
    43    17    14    1
    44    17    18    1
    45    14    13    1
    46    14    15    1
    47    43    42    1
    48    18    19   ar
    49    18    20   ar
    50    19    21   ar
    51    42    41    1
    52    94    93    1
    53    68    66    1
    54    20    22   ar
    55    15    16    2
    56    95    93    1
    57    21    23   ar
    58    67    66    1
    59    93    90    1
    60    22    23   ar
    61    66    65    1
    62    41    40    1
    63    65    62    1
    64    40    37    1
    65    90    91    1
    66    90    89    1
    67    75    74   ar
    68    72    71    2
    69    73    74    1
    70    73    70    1
    71    92    91    2
    72    62    63    1
    73    62    61    1
    74    30    28    1
    75    74    76   ar
    76    69    70    1
    77    69    63   am
    78    89    79   am
    79    71    70    1
    80    71    77   am
    81    63    64    2
    82    39    38    2
    83    37    38    1
    84    37    36    1
    85    79    80    2
    86    79    78    1
    87    28    29    1
    88    28    25    1
    89    77    78    1
    90    78    81    1
    91    35    32    1
    92    10    11    1
    93    10     9    1
    94    11    12    2
    95    34    33    2
    96    24    25    1
    97     4     3    2
    98    25    26    1
    99    33    32    1
   100     9     3   am
   101    32    31    1
   102    83    85   ar
   103    83    82   ar
   104    81    82    1
   105     3     2    1
   106    85    87   ar
   107     8     6    1
   108    82    84   ar
   109    87    88    1
   110    87    86   ar
   111    84    86   ar
   112    26    27    2
   113     6     5    1
   114     5     2    1
   115     5     7    1
   116     2     1    1
