@<TRIPOS>MOLECULE
tmp/3zrlB00.pdb
 125 116 0 0 0
SMALL
GASTEIGER

@<TRIPOS>ATOM
      1  N        110.4300   62.6010   53.3930 N.3    27  ILE27      -0.1231
      2  CA       110.9650   61.6330   52.4250 C.3    27  ILE27       0.1696
      3  C        111.5310   62.2490   51.1330 C.2    27  ILE27       0.2631
      4  O        112.1350   61.5420   50.3260 O.2    27  ILE27      -0.2714
      5  CB       109.9310   60.5240   52.0520 C.3    27  ILE27       0.0266
      6  CG1      108.6010   61.1390   51.5800 C.3    27  ILE27       0.0019
      7  CG2      109.7590   59.5260   53.2190 C.3    27  ILE27       0.0020
      8  CD1      107.5360   60.1170   51.1640 C.3    27  ILE27       0.0001
      9  N        111.3390   63.5520   50.9340 N.am   28  GLY28      -0.1732
     10  CA       111.7700   64.1880   49.6950 C.2    28  GLY28       0.1340
     11  C        111.7760   65.7010   49.7090 C.2    28  GLY28       0.2521
     12  O        110.8690   66.3290   50.2430 O.2    28  GLY28      -0.2816
     13  N        110.6420   71.9380   43.9560 N.3    32  PHE32      -0.1241
     14  CA       109.1940   71.7320   43.9380 C.3    32  PHE32       0.1605
     15  C        108.5380   71.9790   45.2930 C.2    32  PHE32       0.2264
     16  O        107.3750   72.3780   45.3560 O.2    32  PHE32      -0.2867
     17  CB       108.8330   70.3210   43.4320 C.3    32  PHE32       0.0534
     18  CG       109.0340   69.2300   44.4510 C.ar   32  PHE32      -0.0203
     19  CD1      110.2560   68.5620   44.5480 C.ar   32  PHE32      -0.0042
     20  CD2      108.0000   68.8640   45.3130 C.ar   32  PHE32      -0.0042
     21  CE1      110.4460   67.5520   45.4880 C.ar   32  PHE32      -0.0003
     22  CE2      108.1840   67.8540   46.2640 C.ar   32  PHE32      -0.0003
     23  CZ       109.4030   67.1960   46.3460 C.ar   32  PHE32      -0.0000
     24  N        108.0360   66.5290   50.2220 N.3    35  VAL35      -0.1245
     25  CA       107.1100   65.4030   50.3410 C.3    35  VAL35       0.1561
     26  C        107.3500   64.7500   51.6980 C.2    35  VAL35       0.2260
     27  O        108.4940   64.5140   52.0820 O.2    35  VAL35      -0.2867
     28  CB       107.2650   64.3500   49.1940 C.3    35  VAL35       0.0252
     29  CG1      106.2060   63.2520   49.3090 C.3    35  VAL35       0.0019
     30  CG2      107.1750   64.9990   47.8240 C.3    35  VAL35       0.0019
     31  N        101.5640   59.8630   51.3560 N.3    48  ALA48      -0.1245
     32  CA       102.5990   60.8180   51.0540 C.3    48  ALA48       0.1562
     33  C        101.9160   62.1620   50.9210 C.2    48  ALA48       0.2260
     34  O        100.8580   62.2840   50.2930 O.2    48  ALA48      -0.2867
     35  CB       103.3200   60.4430   49.7620 C.3    48  ALA48       0.0290
     36  N        102.4350   65.8510   49.6220 N.3    50  LYS50      -0.1245
     37  CA       103.2530   66.7270   48.7930 C.3    50  LYS50       0.1561
     38  C        102.8470   68.1730   49.0810 C.2    50  LYS50       0.2260
     39  O        101.7150   68.5680   48.8050 O.2    50  LYS50      -0.2867
     40  CB       103.0760   66.3820   47.3080 C.3    50  LYS50       0.0271
     41  CG       104.1470   66.9960   46.3820 C.3    50  LYS50       0.0035
     42  CD       103.7610   66.8540   44.9140 C.3    50  LYS50       0.0206
     43  CE       104.8420   67.4330   44.0020 C.3    50  LYS50       0.1093
     44  NZ       104.5630   67.1650   42.5520 N.3    50  LYS50      -0.1314
     45  N         98.5280   70.8450   38.4390 N.3    62  GLU62      -0.1245
     46  CA        98.7440   69.5050   38.9720 C.3    62  GLU62       0.1567
     47  C         97.4890   69.0190   39.7010 C.2    62  GLU62       0.2260
     48  O         97.0180   67.9080   39.4580 O.2    62  GLU62      -0.2867
     49  CB        99.9970   69.4620   39.8770 C.3    62  GLU62       0.0388
     50  CG       100.2790   68.1010   40.5020 C.3    62  GLU62       0.1160
     51  CD       101.6270   68.0200   41.2270 C.2    62  GLU62       0.3649
     52  OE1      102.3250   69.0550   41.3580 O.co2  62  GLU62      -0.2457
     53  OE2      101.9860   66.9040   41.6780 O.co2  62  GLU62      -0.2457
     54  N         99.1930   57.0310   40.7420 N.3    75  VAL75      -0.1245
     55  CA        99.1520   57.3380   42.1620 C.3    75  VAL75       0.1561
     56  C         97.8500   58.0840   42.4490 C.2    75  VAL75       0.2260
     57  O         97.5120   59.0320   41.7500 O.2    75  VAL75      -0.2867
     58  CB       100.4010   58.1400   42.6140 C.3    75  VAL75       0.0252
     59  CG1      100.3640   59.5810   42.0790 C.3    75  VAL75       0.0019
     60  CG2      100.5160   58.1390   44.1160 C.3    75  VAL75       0.0019
     61  N         98.7050   61.7660   48.8050 N.3    97  LEU97      -0.1231
     62  CA        98.7470   60.6510   47.8540 C.3    97  LEU97       0.1693
     63  C         98.8820   59.3260   48.5770 C.2    97  LEU97       0.2592
     64  O         99.3370   59.2900   49.7250 O.2    97  LEU97      -0.2718
     65  CB        99.9140   60.8350   46.8810 C.3    97  LEU97       0.0284
     66  CG       100.0160   62.2250   46.2530 C.3    97  LEU97       0.0019
     67  CD1      101.4490   62.5450   45.8170 C.3    97  LEU97       0.0001
     68  CD2       99.0020   62.4050   45.1150 C.3    97  LEU97       0.0001
     69  N         98.4670   58.2470   47.9190 N.am   98  ASP98      -0.1960
     70  CA        98.7660   56.8820   48.3750 C.3    98  ASP98       0.1840
     71  C        100.2820   56.6990   48.4210 C.2    98  ASP98       0.2622
     72  O        100.9750   57.0650   47.4600 O.2    98  ASP98      -0.2715
     73  CB        98.1710   55.8390   47.4200 C.3    98  ASP98       0.1450
     74  CG        96.7310   55.4810   47.7530 C.2    98  ASP98       0.3671
     75  OD1       95.8140   56.2090   47.3470 O.co2  98  ASP98      -0.2456
     76  OD2       96.5030   54.4570   48.4180 O.co2  98  ASP98      -0.2456
     77  N        100.7970   56.1780   49.5390 N.am   99  TYR99      -0.1960
     78  CA       102.2350   55.9610   49.6700 C.3    99  TYR99       0.1771
     79  C        102.6320   54.6930   48.9300 C.2    99  TYR99       0.2619
     80  O        101.9180   53.6810   48.9910 O.2    99  TYR99      -0.2715
     81  CB       102.7010   55.9080   51.1300 C.3    99  TYR99       0.0574
     82  CG       104.1910   55.6270   51.2760 C.ar   99  TYR99      -0.0198
     83  CD1      105.1420   56.6220   51.0290 C.ar   99  TYR99      -0.0009
     84  CD2      104.6480   54.3590   51.6420 C.ar   99  TYR99      -0.0009
     85  CE1      106.5160   56.3570   51.1350 C.ar   99  TYR99       0.0417
     86  CE2      106.0210   54.0810   51.7620 C.ar   99  TYR99       0.0417
     87  CZ       106.9390   55.0810   51.5130 C.ar   99  TYR99       0.1957
     88  OH       108.2790   54.8010   51.6370 O.3    99  TYR99      -0.2866
     89  N        103.7510   54.7730   48.2040 N.am  100  VAL100     -0.1977
     90  CA       104.2980   53.6280   47.4870 C.3   100  VAL100      0.1596
     91  C        105.7970   53.5620   47.7530 C.2   100  VAL100      0.2287
     92  O        106.5240   54.5010   47.4250 O.2   100  VAL100     -0.2864
     93  CB       103.9880   53.6940   45.9800 C.3   100  VAL100      0.0276
     94  CG1      104.7460   52.6140   45.2200 C.3   100  VAL100      0.0022
     95  CG2      102.4890   53.5410   45.7460 C.3   100  VAL100      0.0022
     96  N        110.0920   58.6030   38.3930 N.3   151  ASN151     -0.1240
     97  CA       108.6840   58.9440   38.4860 C.3   151  ASN151      0.1653
     98  C        107.7460   57.7620   38.3890 C.2   151  ASN151      0.2266
     99  O        106.5140   57.9350   38.3380 O.2   151  ASN151     -0.2867
    100  CB       108.3070   60.0300   37.4640 C.3   151  ASN151      0.1155
    101  CG       108.6950   61.4110   37.9340 C.2   151  ASN151      0.2627
    102  OD1      108.9480   61.6140   39.1160 O.2   151  ASN151     -0.2716
    103  ND2      108.7710   62.3620   37.0120 N.am  151  ASN151     -0.0877
    104  N        106.5450   54.7010   40.4310 N.3   153  LEU153     -0.1245
    105  CA       106.5410   54.0990   41.7510 C.3   153  LEU153      0.1561
    106  C        106.2250   52.6100   41.6920 C.2   153  LEU153      0.2260
    107  O        105.4450   52.1550   40.8510 O.2   153  LEU153     -0.2867
    108  CB       105.5570   54.8240   42.6750 C.3   153  LEU153      0.0270
    109  CG       105.7510   56.3350   42.8810 C.3   153  LEU153      0.0019
    110  CD1      104.7380   56.8580   43.8450 C.3   153  LEU153      0.0001
    111  CD2      107.1400   56.7210   43.3490 C.3   153  LEU153      0.0001
    112  N        103.6240   58.8240   38.9820 N.3   164  CYS164     -0.1221
    113  CA       103.4840   59.9600   39.8870 C.3   164  CYS164      0.1808
    114  C        104.2100   61.2030   39.3660 C.2   164  CYS164      0.2601
    115  O        104.7720   61.1940   38.2630 O.2   164  CYS164     -0.2717
    116  CB       103.9660   59.6000   41.2940 C.3   164  CYS164      0.0970
    117  SG       105.7730   59.5730   41.4540 S.3   164  CYS164     -0.0800
    118  N        104.1860   62.2560   40.1890 N.am  165  ASP165     -0.1973
    119  CA       104.6930   63.5870   39.8740 C.3   165  ASP165      0.1709
    120  C        104.0530   64.1780   38.6110 C.2   165  ASP165      0.2293
    121  O        104.6620   64.1800   37.5360 O.2   165  ASP165     -0.2864
    122  CB       106.2210   63.6030   39.7910 C.3   165  ASP165      0.1436
    123  CG       106.8010   65.0260   39.7220 C.2   165  ASP165      0.3671
    124  OD1      106.0410   66.0320   39.6720 O.co2 165  ASP165     -0.2456
    125  OD2      108.0480   65.1390   39.7390 O.co2 165  ASP165     -0.2456
@<TRIPOS>BOND
     1   103   101   am
     2   100   101    1
     3   100    97    1
     4   121   120    2
     5   101   102    2
     6   115   114    2
     7    99    98    2
     8    98    97    1
     9    96    97    1
    10    45    46    1
    11   120   119    1
    12    46    47    1
    13    46    49    1
    14   112   113    1
    15   114   113    1
    16   114   118   am
    17    48    47    2
    18   124   123   ar
    19   123   125   ar
    20   123   122    1
    21   122   119    1
    22   119   118    1
    23    49    50    1
    24   113   116    1
    25   104   105    1
    26    50    51    1
    27    54    55    1
    28   107   106    2
    29    51    52   ar
    30    51    53   ar
    31   116   117    1
    32   106   105    1
    33    57    56    2
    34   105   108    1
    35    59    58    1
    36    55    56    1
    37    55    58    1
    38    44    43    1
    39    58    60    1
    40   108   109    1
    41   109   111    1
    42   109   110    1
    43    17    14    1
    44    17    18    1
    45    14    13    1
    46    14    15    1
    47    43    42    1
    48    18    19   ar
    49    18    20   ar
    50    19    21   ar
    51    42    41    1
    52    68    66    1
    53    94    93    1
    54    15    16    2
    55    20    22   ar
    56    21    23   ar
    57    95    93    1
    58    67    66    1
    59    93    90    1
    60    66    65    1
    61    22    23   ar
    62    41    40    1
    63    65    62    1
    64    40    37    1
    65    75    74   ar
    66    73    74    1
    67    73    70    1
    68    92    91    2
    69    72    71    2
    70    90    91    1
    71    90    89    1
    72    74    76   ar
    73    30    28    1
    74    62    63    1
    75    62    61    1
    76    69    70    1
    77    69    63   am
    78    89    79   am
    79    70    71    1
    80    71    77   am
    81    63    64    2
    82    37    38    1
    83    37    36    1
    84    39    38    2
    85    79    80    2
    86    79    78    1
    87    28    29    1
    88    28    25    1
    89    77    78    1
    90    78    81    1
    91    10    11    1
    92    10     9    2
    93    11    12    2
    94    35    32    1
    95    24    25    1
    96    34    33    2
    97     4     3    2
    98    25    26    1
    99    33    32    1
   100     9     3    1
   101    83    85   ar
   102    83    82   ar
   103    32    31    1
   104    81    82    1
   105     3     2    1
   106    85    87   ar
   107     8     6    1
   108    82    84   ar
   109    87    88    1
   110    87    86   ar
   111     6     5    1
   112    84    86   ar
   113    26    27    2
   114     5     2    1
   115     5     7    1
   116     2     1    1
