@<TRIPOS>MOLECULE
tmp/3zrmB00.pdb
 153 143 0 0 0
SMALL
GASTEIGER

@<TRIPOS>ATOM
      1  N        110.3940   62.4330   53.3100 N.3    27  ILE27      -0.1231
      2  CA       110.9480   61.4600   52.3580 C.3    27  ILE27       0.1696
      3  C        111.6110   62.0870   51.1310 C.2    27  ILE27       0.2632
      4  O        112.1930   61.3720   50.3170 O.2    27  ILE27      -0.2714
      5  CB       109.9100   60.3760   51.9040 C.3    27  ILE27       0.0266
      6  CG1      108.6490   61.0250   51.3070 C.3    27  ILE27       0.0019
      7  CG2      109.6080   59.3990   53.0560 C.3    27  ILE27       0.0020
      8  CD1      107.5800   60.0430   50.8600 C.3    27  ILE27       0.0001
      9  N        111.5290   63.4100   50.9970 N.am   28  GLY28      -0.1718
     10  CA       112.1800   64.0920   49.8810 C.2    28  GLY28       0.1480
     11  C        111.9970   65.5960   49.8100 C.2    28  GLY28       0.2820
     12  O        110.9280   66.1130   50.1270 O.2    28  GLY28      -0.2669
     13  N        113.0600   66.2820   49.3880 N.am   29  ASN29      -0.1937
     14  CA       113.0830   67.7360   49.1670 C.3    29  ASN29       0.1691
     15  C        113.5230   68.0530   47.7490 C.2    29  ASN29       0.2292
     16  O        114.1370   67.2200   47.0900 O.2    29  ASN29      -0.2864
     17  CB       114.0460   68.4180   50.1380 C.3    29  ASN29       0.1181
     18  CG       113.4900   68.5240   51.5350 C.2    29  ASN29       0.2629
     19  OD1      112.8700   67.5910   52.0430 O.2    29  ASN29      -0.2716
     20  ND2      113.7180   69.6630   52.1760 N.am   29  ASN29      -0.0877
     21  N        110.6070   71.8760   43.7680 N.3    32  PHE32      -0.1241
     22  CA       109.1500   71.8420   43.7330 C.3    32  PHE32       0.1605
     23  C        108.5260   72.1250   45.1090 C.2    32  PHE32       0.2264
     24  O        107.5050   72.8110   45.1930 O.2    32  PHE32      -0.2867
     25  CB       108.6610   70.4820   43.2050 C.3    32  PHE32       0.0534
     26  CG       108.9310   69.3320   44.1410 C.ar   32  PHE32      -0.0203
     27  CD1      110.1240   68.6190   44.0630 C.ar   32  PHE32      -0.0042
     28  CD2      107.9920   68.9670   45.1040 C.ar   32  PHE32      -0.0042
     29  CE1      110.3810   67.5520   44.9320 C.ar   32  PHE32      -0.0003
     30  CE2      108.2410   67.9050   45.9810 C.ar   32  PHE32      -0.0003
     31  CZ       109.4380   67.1940   45.8910 C.ar   32  PHE32      -0.0000
     32  N        108.0260   66.3320   50.1570 N.3    35  VAL35      -0.1245
     33  CA       107.1460   65.1640   50.2460 C.3    35  VAL35       0.1561
     34  C        107.3460   64.4890   51.6020 C.2    35  VAL35       0.2260
     35  O        108.4790   64.2400   52.0110 O.2    35  VAL35      -0.2867
     36  CB       107.3450   64.1360   49.0820 C.3    35  VAL35       0.0252
     37  CG1      106.2440   63.0900   49.1030 C.3    35  VAL35       0.0019
     38  CG2      107.3510   64.8140   47.7280 C.3    35  VAL35       0.0019
     39  N        101.5650   59.6450   51.2570 N.3    48  ALA48      -0.1245
     40  CA       102.5940   60.6110   50.9460 C.3    48  ALA48       0.1562
     41  C        101.9190   61.9710   50.8530 C.2    48  ALA48       0.2260
     42  O        100.8270   62.0990   50.2930 O.2    48  ALA48      -0.2867
     43  CB       103.2780   60.2540   49.6340 C.3    48  ALA48       0.0290
     44  N        102.5400   65.6850   49.4630 N.3    50  LYS50      -0.1245
     45  CA       103.3470   66.5800   48.6540 C.3    50  LYS50       0.1561
     46  C        102.9240   68.0190   48.9620 C.2    50  LYS50       0.2260
     47  O        101.7960   68.4200   48.6720 O.2    50  LYS50      -0.2867
     48  CB       103.1610   66.2450   47.1680 C.3    50  LYS50       0.0271
     49  CG       104.1600   66.9100   46.2260 C.3    50  LYS50       0.0035
     50  CD       103.7250   66.7420   44.7790 C.3    50  LYS50       0.0206
     51  CE       104.8290   67.1920   43.8360 C.3    50  LYS50       0.1093
     52  NZ       104.4970   66.8690   42.4230 N.3    50  LYS50      -0.1314
     53  N         98.5360   70.6500   38.3500 N.3    62  GLU62      -0.1245
     54  CA        98.7240   69.3070   38.9040 C.3    62  GLU62       0.1567
     55  C         97.4600   68.8460   39.6180 C.2    62  GLU62       0.2260
     56  O         96.9770   67.7380   39.3770 O.2    62  GLU62      -0.2867
     57  CB        99.9500   69.2580   39.8320 C.3    62  GLU62       0.0388
     58  CG       100.2720   67.8870   40.3970 C.3    62  GLU62       0.1160
     59  CD       101.6150   67.8340   41.1270 C.2    62  GLU62       0.3649
     60  OE1      102.2730   68.8900   41.2980 O.co2  62  GLU62      -0.2457
     61  OE2      102.0160   66.7250   41.5360 O.co2  62  GLU62      -0.2457
     62  N         99.1100   56.8700   40.6720 N.3    75  VAL75      -0.1245
     63  CA        99.0650   57.1920   42.0870 C.3    75  VAL75       0.1561
     64  C         97.7540   57.9400   42.3680 C.2    75  VAL75       0.2260
     65  O         97.4170   58.8930   41.6700 O.2    75  VAL75      -0.2867
     66  CB       100.3080   58.0050   42.5230 C.3    75  VAL75       0.0252
     67  CG1      100.2770   59.4090   41.9250 C.3    75  VAL75       0.0019
     68  CG2      100.4010   58.0840   44.0250 C.3    75  VAL75       0.0019
     69  N         98.5830   61.5140   48.8340 N.3    97  LEU97      -0.1231
     70  CA        98.6480   60.4140   47.8680 C.3    97  LEU97       0.1693
     71  C         98.8090   59.0770   48.5650 C.2    97  LEU97       0.2592
     72  O         99.3290   59.0180   49.6820 O.2    97  LEU97      -0.2718
     73  CB        99.8320   60.6240   46.9210 C.3    97  LEU97       0.0284
     74  CG        99.9840   62.0110   46.2980 C.3    97  LEU97       0.0019
     75  CD1      101.4380   62.3170   45.9300 C.3    97  LEU97       0.0001
     76  CD2       99.0620   62.1500   45.0970 C.3    97  LEU97       0.0001
     77  N         98.3700   58.0070   47.9060 N.am   98  ASP98      -0.1960
     78  CA        98.6770   56.6380   48.3560 C.3    98  ASP98       0.1840
     79  C        100.1810   56.4410   48.3720 C.2    98  ASP98       0.2622
     80  O        100.8510   56.7650   47.3960 O.2    98  ASP98      -0.2715
     81  CB        98.0600   55.5960   47.4250 C.3    98  ASP98       0.1450
     82  CG        96.6350   55.2800   47.7730 C.2    98  ASP98       0.3671
     83  OD1       95.8480   56.2200   47.9650 O.co2  98  ASP98      -0.2456
     84  OD2       96.2930   54.0830   47.8510 O.co2  98  ASP98      -0.2456
     85  N        100.7080   55.9330   49.4810 N.am   99  TYR99      -0.1960
     86  CA       102.1460   55.7220   49.5860 C.3    99  TYR99       0.1771
     87  C        102.5420   54.4430   48.8680 C.2    99  TYR99       0.2619
     88  O        101.8730   53.4150   48.9920 O.2    99  TYR99      -0.2715
     89  CB       102.6270   55.7040   51.0380 C.3    99  TYR99       0.0574
     90  CG       104.1110   55.4320   51.1670 C.ar   99  TYR99      -0.0198
     91  CD1      105.0500   56.4280   50.8900 C.ar   99  TYR99      -0.0009
     92  CD2      104.5780   54.1680   51.5470 C.ar   99  TYR99      -0.0009
     93  CE1      106.4250   56.1730   50.9870 C.ar   99  TYR99       0.0417
     94  CE2      105.9460   53.9040   51.6560 C.ar   99  TYR99       0.0417
     95  CZ       106.8580   54.9070   51.3800 C.ar   99  TYR99       0.1957
     96  OH       108.2000   54.6440   51.4940 O.3    99  TYR99      -0.2866
     97  N        103.6180   54.5300   48.0940 N.am  100  VAL100     -0.1977
     98  CA       104.1420   53.3870   47.3700 C.3   100  VAL100      0.1596
     99  C        105.6480   53.3310   47.6260 C.2   100  VAL100      0.2287
    100  O        106.3690   54.2680   47.2900 O.2   100  VAL100     -0.2864
    101  CB       103.7970   53.4660   45.8650 C.3   100  VAL100      0.0276
    102  CG1      104.4770   52.3560   45.0920 C.3   100  VAL100      0.0022
    103  CG2      102.2870   53.3870   45.6660 C.3   100  VAL100      0.0022
    104  N        114.8790   52.8190   41.6020 N.3   106  ARG106     -0.1245
    105  CA       115.6040   52.1520   42.6830 C.3   106  ARG106      0.1563
    106  C        115.8230   50.6640   42.4200 C.2   106  ARG106      0.2260
    107  O        116.9100   50.1420   42.6690 O.2   106  ARG106     -0.2867
    108  CB       114.9400   52.4090   44.0390 C.3   106  ARG106      0.0307
    109  CG       115.6230   53.5180   44.8300 C.3   106  ARG106      0.0489
    110  CD       114.6310   54.3940   45.5910 C.3   106  ARG106      0.2205
    111  NE       115.3170   55.4220   46.3820 N.pl3 106  ARG106     -0.0865
    112  CZ       115.7620   56.5850   45.9050 C.cat 106  ARG106      0.5346
    113  NH1      115.6040   56.9020   44.6260 N.pl3 106  ARG106      0.1354
    114  NH2      116.3710   57.4400   46.7170 N.pl3 106  ARG106      0.1354
    115  N        112.4670   57.2750   37.8490 N.3   150  GLN150     -0.1231
    116  CA       112.1690   57.8710   39.1630 C.3   150  GLN150      0.1698
    117  C        110.6910   58.2160   39.3880 C.2   150  GLN150      0.2592
    118  O        110.2580   58.3660   40.5350 O.2   150  GLN150     -0.2718
    119  CB       113.0100   59.1350   39.4000 C.3   150  GLN150      0.0381
    120  CG       114.5380   58.9480   39.2450 C.3   150  GLN150      0.0905
    121  CD       115.0290   59.0360   37.7940 C.2   150  GLN150      0.2608
    122  OE1      114.2470   58.9570   36.8490 O.2   150  GLN150     -0.2717
    123  NE2      116.3400   59.1890   37.6210 N.am  150  GLN150     -0.0878
    124  N        109.9250   58.3520   38.3050 N.am  151  ASN151     -0.1974
    125  CA       108.5180   58.7160   38.4120 C.3   151  ASN151      0.1688
    126  C        107.5900   57.5250   38.2760 C.2   151  ASN151      0.2292
    127  O        106.3660   57.6830   38.1810 O.2   151  ASN151     -0.2864
    128  CB       108.1470   59.8190   37.4110 C.3   151  ASN151      0.1181
    129  CG       108.6650   61.1880   37.8340 C.2   151  ASN151      0.2629
    130  OD1      108.9700   61.4170   39.0070 O.2   151  ASN151     -0.2716
    131  ND2      108.7770   62.0980   36.8740 N.am  151  ASN151     -0.0877
    132  N        106.3390   54.5150   40.3180 N.3   153  LEU153     -0.1245
    133  CA       106.3010   53.9250   41.6460 C.3   153  LEU153      0.1561
    134  C        105.9840   52.4400   41.5680 C.2   153  LEU153      0.2260
    135  O        105.2270   51.9930   40.6920 O.2   153  LEU153     -0.2867
    136  CB       105.3050   54.6520   42.5520 C.3   153  LEU153      0.0270
    137  CG       105.5220   56.1540   42.7870 C.3   153  LEU153      0.0019
    138  CD1      104.5170   56.6820   43.7620 C.3   153  LEU153      0.0001
    139  CD2      106.9150   56.5030   43.2530 C.3   153  LEU153      0.0001
    140  N        103.5110   58.6050   38.8510 N.3   164  CYS164     -0.1221
    141  CA       103.3660   59.7390   39.7720 C.3   164  CYS164      0.1808
    142  C        104.0890   60.9810   39.2710 C.2   164  CYS164      0.2601
    143  O        104.6800   60.9770   38.1890 O.2   164  CYS164     -0.2717
    144  CB       103.8440   59.3740   41.1780 C.3   164  CYS164      0.0970
    145  SG       105.6480   59.4360   41.3400 S.3   164  CYS164     -0.0800
    146  N        104.0350   62.0290   40.0880 N.am  165  ASP165     -0.1973
    147  CA       104.5790   63.3520   39.7870 C.3   165  ASP165      0.1709
    148  C        103.9570   63.9630   38.5380 C.2   165  ASP165      0.2293
    149  O        104.5660   63.9920   37.4680 O.2   165  ASP165     -0.2864
    150  CB       106.1150   63.3480   39.7090 C.3   165  ASP165      0.1436
    151  CG       106.7060   64.7640   39.6430 C.2   165  ASP165      0.3671
    152  OD1      105.9470   65.7630   39.6120 O.co2 165  ASP165     -0.2456
    153  OD2      107.9480   64.8790   39.6250 O.co2 165  ASP165     -0.2456
@<TRIPOS>BOND
     1   122   121    2
     2   131   129   am
     3   128   129    1
     4   128   125    1
     5   149   148    2
     6   123   121   am
     7   121   120    1
     8   129   130    2
     9   115   116    1
    10   127   126    2
    11   143   142    2
    12   126   125    1
    13   124   125    1
    14   124   117   am
    15    53    54    1
    16   148   147    1
    17   140   141    1
    18    54    55    1
    19    54    57    1
    20   116   117    1
    21   116   119    1
    22   120   119    1
    23   142   141    1
    24   142   146   am
    25    56    55    2
    26   117   118    2
    27   152   151   ar
    28   153   151   ar
    29   151   150    1
    30   150   147    1
    31   141   144    1
    32   147   146    1
    33    57    58    1
    34   132   133    1
    35    58    59    1
    36    62    63    1
    37   135   134    2
    38    59    60   ar
    39    59    61   ar
    40   144   145    1
    41   134   133    1
    42   104   105    1
    43   133   136    1
    44    65    64    2
    45    67    66    1
    46    63    64    1
    47    63    66    1
    48   106   107    2
    49   106   105    1
    50    52    51    1
    51    66    68    1
    52   136   137    1
    53   105   108    1
    54   137   139    1
    55   137   138    1
    56    25    22    1
    57    25    26    1
    58    22    21    1
    59    22    23    1
    60    51    50    1
    61   108   109    1
    62    27    26   ar
    63    27    29   ar
    64    26    28   ar
    65   113   112    1
    66    50    49    1
    67   109   110    1
    68    29    31   ar
    69   102   101    1
    70    76    74    1
    71    28    30   ar
    72    23    24    2
    73   110   111    1
    74   103   101    1
    75   101    98    1
    76    31    30   ar
    77   112   111    2
    78   112   114    1
    79    75    74    1
    80    49    48    1
    81    74    73    1
    82    73    70    1
    83    16    15    2
    84    48    45    1
    85   100    99    2
    86    98    99    1
    87    98    97    1
    88    80    79    2
    89    81    82    1
    90    81    78    1
    91    38    36    1
    92    15    14    1
    93    82    84   ar
    94    82    83   ar
    95    70    71    1
    96    70    69    1
    97    77    78    1
    98    77    71   am
    99    97    87   am
   100    78    79    1
   101    79    85   am
   102    71    72    2
   103    45    46    1
   104    45    44    1
   105    47    46    2
   106    87    88    2
   107    87    86    1
   108    36    37    1
   109    36    33    1
   110    14    13    1
   111    14    17    1
   112    13    11   am
   113    85    86    1
   114    86    89    1
   115    43    40    1
   116    11    10    1
   117    11    12    2
   118    10     9    2
   119    17    18    1
   120    32    33    1
   121    33    34    1
   122    42    41    2
   123     4     3    2
   124    41    40    1
   125     8     6    1
   126    91    93   ar
   127    91    90   ar
   128    40    39    1
   129    93    95   ar
   130     9     3    1
   131    89    90    1
   132     3     2    1
   133    90    92   ar
   134     6     5    1
   135    95    96    1
   136    95    94   ar
   137    18    19    2
   138    18    20   am
   139    92    94   ar
   140    34    35    2
   141     5     2    1
   142     5     7    1
   143     2     1    1
