@<TRIPOS>MOLECULE
tmp/3zrqA00.pdb
 127 116 0 0 0
SMALL
GASTEIGER

@<TRIPOS>ATOM
      1  N         22.9510    2.1020    8.8950 N.3     7  VAL7       -0.1231
      2  CA        23.1440    1.0400    9.8790 C.3     7  VAL7        0.1692
      3  C         21.8450    0.4030   10.4270 C.2     7  VAL7        0.2592
      4  O         21.9020   -0.4250   11.3380 O.2     7  VAL7       -0.2718
      5  CB        24.0890    1.5110   11.0170 C.3     7  VAL7        0.0266
      6  CG1       25.4510    1.8680   10.4260 C.3     7  VAL7        0.0020
      7  CG2       23.4850    2.6980   11.7990 C.3     7  VAL7        0.0020
      8  N         20.6970    0.7830    9.8590 N.am    8  GLY8       -0.1957
      9  CA        19.3900    0.2250   10.2490 C.3     8  GLY8        0.1869
     10  C         18.4000    1.2510   10.7990 C.2     8  GLY8        0.2309
     11  O         18.7250    1.9680   11.7410 O.2     8  GLY8       -0.2863
     12  N         13.7690   -2.0120   20.6870 N.3    61  GLY61      -0.1210
     13  CA        14.8420   -2.4160   19.7460 C.3    61  GLY61       0.1956
     14  C         16.0090   -3.0790   20.4370 C.2    61  GLY61       0.2612
     15  O         15.8460   -3.7120   21.4870 O.2    61  GLY61      -0.2717
     16  N         17.1890   -2.9690   19.8440 N.am   62  GLY62      -0.1942
     17  CA        18.3990   -3.5690   20.4480 C.3    62  GLY62       0.2014
     18  C         18.5970   -3.0690   21.8770 C.2    62  GLY62       0.2640
     19  O         18.9530   -3.7990   22.7270 O.2    62  GLY62      -0.2714
     20  N         18.3620   -1.7800   22.1530 N.am   63  THR63      -0.1936
     21  CA        18.6480   -1.2580   23.5000 C.3    63  THR63       0.2028
     22  C         17.6480   -1.8010   24.5630 C.2    63  THR63       0.2642
     23  O         18.0370   -2.0820   25.7040 O.2    63  THR63      -0.2714
     24  CB        18.6470    0.3000   23.5090 C.3    63  THR63       0.1808
     25  OG1       19.5700    0.7680   22.5100 O.3    63  THR63      -0.2208
     26  CG2       19.0460    0.8280   24.9010 C.3    63  THR63       0.0379
     27  N         16.3870   -1.9980   24.1790 N.am   64  SER64      -0.1949
     28  CA        15.4180   -2.5320   25.0990 C.3    64  SER64       0.1924
     29  C         15.7030   -4.0190   25.3350 C.2    64  SER64       0.2314
     30  O         15.6590   -4.4350   26.4950 O.2    64  SER64      -0.2863
     31  CB        13.9760   -2.2780   24.6940 C.3    64  SER64       0.2116
     32  OG        13.6030   -2.8770   23.4740 O.3    64  SER64      -0.2180
     33  N         18.6880   -5.4290   25.2040 N.3    66  MET66      -0.1245
     34  CA        19.8480   -5.4100   26.0890 C.3    66  MET66       0.1570
     35  C         19.4400   -5.1340   27.5480 C.2    66  MET66       0.2261
     36  O         19.8250   -5.8810   28.4380 O.2    66  MET66      -0.2867
     37  CB        20.8630   -4.3540   25.6260 C.3    66  MET66       0.0387
     38  CG        21.5890   -4.6750   24.2450 C.3    66  MET66       0.0595
     39  SD        22.4930   -3.2040   23.6920 S.3    66  MET66      -0.1393
     40  CE        24.0750   -3.3640   24.5720 C.3    66  MET66       0.0692
     41  N         28.8130    0.4070   21.1780 N.3    87  PHE87      -0.1241
     42  CA        27.7020   -0.4700   21.5820 C.3    87  PHE87       0.1605
     43  C         28.0840   -1.4890   22.6210 C.2    87  PHE87       0.2264
     44  O         27.2480   -1.9180   23.4110 O.2    87  PHE87      -0.2867
     45  CB        26.9690   -1.0400   20.3540 C.3    87  PHE87       0.0534
     46  CG        26.3020    0.0590   19.5460 C.ar   87  PHE87      -0.0203
     47  CD1       25.1350    0.6600   20.0300 C.ar   87  PHE87      -0.0042
     48  CD2       26.8970    0.5730   18.3890 C.ar   87  PHE87      -0.0042
     49  CE1       24.5470    1.7250   19.3510 C.ar   87  PHE87      -0.0003
     50  CE2       26.3250    1.6450   17.6990 C.ar   87  PHE87      -0.0003
     51  CZ        25.1300    2.2140   18.1840 C.ar   87  PHE87      -0.0000
     52  N         27.6020    0.6310   25.6090 N.3    90  ARG90      -0.1245
     53  CA        26.1900    0.7380   26.0040 C.3    90  ARG90       0.1563
     54  C         25.7990   -0.2500   27.0970 C.2    90  ARG90       0.2260
     55  O         24.9790    0.0850   27.9540 O.2    90  ARG90      -0.2867
     56  CB        25.2550    0.6150   24.7810 C.3    90  ARG90       0.0307
     57  CG        23.7460    0.7520   25.1310 C.3    90  ARG90       0.0489
     58  CD        22.9810    1.1910   23.8970 C.3    90  ARG90       0.2205
     59  NE        23.2910    2.6000   23.6250 N.pl3  90  ARG90      -0.0865
     60  CZ        22.5600    3.4030   22.8510 C.cat  90  ARG90       0.5346
     61  NH1       21.4420    2.9810   22.2520 N.pl3  90  ARG90       0.1354
     62  NH2       22.9410    4.6560   22.6990 N.pl3  90  ARG90       0.1354
     63  N         29.7370   -8.3420   22.1210 N.3   133  THR133     -0.1218
     64  CA        29.1190   -7.7250   20.9320 C.3   133  THR133      0.1862
     65  C         29.5650   -8.4980   19.6830 C.2   133  THR133      0.2287
     66  O         30.7630   -8.5510   19.3920 O.2   133  THR133     -0.2866
     67  CB        29.5400   -6.2620   20.7740 C.3   133  THR133      0.1770
     68  OG1       29.4220   -5.5670   22.0200 O.3   133  THR133     -0.2211
     69  CG2       28.6800   -5.5590   19.7230 C.3   133  THR133      0.0375
     70  N         28.9230   -7.9110   16.2970 N.3   135  VAL135     -0.1245
     71  CA        29.4770   -6.9220   15.4020 C.3   135  VAL135      0.1561
     72  C         29.3030   -5.5680   16.0640 C.2   135  VAL135      0.2260
     73  O         28.1810   -5.1810   16.4220 O.2   135  VAL135     -0.2867
     74  CB        28.7770   -6.9440   13.9940 C.3   135  VAL135      0.0252
     75  CG1       29.0960   -5.6660   13.1940 C.3   135  VAL135      0.0019
     76  CG2       29.1480   -8.1770   13.2120 C.3   135  VAL135      0.0019
     77  N         29.0440   -1.9400   15.6720 N.3   137  THR137     -0.1218
     78  CA        28.5780   -1.1400   14.5460 C.3   137  THR137      0.1862
     79  C         29.3930    0.1340   14.3660 C.2   137  THR137      0.2287
     80  O         29.5390    0.6100   13.2240 O.2   137  THR137     -0.2866
     81  CB        27.0660   -0.7810   14.7270 C.3   137  THR137      0.1770
     82  OG1       26.3560   -1.9670   15.0940 O.3   137  THR137     -0.2211
     83  CG2       26.4530   -0.2140   13.4530 C.3   137  THR137      0.0375
     84  N         25.1670   -9.4820   22.0390 N.3   162  ASP162     -0.1239
     85  CA        24.4680   -8.4860   21.2600 C.3   162  ASP162      0.1674
     86  C         24.7610   -8.7880   19.7710 C.2   162  ASP162      0.2266
     87  O         25.8680   -8.5020   19.2690 O.2   162  ASP162     -0.2867
     88  CB        24.9160   -7.0920   21.7040 C.3   162  ASP162      0.1410
     89  CG        24.5260   -6.0010   20.7320 C.2   162  ASP162      0.3668
     90  OD1       23.8440   -6.2740   19.7080 O.co2 162  ASP162     -0.2456
     91  OD2       24.9300   -4.8450   20.9820 O.co2 162  ASP162     -0.2456
     92  N         22.7280   -7.4730   17.3400 N.3   164  VAL164     -0.1231
     93  CA        21.9560   -6.4400   16.6210 C.3   164  VAL164      0.1692
     94  C         22.4250   -6.2130   15.1610 C.2   164  VAL164      0.2592
     95  O         21.5770   -6.1210   14.2490 O.2   164  VAL164     -0.2718
     96  CB        21.8830   -5.1010   17.4140 C.3   164  VAL164      0.0266
     97  CG1       21.3290   -3.9940   16.5560 C.3   164  VAL164      0.0020
     98  CG2       21.0120   -5.2780   18.7160 C.3   164  VAL164      0.0020
     99  N         23.7420   -6.1060   14.9340 N.am  165  SER165     -0.1952
    100  CA        24.2840   -5.9770   13.5710 C.3   165  SER165      0.1924
    101  C         24.9070   -7.2810   13.0260 C.2   165  SER165      0.2314
    102  O         25.8040   -7.2540   12.1540 O.2   165  SER165     -0.2863
    103  CB        25.3160   -4.8490   13.5050 C.3   165  SER165      0.2116
    104  OG        24.7230   -3.5880   13.6570 O.3   165  SER165     -0.2180
    105  N         17.7550   -6.8430   16.7480 N.3   185  ALA185     -0.1245
    106  CA        16.6720   -5.9030   16.5410 C.3   185  ALA185      0.1562
    107  C         16.0200   -6.2370   15.2040 C.2   185  ALA185      0.2260
    108  O         16.5650   -7.0450   14.4130 O.2   185  ALA185     -0.2867
    109  CB        17.1900   -4.4600   16.5530 C.3   185  ALA185      0.0290
    110  N         15.4260   -4.0810   12.6350 N.3   187  GLN187     -0.1231
    111  CA        15.6660   -3.1350   11.5530 C.3   187  GLN187      0.1698
    112  C         17.0420   -3.2640   10.9260 C.2   187  GLN187      0.2592
    113  O         17.3910   -2.4450   10.0840 O.2   187  GLN187     -0.2718
    114  CB        15.4370   -1.6850   12.0230 C.3   187  GLN187      0.0381
    115  CG        16.5850   -1.0890   12.9120 C.3   187  GLN187      0.0905
    116  CD        16.5090   -1.5080   14.3990 C.2   187  GLN187      0.2608
    117  OE1       15.5770   -2.2020   14.8260 O.2   187  GLN187     -0.2717
    118  NE2       17.4950   -1.0740   15.1870 N.am  187  GLN187     -0.0878
    119  N         17.7870   -4.3110   11.2800 N.am  188  LYS188     -0.1980
    120  CA        19.1460   -4.4480   10.7120 C.3   188  LYS188      0.1596
    121  C         19.2280   -5.4920    9.6240 C.2   188  LYS188      0.2287
    122  O         18.5670   -5.3400    8.5810 O.2   188  LYS188     -0.2864
    123  CB        20.1540   -4.7300   11.8150 C.3   188  LYS188      0.0298
    124  CG        21.0920   -3.6390   12.0130 C.3   188  LYS188      0.0038
    125  CD        20.5210   -2.5890   12.8690 C.3   188  LYS188      0.0206
    126  CE        21.7160   -1.9740   13.5770 C.3   188  LYS188      0.1093
    127  NZ        21.3620   -0.9280   14.5040 N.3   188  LYS188     -0.1314
@<TRIPOS>BOND
     1   122   121    2
     2     1     2    1
     3   121   120    1
     4     8     9    1
     5     8     3   am
     6     2     3    1
     7     2     5    1
     8   113   112    2
     9     9    10    1
    10     6     5    1
    11     3     4    2
    12   120   119    1
    13   120   123    1
    14    10    11    2
    15   112   119   am
    16   112   111    1
    17     5     7    1
    18   111   114    1
    19   111   110    1
    20   123   124    1
    21   124   125    1
    22   114   115    1
    23   102   101    2
    24   125   126    1
    25   115   116    1
    26   101   100    1
    27    75    74    1
    28    76    74    1
    29    80    79    2
    30    83    81    1
    31   103   100    1
    32   103   104    1
    33   100    99    1
    34   126   127    1
    35    74    71    1
    36    95    94    2
    37    79    78    1
    38   116   117    2
    39   116   118   am
    40   108   107    2
    41    78    81    1
    42    78    77    1
    43    81    82    1
    44    99    94   am
    45    94    93    1
    46   107   106    1
    47    71    72    1
    48    71    70    1
    49    72    73    2
    50   106   109    1
    51   106   105    1
    52    97    96    1
    53    93    92    1
    54    93    96    1
    55    96    98    1
    56    50    51   ar
    57    50    48   ar
    58    51    49   ar
    59    48    46   ar
    60    87    86    2
    61    49    47   ar
    62    66    65    2
    63    46    47   ar
    64    46    45    1
    65    65    64    1
    66    90    89   ar
    67    69    67    1
    68    13    14    1
    69    13    12    1
    70    86    85    1
    71    16    14   am
    72    16    17    1
    73    45    42    1
    74    14    15    2
    75    17    18    1
    76    89    91   ar
    77    89    88    1
    78    67    64    1
    79    67    68    1
    80    64    63    1
    81    41    42    1
    82    85    88    1
    83    85    84    1
    84    42    43    1
    85    18    20   am
    86    18    19    2
    87    20    21    1
    88    61    60    1
    89    25    24    1
    90    43    44    2
    91    62    60    1
    92    60    59    2
    93    32    31    1
    94    21    24    1
    95    21    22    1
    96    24    26    1
    97    59    58    1
    98    39    38    1
    99    39    40    1
   100    58    57    1
   101    27    22   am
   102    27    28    1
   103    38    37    1
   104    22    23    2
   105    31    28    1
   106    56    57    1
   107    56    53    1
   108    28    29    1
   109    33    34    1
   110    29    30    2
   111    52    53    1
   112    37    34    1
   113    53    54    1
   114    34    35    1
   115    54    55    2
   116    35    36    2
