@<TRIPOS>MOLECULE
tmp/3zrrB01.pdb
 140 128 0 0 0
SMALL
GASTEIGER

@<TRIPOS>ATOM
      1  N         10.5640  -29.8940  -21.6180 N.3     4  VAL4       -0.1245
      2  CA        10.7050  -28.4660  -21.8920 C.3     4  VAL4        0.1561
      3  C         10.8250  -27.7510  -20.5380 C.2     4  VAL4        0.2260
      4  O         10.0000  -27.9610  -19.6450 O.2     4  VAL4       -0.2867
      5  CB         9.4960  -27.9010  -22.7290 C.3     4  VAL4        0.0252
      6  CG1        9.4870  -26.3670  -22.7360 C.3     4  VAL4        0.0019
      7  CG2        9.5040  -28.4560  -24.1610 C.3     4  VAL4        0.0019
      8  N         -3.7250  -18.7830  -24.2020 N.3    58  GLY58      -0.1210
      9  CA        -2.2770  -18.4910  -24.2230 C.3    58  GLY58       0.1956
     10  C         -1.9020  -17.7450  -25.4760 C.2    58  GLY58       0.2612
     11  O         -2.7570  -17.0980  -26.0990 O.2    58  GLY58      -0.2717
     12  N         -0.6330  -17.8350  -25.8660 N.am   59  GLY59      -0.1942
     13  CA        -0.1840  -17.2040  -27.1060 C.3    59  GLY59       0.2014
     14  C         -1.0050  -17.6840  -28.2940 C.2    59  GLY59       0.2639
     15  O         -1.3300  -16.8990  -29.1790 O.2    59  GLY59      -0.2714
     16  N         -1.3570  -18.9710  -28.3040 N.am   60  THR60      -0.1950
     17  CA        -2.0620  -19.5600  -29.4380 C.3    60  THR60       0.1897
     18  C         -3.5050  -19.0400  -29.5940 C.2    60  THR60       0.2313
     19  O         -3.9640  -18.7510  -30.7220 O.2    60  THR60      -0.2863
     20  CB        -2.0700  -21.0770  -29.3560 C.3    60  THR60       0.1794
     21  OG1       -0.7200  -21.5420  -29.3020 O.3    60  THR60      -0.2208
     22  CG2       -2.7550  -21.6880  -30.6030 C.3    60  THR60       0.0378
     23  N         -3.1060  -15.4680  -30.8400 N.3    63  MET63      -0.1245
     24  CA        -2.8690  -15.5140  -32.2840 C.3    63  MET63       0.1570
     25  C         -4.1860  -15.7680  -33.0620 C.2    63  MET63       0.2261
     26  O         -4.5290  -15.0100  -33.9750 O.2    63  MET63      -0.2867
     27  CB        -1.8000  -16.5690  -32.6440 C.3    63  MET63       0.0387
     28  CG        -0.3720  -16.2650  -32.1460 C.3    63  MET63       0.0595
     29  SD         0.6490  -17.7520  -32.2480 S.3    63  MET63      -0.1393
     30  CE         1.2050  -17.6700  -33.9560 C.3    63  MET63       0.0692
     31  N          7.0960  -21.2190  -34.5510 N.3    84  PHE84      -0.1241
     32  CA         6.0230  -20.3500  -34.1090 C.3    84  PHE84       0.1605
     33  C          5.5370  -19.3570  -35.1780 C.2    84  PHE84       0.2264
     34  O          4.3600  -18.9950  -35.2100 O.2    84  PHE84      -0.2867
     35  CB         6.3330  -19.7690  -32.7240 C.3    84  PHE84       0.0534
     36  CG         6.2460  -20.8140  -31.6490 C.ar   84  PHE84      -0.0203
     37  CD1        5.0010  -21.2690  -31.2250 C.ar   84  PHE84      -0.0042
     38  CD2        7.3950  -21.4310  -31.1490 C.ar   84  PHE84      -0.0042
     39  CE1        4.8940  -22.2950  -30.2710 C.ar   84  PHE84      -0.0003
     40  CE2        7.3030  -22.4510  -30.2140 C.ar   84  PHE84      -0.0003
     41  CZ         6.0370  -22.8770  -29.7660 C.ar   84  PHE84      -0.0000
     42  N          3.1390  -21.5620  -37.0450 N.3    87  ARG87      -0.1245
     43  CA         1.8420  -21.7040  -36.3800 C.3    87  ARG87       0.1563
     44  C          0.7950  -20.6920  -36.9280 C.2    87  ARG87       0.2260
     45  O         -0.3850  -21.0060  -36.9680 O.2    87  ARG87      -0.2867
     46  CB         1.9820  -21.6340  -34.8550 C.3    87  ARG87       0.0307
     47  CG         0.6290  -21.6820  -34.1460 C.3    87  ARG87       0.0489
     48  CD         0.7700  -22.1590  -32.7330 C.3    87  ARG87       0.2205
     49  NE         1.1660  -23.5590  -32.7190 N.pl3  87  ARG87      -0.0865
     50  CZ         1.0660  -24.3310  -31.6490 C.cat  87  ARG87       0.5346
     51  NH1        0.5830  -23.8120  -30.5230 N.pl3  87  ARG87       0.1354
     52  NH2        1.4340  -25.6040  -31.7070 N.pl3  87  ARG87       0.1354
     53  N          7.0240  -12.6120  -36.0170 N.3   130  THR130     -0.1218
     54  CA         7.3680  -13.2320  -34.7380 C.3   130  THR130      0.1862
     55  C          8.5550  -12.4600  -34.1800 C.2   130  THR130      0.2287
     56  O          9.6320  -12.4760  -34.7830 O.2   130  THR130     -0.2866
     57  CB         7.7940  -14.6730  -34.9330 C.3   130  THR130      0.1770
     58  OG1        6.8190  -15.3610  -35.7270 O.3   130  THR130     -0.2211
     59  CG2        7.9620  -15.3560  -33.5990 C.3   130  THR130      0.0375
     60  N         10.4640  -12.8470  -31.3530 N.3   132  VAL132     -0.1245
     61  CA        11.4950  -13.8500  -31.1000 C.3   132  VAL132      0.1561
     62  C         10.9450  -15.2180  -31.4430 C.2   132  VAL132      0.2260
     63  O          9.8730  -15.6200  -30.9280 O.2   132  VAL132     -0.2867
     64  CB        11.9450  -13.8290  -29.6160 C.3   132  VAL132      0.0252
     65  CG1       12.8040  -15.0970  -29.2670 C.3   132  VAL132      0.0019
     66  CG2       12.6970  -12.5590  -29.2880 C.3   132  VAL132      0.0019
     67  N         11.0290  -18.8040  -30.8580 N.3   134  THR134     -0.1218
     68  CA        11.4120  -19.6120  -29.7190 C.3   134  THR134      0.1862
     69  C         12.1800  -20.8610  -30.1270 C.2   134  THR134      0.2287
     70  O         13.0580  -21.2950  -29.4070 O.2   134  THR134     -0.2866
     71  CB        10.1390  -19.9700  -28.8900 C.3   134  THR134      0.1770
     72  OG1        9.4370  -18.7510  -28.6050 O.3   134  THR134     -0.2211
     73  CG2       10.4840  -20.6490  -27.5630 C.3   134  THR134      0.0375
     74  N          3.6880  -11.4400  -32.9490 N.3   159  ASP159     -0.1239
     75  CA         3.7800  -12.4100  -31.8630 C.3   159  ASP159      0.1674
     76  C          5.0220  -12.0960  -30.9720 C.2   159  ASP159      0.2266
     77  O          6.1700  -12.3400  -31.3700 O.2   159  ASP159     -0.2867
     78  CB         3.8360  -13.8240  -32.4370 C.3   159  ASP159      0.1410
     79  CG         4.1710  -14.8920  -31.3860 C.2   159  ASP159      0.3668
     80  OD1        4.3780  -14.5590  -30.1940 O.co2 159  ASP159     -0.2456
     81  OD2        4.2240  -16.0700  -31.7660 O.co2 159  ASP159     -0.2456
     82  N          5.3020  -13.4080  -27.7710 N.3   161  VAL161     -0.1231
     83  CA         5.2470  -14.3730  -26.6610 C.3   161  VAL161      0.1692
     84  C          6.6190  -14.5150  -25.9530 C.2   161  VAL161      0.2592
     85  O          6.6910  -14.4650  -24.7160 O.2   161  VAL161     -0.2718
     86  CB         4.6880  -15.7470  -27.0680 C.3   161  VAL161      0.0266
     87  CG1        4.8590  -16.7430  -25.9210 C.3   161  VAL161      0.0020
     88  CG2        3.2040  -15.6610  -27.4490 C.3   161  VAL161      0.0020
     89  N          7.6920  -14.6380  -26.7390 N.am  162  SER162     -0.1952
     90  CA         9.0440  -14.7200  -26.1980 C.3   162  SER162      0.1924
     91  C          9.8230  -13.4060  -26.2110 C.2   162  SER162      0.2314
     92  O         11.0490  -13.4360  -26.1790 O.2   162  SER162     -0.2863
     93  CB         9.8660  -15.7700  -26.9520 C.3   162  SER162      0.2116
     94  OG         9.4040  -17.0720  -26.6840 O.3   162  SER162     -0.2180
     95  N          1.7190  -14.0350  -24.0950 N.3   182  ALA182     -0.1245
     96  CA         1.0470  -14.9640  -23.1950 C.3   182  ALA182      0.1562
     97  C          1.4880  -14.6370  -21.7540 C.2   182  ALA182      0.2260
     98  O          2.4080  -13.8390  -21.5390 O.2   182  ALA182     -0.2867
     99  CB         1.3960  -16.3780  -23.5600 C.3   182  ALA182      0.0290
    100  N          2.7790  -16.7410  -19.4520 N.3   184  GLN184     -0.1231
    101  CA         3.7300  -17.6600  -18.8160 C.3   184  GLN184      0.1698
    102  C          5.1810  -17.5820  -19.3080 C.2   184  GLN184      0.2592
    103  O          6.0020  -18.3790  -18.8810 O.2   184  GLN184     -0.2718
    104  CB         3.2400  -19.1200  -18.8920 C.3   184  GLN184      0.0381
    105  CG         3.4670  -19.8460  -20.2580 C.3   184  GLN184      0.0905
    106  CD         2.4670  -19.4450  -21.3300 C.2   184  GLN184      0.2608
    107  OE1        1.5260  -18.6920  -21.0830 O.2   184  GLN184     -0.2717
    108  NE2        2.6850  -19.9350  -22.5420 N.am  184  GLN184     -0.0878
    109  N          5.5060  -16.6490  -20.1980 N.am  185  LYS185     -0.1980
    110  CA         6.8710  -16.6360  -20.7530 C.3   185  LYS185      0.1596
    111  C          7.6950  -15.4950  -20.1360 C.2   185  LYS185      0.2287
    112  O          7.9230  -15.4880  -18.9100 O.2   185  LYS185     -0.2864
    113  CB         6.8450  -16.6490  -22.2930 C.3   185  LYS185      0.0298
    114  CG         6.4350  -18.0120  -22.8930 C.3   185  LYS185      0.0038
    115  CD         7.4850  -19.0910  -22.6230 C.3   185  LYS185      0.0206
    116  CE         6.9520  -20.5070  -22.8730 C.3   185  LYS185      0.1093
    117  NZ         7.9020  -21.6020  -22.4130 N.3   185  LYS185     -0.1314
    118  N         15.4850  -26.8990  -22.9860 N.3   322  ALA322     -0.1231
    119  CA        14.4110  -27.4190  -23.8350 C.3   322  ALA322      0.1679
    120  C         15.0140  -27.9980  -25.1160 C.2   322  ALA322      0.2434
    121  O         16.1520  -27.6430  -25.4700 O.2   322  ALA322     -0.2733
    122  CB        13.3970  -26.2990  -24.1480 C.3   322  ALA322      0.0304
    123  N         14.2680  -28.8870  -25.8200 N.am  323  PRO323     -0.2729
    124  CA        14.8320  -29.5390  -27.0100 C.3   323  PRO323      0.1401
    125  C         14.9810  -28.5850  -28.1780 C.2   323  PRO323      0.2269
    126  O         14.2930  -27.5580  -28.2370 O.2   323  PRO323     -0.2865
    127  CB        13.8040  -30.6350  -27.3530 C.3   323  PRO323      0.0296
    128  CG        12.8640  -30.7010  -26.1750 C.3   323  PRO323      0.0237
    129  CD        12.8710  -29.3010  -25.6100 C.3   323  PRO323      0.0939
    130  N         18.1620  -25.9420  -26.2830 N.3   333  ARG333     -0.1245
    131  CA        17.9730  -24.5080  -26.0850 C.3   333  ARG333      0.1563
    132  C         18.0270  -24.1410  -24.6130 C.2   333  ARG333      0.2260
    133  O         17.6610  -24.9390  -23.7530 O.2   333  ARG333     -0.2867
    134  CB        16.6360  -24.0640  -26.6840 C.3   333  ARG333      0.0307
    135  CG        16.6430  -24.0580  -28.2020 C.3   333  ARG333      0.0489
    136  CD        15.2740  -23.7430  -28.7810 C.3   333  ARG333      0.2205
    137  NE        14.2980  -24.7700  -28.4360 N.pl3 333  ARG333     -0.0865
    138  CZ        13.2080  -24.5540  -27.7060 C.cat 333  ARG333      0.5346
    139  NH1       12.9320  -23.3420  -27.2410 N.pl3 333  ARG333      0.1354
    140  NH2       12.3960  -25.5550  -27.4360 N.pl3 333  ARG333      0.1354
@<TRIPOS>BOND
     1    42    43    1
     2    45    44    2
     3    44    43    1
     4    43    46    1
     5    53    54    1
     6    58    57    1
     7    34    33    2
     8    33    32    1
     9    57    54    1
    10    57    59    1
    11    46    47    1
    12    56    55    2
    13    54    55    1
    14    31    32    1
    15    47    48    1
    16    32    35    1
    17    26    25    2
    18    30    29    1
    19    25    24    1
    20    74    75    1
    21    48    49    1
    22    35    36    1
    23    49    50    2
    24    27    24    1
    25    27    28    1
    26    78    75    1
    27    78    79    1
    28    24    23    1
    29    29    28    1
    30    75    76    1
    31    81    79   ar
    32    52    50    1
    33    36    37   ar
    34    36    38   ar
    35    50    51    1
    36    62    61    1
    37    62    63    2
    38    79    80   ar
    39    77    76    2
    40    60    61    1
    41    37    39   ar
    42    38    40   ar
    43    61    64    1
    44    67    68    1
    45    19    18    2
    46    22    20    1
    47    39    41   ar
    48    40    41   ar
    49    69    68    1
    50    69    70    2
    51    68    71    1
    52    64    66    1
    53    64    65    1
    54    18    17    1
    55    17    20    1
    56    17    16    1
    57    20    21    1
    58    15    14    2
    59    71    72    1
    60    71    73    1
    61   136   137    1
    62   136   135    1
    63   137   138    2
    64    16    14   am
    65    14    13    1
    66   126   125    2
    67   135   134    1
    68   125   124    1
    69    82    83    1
    70   138   140    1
    71   138   139    1
    72    88    86    1
    73   127   124    1
    74   127   128    1
    75    13    12    1
    76    86    83    1
    77    86    87    1
    78   124   123    1
    79    93    94    1
    80    93    90    1
    81    89    90    1
    82    89    84   am
    83   134   131    1
    84    83    84    1
    85   130   131    1
    86    91    90    1
    87    91    92    2
    88   128   129    1
    89    11    10    2
    90   131   132    1
    91    84    85    2
    92    12    10   am
    93   123   129    1
    94   123   120   am
    95    10     9    1
    96   121   120    2
    97   120   119    1
    98   132   133    2
    99     9     8    1
   100     7     5    1
   101   122   119    1
   102    95    96    1
   103   119   118    1
   104    99    96    1
   105    96    97    1
   106   114   115    1
   107   114   113    1
   108   116   115    1
   109   116   117    1
   110     6     5    1
   111     5     2    1
   112   108   106   am
   113   113   110    1
   114     2     1    1
   115     2     3    1
   116    97    98    2
   117   106   107    2
   118   106   105    1
   119   110   109    1
   120   110   111    1
   121     3     4    2
   122   105   104    1
   123   109   102   am
   124   111   112    2
   125   100   101    1
   126   102   103    2
   127   102   101    1
   128   104   101    1
