@<TRIPOS>MOLECULE
tmp/3zs0C00.pdb
 138 132 0 0 0
SMALL
GASTEIGER

@<TRIPOS>ATOM
      1  N          2.0690   21.8470    6.0070 N.3     4  GLU4       -0.1245
      2  CA         0.6870   22.2230    5.7390 C.3     4  GLU4        0.1567
      3  C          0.4730   22.7740    4.3370 C.2     4  GLU4        0.2260
      4  O         -0.6480   22.7780    3.8560 O.2     4  GLU4       -0.2867
      5  CB         0.1700   23.2430    6.7710 C.3     4  GLU4        0.0388
      6  CG         0.0280   22.6950    8.2010 C.3     4  GLU4        0.1160
      7  CD        -0.5270   23.7200    9.2020 C.2     4  GLU4        0.3649
      8  OE1       -0.7040   24.9020    8.8280 O.co2   4  GLU4       -0.2457
      9  OE2       -0.7970   23.3390   10.3670 O.co2   4  GLU4       -0.2457
     10  N         -1.8630   16.6800    4.6420 N.3    33  PRO33      -0.2102
     11  CA        -0.7670   17.1830    5.4850 C.3    33  PRO33       0.1504
     12  C         -0.5260   16.3500    6.7540 C.2    33  PRO33       0.2576
     13  O         -1.4820   15.8390    7.3560 O.2    33  PRO33      -0.2718
     14  CB        -1.2240   18.5970    5.8610 C.3    33  PRO33       0.0282
     15  CG        -2.1960   18.9850    4.7930 C.3    33  PRO33       0.0208
     16  CD        -2.8640   17.7190    4.3390 C.3    33  PRO33       0.0893
     17  N          0.7400   16.2510    7.1620 N.am   34  PHE34      -0.1963
     18  CA         1.1410   15.4620    8.3370 C.3    34  PHE34       0.1771
     19  C          2.5850   15.8090    8.7500 C.2    34  PHE34       0.2619
     20  O          3.4960   15.7470    7.9110 O.2    34  PHE34      -0.2715
     21  CB         1.0210   13.9620    8.0040 C.3    34  PHE34       0.0574
     22  CG         1.3390   13.0170    9.1610 C.ar   34  PHE34      -0.0200
     23  CD1        2.6620   12.7090    9.5060 C.ar   34  PHE34      -0.0042
     24  CD2        0.3050   12.3900    9.8670 C.ar   34  PHE34      -0.0042
     25  CE1        2.9500   11.8160   10.5580 C.ar   34  PHE34      -0.0003
     26  CE2        0.5790   11.4990   10.9080 C.ar   34  PHE34      -0.0003
     27  CZ         1.9040   11.2100   11.2570 C.ar   34  PHE34      -0.0000
     28  N          2.7720   16.1890   10.0200 N.am   35  PHE35      -0.1974
     29  CA         4.0880   16.4780   10.6070 C.3    35  PHE35       0.1639
     30  C          4.4130   15.2970   11.5070 C.2    35  PHE35       0.2290
     31  O          3.5420   14.8670   12.2740 O.2    35  PHE35      -0.2864
     32  CB         4.0440   17.6620   11.5980 C.3    35  PHE35       0.0560
     33  CG         3.7220   19.0120   10.9980 C.ar   35  PHE35      -0.0200
     34  CD1        2.3970   19.4000   10.7810 C.ar   35  PHE35      -0.0042
     35  CD2        4.7430   19.9440   10.7680 C.ar   35  PHE35      -0.0042
     36  CE1        2.0980   20.6830   10.2790 C.ar   35  PHE35      -0.0003
     37  CE2        4.4650   21.2080   10.2700 C.ar   35  PHE35      -0.0003
     38  CZ         3.1350   21.5860   10.0260 C.ar   35  PHE35      -0.0000
     39  N         -3.1850   22.8950   25.4100 N.3   125  THR125     -0.1203
     40  CA        -3.3180   23.7210   24.2010 C.3   125  THR125      0.1994
     41  C         -4.4790   23.3540   23.2440 C.2   125  THR125      0.2617
     42  O         -4.6580   24.0100   22.2280 O.2   125  THR125     -0.2717
     43  CB        -2.0140   23.6420   23.3550 C.3   125  THR125      0.1784
     44  OG1       -1.8270   22.2900   22.9150 O.3   125  THR125     -0.2211
     45  CG2       -0.7790   24.0870   24.1580 C.3   125  THR125      0.0376
     46  N         -5.2510   22.3110   23.5350 N.am  126  ARG126     -0.1979
     47  CA        -6.3180   21.9050   22.6230 C.3   126  ARG126      0.1597
     48  C         -7.7290   22.3560   23.0040 C.2   126  ARG126      0.2287
     49  O         -8.6880   22.0000   22.3070 O.2   126  ARG126     -0.2864
     50  CB        -6.2870   20.3730   22.4250 C.3   126  ARG126      0.0334
     51  CG        -5.0740   19.8450   21.6240 C.3   126  ARG126      0.0492
     52  CD        -4.8450   18.3530   21.8540 C.3   126  ARG126      0.2205
     53  NE        -4.4830   18.0800   23.2510 N.pl3 126  ARG126     -0.0865
     54  CZ        -4.1100   16.8930   23.7310 C.cat 126  ARG126      0.5346
     55  NH1       -4.0250   15.8440   22.9320 N.pl3 126  ARG126      0.1354
     56  NH2       -3.8060   16.7620   25.0170 N.pl3 126  ARG126      0.1354
     57  N        -10.4050   23.2430   20.3950 N.3   129  GLU129     -0.1245
     58  CA       -10.5670   22.3210   19.2430 C.3   129  GLU129      0.1567
     59  C        -12.0320   22.1380   18.8200 C.2   129  GLU129      0.2260
     60  O        -12.3180   22.0660   17.6400 O.2   129  GLU129     -0.2867
     61  CB        -9.8000   20.9890   19.4520 C.3   129  GLU129      0.0388
     62  CG        -9.6960   20.0280   18.2330 C.3   129  GLU129      0.1160
     63  CD       -10.8760   19.0480   18.1060 C.2   129  GLU129      0.3649
     64  OE1      -11.7080   18.9900   19.0380 O.co2 129  GLU129     -0.2457
     65  OE2      -10.9650   18.3020   17.0950 O.co2 129  GLU129     -0.2457
     66  N        -12.3150   24.7330   16.2600 N.3   253  PHE253     -0.1241
     67  CA       -11.6660   25.9880   16.6160 C.3   253  PHE253      0.1605
     68  C        -12.6330   27.1940   16.5870 C.2   253  PHE253      0.2264
     69  O        -12.2010   28.3340   16.5220 O.2   253  PHE253     -0.2867
     70  CB       -10.4070   26.2430   15.7510 C.3   253  PHE253      0.0534
     71  CG        -9.3490   25.1730   15.8850 C.ar  253  PHE253     -0.0203
     72  CD1       -8.5450   25.1080   17.0180 C.ar  253  PHE253     -0.0042
     73  CD2       -9.1580   24.2260   14.8740 C.ar  253  PHE253     -0.0042
     74  CE1       -7.5680   24.1110   17.1510 C.ar  253  PHE253     -0.0003
     75  CE2       -8.1800   23.2180   14.9880 C.ar  253  PHE253     -0.0003
     76  CZ        -7.3880   23.1570   16.1260 C.ar  253  PHE253     -0.0000
     77  N        -12.3550   17.1980    8.3790 N.3   293  LEU293     -0.1231
     78  CA       -11.7030   17.6020    9.6260 C.3   293  LEU293      0.1693
     79  C        -10.9030   18.8880    9.3950 C.2   293  LEU293      0.2592
     80  O        -10.0860   18.9550    8.4700 O.2   293  LEU293     -0.2718
     81  CB       -10.7780   16.4940   10.1680 C.3   293  LEU293      0.0284
     82  CG       -10.0780   16.7410   11.5190 C.3   293  LEU293      0.0019
     83  CD1      -11.0640   16.6020   12.6880 C.3   293  LEU293      0.0001
     84  CD2       -8.8850   15.7990   11.7210 C.3   293  LEU293      0.0001
     85  N        -11.1470   19.8910   10.2440 N.am  294  PHE294     -0.1976
     86  CA       -10.4880   21.2170   10.1890 C.3   294  PHE294      0.1639
     87  C        -10.6410   21.8940    8.8250 C.2   294  PHE294      0.2290
     88  O         -9.7390   22.5810    8.3460 O.2   294  PHE294     -0.2864
     89  CB        -9.0000   21.1750   10.5920 C.3   294  PHE294      0.0560
     90  CG        -8.7250   20.5760   11.9570 C.ar  294  PHE294     -0.0200
     91  CD1       -9.6780   20.6100   12.9740 C.ar  294  PHE294     -0.0042
     92  CD2       -7.4600   20.0590   12.2460 C.ar  294  PHE294     -0.0042
     93  CE1       -9.4040   20.0780   14.2280 C.ar  294  PHE294     -0.0003
     94  CE2       -7.1660   19.5200   13.5040 C.ar  294  PHE294     -0.0003
     95  CZ        -8.1370   19.5360   14.5020 C.ar  294  PHE294     -0.0000
     96  N         -7.5550   24.6890    7.2470 N.3   298  MET298     -0.1245
     97  CA        -6.5320   23.9530    6.4790 C.3   298  MET298      0.1570
     98  C         -6.7660   24.1260    4.9720 C.2   298  MET298      0.2261
     99  O         -7.8660   24.5000    4.5610 O.2   298  MET298     -0.2867
    100  CB        -6.5690   22.4450    6.8170 C.3   298  MET298      0.0387
    101  CG        -6.3330   22.0420    8.2750 C.3   298  MET298      0.0595
    102  SD        -4.6570   22.2720    8.9210 S.3   298  MET298     -0.1393
    103  CE        -3.7050   21.2280    7.8250 C.3   298  MET298      0.0692
    104  N         -8.9950   17.2450    6.4010 N.3   302  LEU302     -0.1245
    105  CA        -8.1680   16.1120    6.7950 C.3   302  LEU302      0.1561
    106  C         -9.0770   14.9090    7.0800 C.2   302  LEU302      0.2260
    107  O        -10.3190   15.0410    7.1400 O.2   302  LEU302     -0.2867
    108  CB        -7.3340   16.4450    8.0310 C.3   302  LEU302      0.0270
    109  CG        -6.5580   17.7740    8.0870 C.3   302  LEU302      0.0019
    110  CD1       -5.8770   17.9400    9.4640 C.3   302  LEU302      0.0001
    111  CD2       -5.5400   17.9050    6.9550 C.3   302  LEU302      0.0001
    112  N         -9.2920   12.0660    9.8710 N.3   304  LEU304     -0.1245
    113  CA        -8.8290   11.6540   11.1920 C.3   304  LEU304      0.1561
    114  C         -8.4730   10.1700   11.2990 C.2   304  LEU304      0.2260
    115  O         -7.3860    9.8520   11.7610 O.2   304  LEU304     -0.2867
    116  CB        -9.7850   12.1310   12.2980 C.3   304  LEU304      0.0270
    117  CG        -9.3900   11.9440   13.7640 C.3   304  LEU304      0.0019
    118  CD1       -7.9950   12.4940   14.0480 C.3   304  LEU304      0.0001
    119  CD2      -10.4320   12.5880   14.6960 C.3   304  LEU304      0.0001
    120  N         -5.1890    9.7330    9.5820 N.3   307  LEU307     -0.1245
    121  CA        -4.1300   10.3320   10.4140 C.3   307  LEU307      0.1561
    122  C         -3.7400    9.4020   11.5680 C.2   307  LEU307      0.2260
    123  O         -2.5440    9.2500   11.8560 O.2   307  LEU307     -0.2867
    124  CB        -4.5410   11.6990   10.9760 C.3   307  LEU307      0.0270
    125  CG        -4.6670   12.8740   10.0010 C.3   307  LEU307      0.0019
    126  CD1       -5.3440   14.0720   10.7080 C.3   307  LEU307      0.0001
    127  CD2       -3.3120   13.2780    9.3840 C.3   307  LEU307      0.0001
    128  N         -0.1140    7.9710   12.0430 N.3   311  ARG311     -0.1245
    129  CA         0.5480    8.2970   13.3110 C.3   311  ARG311      0.1563
    130  C          1.1440    7.0480   13.9640 C.2   311  ARG311      0.2260
    131  O          2.2610    7.0910   14.4960 O.2   311  ARG311     -0.2867
    132  CB        -0.4070    9.0270   14.2800 C.3   311  ARG311      0.0307
    133  CG         0.2530    9.5820   15.5630 C.3   311  ARG311      0.0489
    134  CD         1.2020   10.7510   15.2640 C.3   311  ARG311      0.2205
    135  NE         0.5040   11.7870   14.5110 N.pl3 311  ARG311     -0.0865
    136  CZ         1.0730   12.8420   13.9370 C.cat 311  ARG311      0.5346
    137  NH1        2.3800   13.0480   14.0330 N.pl3 311  ARG311      0.1354
    138  NH2        0.3160   13.7010   13.2650 N.pl3 311  ARG311      0.1354
@<TRIPOS>BOND
     1     4     3    2
     2     3     2    1
     3    16    10    1
     4    16    15    1
     5    99    98    2
     6    10    11    1
     7    15    14    1
     8    98    97    1
     9    11    14    1
    10    11    12    1
    11     2     1    1
    12     2     5    1
    13   104   105    1
    14    97   100    1
    15    97    96    1
    16    12    17   am
    17    12    13    2
    18     5     6    1
    19   105   106    1
    20   105   108    1
    21   100   101    1
    22   111   109    1
    23   106   107    2
    24    17    18    1
    25   103   102    1
    26    20    19    2
    27    21    18    1
    28    21    22    1
    29   108   109    1
    30   109   110    1
    31     6     7    1
    32   101   102    1
    33    18    19    1
    34    88    87    2
    35    77    78    1
    36    80    79    2
    37    19    28   am
    38    87    86    1
    39     8     7   ar
    40    22    23   ar
    41    22    24   ar
    42     7     9   ar
    43   127   125    1
    44    79    78    1
    45    79    85   am
    46    23    25   ar
    47   120   121    1
    48    78    81    1
    49    24    26   ar
    50   112   113    1
    51   125   126    1
    52   125   124    1
    53    28    29    1
    54    38    37   ar
    55    38    36   ar
    56    81    82    1
    57    86    85    1
    58    86    89    1
    59    37    35   ar
    60    36    34   ar
    61   121   124    1
    62   121   122    1
    63    25    27   ar
    64    89    90    1
    65    29    30    1
    66    29    32    1
    67    35    33   ar
    68    34    33   ar
    69    26    27   ar
    70    33    32    1
    71   113   114    1
    72   113   116    1
    73   114   115    2
    74    30    31    2
    75    82    84    1
    76    82    83    1
    77   122   123    2
    78    90    92   ar
    79    90    91   ar
    80   128   129    1
    81    92    94   ar
    82   116   117    1
    83    91    93   ar
    84   138   136    1
    85   129   130    1
    86   129   132    1
    87    94    95   ar
    88   117   118    1
    89   117   119    1
    90   136   137    1
    91   136   135    2
    92   130   131    2
    93    93    95   ar
    94   132   133    1
    95   135   134    1
    96    73    75   ar
    97    73    71   ar
    98    75    76   ar
    99   134   133    1
   100    70    71    1
   101    70    67    1
   102    71    72   ar
   103    76    74   ar
   104    66    67    1
   105    69    68    2
   106    68    67    1
   107    72    74   ar
   108    65    63   ar
   109    60    59    2
   110    63    62    1
   111    63    64   ar
   112    62    61    1
   113    59    58    1
   114    58    61    1
   115    58    57    1
   116    51    52    1
   117    51    50    1
   118    52    53    1
   119    42    41    2
   120    49    48    2
   121    50    47    1
   122    47    48    1
   123    47    46    1
   124    44    43    1
   125    55    54    1
   126    41    46   am
   127    41    40    1
   128    53    54    2
   129    43    45    1
   130    43    40    1
   131    54    56    1
   132    40    39    1
