@<TRIPOS>MOLECULE
tmp/3zs0C05.pdb
 80 77 0 0 0
SMALL
GASTEIGER

@<TRIPOS>ATOM
      1  N        -11.1970   -7.5400   35.5520 N.3   195  LYS195     -0.1231
      2  CA        -9.8780   -8.0930   35.2500 C.3   195  LYS195      0.1693
      3  C         -8.7560   -7.0560   35.3160 C.2   195  LYS195      0.2592
      4  O         -7.7710   -7.2650   36.0220 O.2   195  LYS195     -0.2718
      5  CB        -9.8570   -8.8110   33.8910 C.3   195  LYS195      0.0285
      6  CG        -8.4520   -9.2440   33.4780 C.3   195  LYS195      0.0035
      7  CD        -8.3850   -9.9580   32.1300 C.3   195  LYS195      0.0206
      8  CE        -8.8020  -11.4250   32.1980 C.3   195  LYS195      0.1093
      9  NZ        -8.5350  -12.0930   30.8700 N.3   195  LYS195     -0.1314
     10  N         -8.9030   -5.9390   34.6010 N.am  196  TYR196     -0.1976
     11  CA        -7.8130   -4.9440   34.5390 C.3   196  TYR196      0.1639
     12  C         -7.8240   -3.8890   35.6390 C.2   196  TYR196      0.2290
     13  O         -6.8080   -3.2450   35.8880 O.2   196  TYR196     -0.2864
     14  CB        -7.7120   -4.3120   33.1480 C.3   196  TYR196      0.0560
     15  CG        -7.6010   -5.3470   32.0470 C.ar  196  TYR196     -0.0198
     16  CD1       -6.4060   -6.0490   31.8300 C.ar  196  TYR196     -0.0009
     17  CD2       -8.6900   -5.6440   31.2440 C.ar  196  TYR196     -0.0009
     18  CE1       -6.3120   -7.0250   30.8310 C.ar  196  TYR196      0.0417
     19  CE2       -8.6080   -6.6110   30.2400 C.ar  196  TYR196      0.0417
     20  CZ        -7.4180   -7.2950   30.0390 C.ar  196  TYR196      0.1957
     21  OH        -7.3500   -8.2440   29.0440 O.3   196  TYR196     -0.2866
     22  N          0.8380   -8.5400   17.1000 N.3   322  ALA322     -0.1245
     23  CA         1.8420   -8.3030   18.1440 C.3   322  ALA322      0.1562
     24  C          1.1670   -7.7940   19.4170 C.2   322  ALA322      0.2260
     25  O          1.5350   -8.1960   20.5350 O.2   322  ALA322     -0.2867
     26  CB         2.9220   -7.3270   17.6720 C.3   322  ALA322      0.0290
     27  N         -0.7900  -10.6590   20.9160 N.3   325  ARG325     -0.1231
     28  CA         0.1440  -11.5210   21.6260 C.3   325  ARG325      0.1694
     29  C          0.5390  -10.8980   22.9730 C.2   325  ARG325      0.2592
     30  O          0.5530  -11.5800   24.0070 O.2   325  ARG325     -0.2718
     31  CB         1.3790  -11.7810   20.7490 C.3   325  ARG325      0.0321
     32  CG         2.3950  -12.8200   21.3130 C.3   325  ARG325      0.0489
     33  CD         3.5630  -13.0400   20.3230 C.3   325  ARG325      0.2205
     34  NE         3.0410  -13.3440   18.9850 N.pl3 325  ARG325     -0.0865
     35  CZ         3.1500  -12.5630   17.9150 C.cat 325  ARG325      0.5346
     36  NH1        3.8340  -11.4230   17.9610 N.pl3 325  ARG325      0.1354
     37  NH2        2.5920  -12.9460   16.7820 N.pl3 325  ARG325      0.1354
     38  N          0.8250   -9.5980   22.9620 N.am  326  PHE326     -0.1962
     39  CA         1.1760   -8.8700   24.1790 C.3   326  PHE326      0.1771
     40  C          0.0440   -8.9340   25.2100 C.2   326  PHE326      0.2620
     41  O          0.2950   -8.9760   26.4090 O.2   326  PHE326     -0.2715
     42  CB         1.4960   -7.4090   23.8410 C.3   326  PHE326      0.0574
     43  CG         1.5680   -6.5010   25.0460 C.ar  326  PHE326     -0.0200
     44  CD1        2.7540   -6.3560   25.7610 C.ar  326  PHE326     -0.0042
     45  CD2        0.4490   -5.7870   25.4520 C.ar  326  PHE326     -0.0042
     46  CE1        2.8210   -5.5120   26.8630 C.ar  326  PHE326     -0.0003
     47  CE2        0.5040   -4.9310   26.5520 C.ar  326  PHE326     -0.0003
     48  CZ         1.6790   -4.8020   27.2670 C.ar  326  PHE326     -0.0000
     49  N         -1.1910   -8.8900   24.7370 N.am  327  CYS327     -0.1954
     50  CA        -2.3660   -8.9540   25.6030 C.3   327  CYS327      0.1843
     51  C         -2.7940  -10.3850   25.9690 C.2   327  CYS327      0.2626
     52  O         -3.7730  -10.5710   26.6940 O.2   327  CYS327     -0.2714
     53  CB        -3.5290   -8.1910   24.9670 C.3   327  CYS327      0.0997
     54  SG        -3.4340   -6.4040   25.2060 S.3   327  CYS327     -0.0797
     55  N         -2.0530  -11.3880   25.4910 N.am  328  GLY328     -0.1954
     56  CA        -2.3850  -12.7910   25.7550 C.3   328  GLY328      0.1869
     57  C         -3.6480  -13.2490   25.0420 C.2   328  GLY328      0.2309
     58  O         -4.3630  -14.1230   25.5330 O.2   328  GLY328     -0.2863
     59  N         -7.9010   -4.3510   26.9250 N.3   384  CYS384     -0.1235
     60  CA        -6.6310   -4.7170   27.5800 C.3   384  CYS384      0.1677
     61  C         -5.6640   -3.5330   27.6570 C.2   384  CYS384      0.2270
     62  O         -5.1490   -3.2040   28.7220 O.2   384  CYS384     -0.2867
     63  CB        -5.9920   -5.8910   26.8280 C.3   384  CYS384      0.0956
     64  SG        -4.2210   -6.1660   27.1390 S.3   384  CYS384     -0.0801
     65  N         -5.1980   -1.7400   31.1870 N.3   388  THR388     -0.1218
     66  CA        -3.8220   -1.8320   31.7220 C.3   388  THR388      0.1862
     67  C         -3.2330   -0.4530   32.0100 C.2   388  THR388      0.2287
     68  O         -2.6100   -0.2520   33.0480 O.2   388  THR388     -0.2866
     69  CB        -2.8750   -2.5920   30.7440 C.3   388  THR388      0.1770
     70  OG1       -3.3950   -3.9060   30.5090 O.3   388  THR388     -0.2211
     71  CG2       -1.4550   -2.6960   31.3050 C.3   388  THR388      0.0375
     72  N         -2.1850    1.2980   35.9310 N.3   392  LYS392     -0.1245
     73  CA        -0.8700    1.8700   36.2180 C.3   392  LYS392      0.1561
     74  C         -0.9410    3.3210   36.6870 C.2   392  LYS392      0.2260
     75  O         -0.1630    3.7390   37.5500 O.2   392  LYS392     -0.2867
     76  CB         0.0450    1.7390   35.0010 C.3   392  LYS392      0.0271
     77  CG         0.5680    0.3210   34.7950 C.3   392  LYS392      0.0035
     78  CD         1.2440    0.1860   33.4570 C.3   392  LYS392      0.0206
     79  CE         1.7670   -1.2220   33.2530 C.3   392  LYS392      0.1093
     80  NZ         3.1530   -1.4080   33.7730 N.3   392  LYS392     -0.1314
@<TRIPOS>BOND
     1    37    35    1
     2    22    23    1
     3    26    23    1
     4    35    36    1
     5    35    34    2
     6    23    24    1
     7    34    33    1
     8    24    25    2
     9    33    32    1
    10    31    32    1
    11    31    28    1
    12    27    28    1
    13    28    29    1
    14    38    29   am
    15    38    39    1
    16    29    30    2
    17    42    39    1
    18    42    43    1
    19    39    40    1
    20    49    40   am
    21    49    50    1
    22    53    54    1
    23    53    50    1
    24    57    58    2
    25    57    56    1
    26    43    45   ar
    27    43    44   ar
    28    54    64    1
    29    40    41    2
    30    45    47   ar
    31    55    56    1
    32    55    51   am
    33    50    51    1
    34    44    46   ar
    35    51    52    2
    36    47    48   ar
    37    63    64    1
    38    63    60    1
    39    46    48   ar
    40    59    60    1
    41    60    61    1
    42    61    62    2
    43    21    20    1
    44    20    19   ar
    45    20    18   ar
    46    19    17   ar
    47    70    69    1
    48    69    71    1
    49    69    66    1
    50    18    16   ar
    51     9     8    1
    52    65    66    1
    53    17    15   ar
    54    66    67    1
    55    16    15   ar
    56    67    68    2
    57    15    14    1
    58     7     8    1
    59     7     6    1
    60    14    11    1
    61    79    78    1
    62    79    80    1
    63    78    77    1
    64     6     5    1
    65     5     2    1
    66    11    10    1
    67    11    12    1
    68    10     3   am
    69    77    76    1
    70    76    73    1
    71     2     3    1
    72     2     1    1
    73     3     4    2
    74    12    13    2
    75    72    73    1
    76    73    74    1
    77    74    75    2
