@<TRIPOS>MOLECULE
tmp/3zs1D01.pdb
 127 119 0 0 0
SMALL
GASTEIGER

@<TRIPOS>ATOM
      1  N         41.7830   10.1720   34.4720 N.3     4  GLU4       -0.1245
      2  CA        42.9240    9.3240   34.7720 C.3     4  GLU4        0.1567
      3  C         43.9290    9.9960   35.7220 C.2     4  GLU4        0.2260
      4  O         44.5610    9.3230   36.5340 O.2     4  GLU4       -0.2867
      5  CB        43.5740    8.8600   33.4570 C.3     4  GLU4        0.0388
      6  CG        44.7810    7.9020   33.5630 C.3     4  GLU4        0.1160
      7  CD        44.5770    6.6840   34.4760 C.2     4  GLU4        0.3649
      8  OE1       43.4540    6.1070   34.5050 O.co2   4  GLU4       -0.2457
      9  OE2       45.5690    6.3010   35.1500 O.co2   4  GLU4       -0.2457
     10  N         40.2160    6.4100   39.7980 N.3    33  PRO33      -0.2116
     11  CA        39.7050    6.9770   38.5450 C.3    33  PRO33       0.1372
     12  C         38.4650    6.2440   38.0440 C.2    33  PRO33       0.2244
     13  O         38.3230    5.0360   38.2700 O.2    33  PRO33      -0.2868
     14  CB        40.8570    6.7500   37.5650 C.3    33  PRO33       0.0268
     15  CG        42.0730    6.6370   38.4310 C.3    33  PRO33       0.0207
     16  CD        41.5980    5.9170   39.6460 C.3    33  PRO33       0.0892
     17  N         35.5240    6.7180   34.5920 N.3    35  PHE35      -0.1241
     18  CA        34.8750    7.3930   33.4640 C.3    35  PHE35       0.1605
     19  C         33.4210    6.9380   33.3870 C.2    35  PHE35       0.2264
     20  O         33.1630    5.7380   33.2400 O.2    35  PHE35      -0.2867
     21  CB        35.5510    7.0230   32.1410 C.3    35  PHE35       0.0534
     22  CG        36.9710    7.5080   31.9960 C.ar   35  PHE35      -0.0203
     23  CD1       38.0370    6.7970   32.5660 C.ar   35  PHE35      -0.0042
     24  CD2       37.2580    8.6370   31.2230 C.ar   35  PHE35      -0.0042
     25  CE1       39.3590    7.2300   32.4000 C.ar   35  PHE35      -0.0003
     26  CE2       38.5820    9.0790   31.0500 C.ar   35  PHE35      -0.0003
     27  CZ        39.6310    8.3730   31.6380 C.ar   35  PHE35      -0.0000
     28  N         37.7270   -5.6660   22.1090 N.3   125  THR125     -0.1203
     29  CA        38.9050   -4.8670   22.4870 C.3   125  THR125      0.1994
     30  C         39.6230   -5.3150   23.7710 C.2   125  THR125      0.2617
     31  O         40.6500   -4.7450   24.1270 O.2   125  THR125     -0.2717
     32  CB        38.5680   -3.3420   22.6070 C.3   125  THR125      0.1784
     33  OG1       37.8940   -3.0760   23.8470 O.3   125  THR125     -0.2211
     34  CG2       37.7220   -2.8510   21.4380 C.3   125  THR125      0.0376
     35  N         39.0930   -6.3250   24.4550 N.am  126  ARG126     -0.1979
     36  CA        39.5970   -6.7140   25.7770 C.3   126  ARG126      0.1597
     37  C         40.3550   -8.0350   25.8120 C.2   126  ARG126      0.2287
     38  O         40.6110   -8.5550   26.9020 O.2   126  ARG126     -0.2864
     39  CB        38.4490   -6.7800   26.7830 C.3   126  ARG126      0.0334
     40  CG        37.7250   -5.4570   26.9990 C.3   126  ARG126      0.0492
     41  CD        36.3950   -5.6490   27.7090 C.3   126  ARG126      0.2205
     42  NE        35.4440   -6.4070   26.8990 N.pl3 126  ARG126     -0.0865
     43  CZ        34.1560   -6.5530   27.1900 C.cat 126  ARG126      0.5346
     44  NH1       33.6440   -5.9960   28.2790 N.pl3 126  ARG126      0.1354
     45  NH2       33.3770   -7.2560   26.3830 N.pl3 126  ARG126      0.1354
     46  N         43.4440   -8.5400   28.2440 N.3   129  GLU129     -0.1245
     47  CA        43.2860   -8.1150   29.6630 C.3   129  GLU129      0.1567
     48  C         43.9430   -9.0450   30.6730 C.2   129  GLU129      0.2260
     49  O         44.5300   -8.5800   31.6500 O.2   129  GLU129     -0.2867
     50  CB        41.8150   -7.8480   30.0500 C.3   129  GLU129      0.0388
     51  CG        41.5990   -7.1960   31.4710 C.3   129  GLU129      0.1160
     52  CD        41.1900   -8.1960   32.5800 C.2   129  GLU129      0.3649
     53  OE1       41.1160   -9.3980   32.2570 O.co2 129  GLU129     -0.2457
     54  OE2       40.9260   -7.8080   33.7700 O.co2 129  GLU129     -0.2457
     55  N         47.0370   -7.2560   31.1940 N.3   253  PHE253     -0.1241
     56  CA        47.6040   -6.7540   29.9380 C.3   253  PHE253      0.1605
     57  C         49.0360   -7.2380   29.6470 C.2   253  PHE253      0.2264
     58  O         49.7480   -6.6290   28.8540 O.2   253  PHE253     -0.2867
     59  CB        47.4850   -5.2260   29.8380 C.3   253  PHE253      0.0534
     60  CG        46.0680   -4.7360   29.8060 C.ar  253  PHE253     -0.0203
     61  CD1       45.3270   -4.7840   28.6310 C.ar  253  PHE253     -0.0042
     62  CD2       45.4640   -4.2360   30.9560 C.ar  253  PHE253     -0.0042
     63  CE1       44.0110   -4.3430   28.6030 C.ar  253  PHE253     -0.0003
     64  CE2       44.1480   -3.7870   30.9310 C.ar  253  PHE253     -0.0003
     65  CZ        43.4250   -3.8410   29.7560 C.ar  253  PHE253     -0.0000
     66  N         44.2480   -3.9070   40.8740 N.3   293  LEU293     -0.1231
     67  CA        43.7370   -4.0990   39.5130 C.3   293  LEU293      0.1693
     68  C         44.4010   -3.1050   38.5810 C.2   293  LEU293      0.2592
     69  O         44.3530   -1.8910   38.8160 O.2   293  LEU293     -0.2718
     70  CB        42.2030   -3.9560   39.4410 C.3   293  LEU293      0.0284
     71  CG        41.5350   -4.2340   38.0820 C.3   293  LEU293      0.0019
     72  CD1       41.5240   -5.7210   37.7330 C.3   293  LEU293      0.0001
     73  CD2       40.1350   -3.6820   38.0630 C.3   293  LEU293      0.0001
     74  N         45.0250   -3.6490   37.5350 N.am  294  PHE294     -0.1976
     75  CA        45.7570   -2.8720   36.5280 C.3   294  PHE294      0.1639
     76  C         46.8610   -1.9920   37.1570 C.2   294  PHE294      0.2290
     77  O         47.0510   -0.8320   36.7680 O.2   294  PHE294     -0.2864
     78  CB        44.7950   -2.0330   35.6440 C.3   294  PHE294      0.0560
     79  CG        43.6720   -2.8200   34.9960 C.ar  294  PHE294     -0.0200
     80  CD1       43.8250   -4.1660   34.6520 C.ar  294  PHE294     -0.0042
     81  CD2       42.4620   -2.1990   34.7200 C.ar  294  PHE294     -0.0042
     82  CE1       42.7880   -4.8770   34.0500 C.ar  294  PHE294     -0.0003
     83  CE2       41.4240   -2.8970   34.1240 C.ar  294  PHE294     -0.0003
     84  CZ        41.5860   -4.2420   33.7820 C.ar  294  PHE294     -0.0000
     85  N         48.7130    1.7270   34.9800 N.3   298  MET298     -0.1245
     86  CA        48.2240    3.0620   35.3880 C.3   298  MET298      0.1570
     87  C         48.7350    3.5570   36.7510 C.2   298  MET298      0.2261
     88  O         49.4160    2.8180   37.4710 O.2   298  MET298     -0.2867
     89  CB        46.6970    3.1510   35.3090 C.3   298  MET298      0.0387
     90  CG        45.9340    2.1660   36.1870 C.3   298  MET298      0.0595
     91  SD        44.1600    2.3690   35.9350 S.3   298  MET298     -0.1393
     92  CE        43.8800    3.8690   36.8690 C.3   298  MET298      0.0692
     93  N         43.5580   -0.2550   40.9610 N.3   302  LEU302     -0.1245
     94  CA        42.1030   -0.1160   41.0210 C.3   302  LEU302      0.1561
     95  C         41.4430   -1.1120   42.0020 C.2   302  LEU302      0.2260
     96  O         42.0780   -2.0780   42.4500 O.2   302  LEU302     -0.2867
     97  CB        41.5060   -0.2850   39.6180 C.3   302  LEU302      0.0270
     98  CG        41.9190    0.6870   38.5120 C.3   302  LEU302      0.0019
     99  CD1       41.2770    0.2590   37.2030 C.3   302  LEU302      0.0001
    100  CD2       41.5130    2.0980   38.8390 C.3   302  LEU302      0.0001
    101  N         38.2450   -3.4080   41.7690 N.3   304  LEU304     -0.1245
    102  CA        37.1700   -3.9680   40.9280 C.3   304  LEU304      0.1561
    103  C         35.7560   -3.9910   41.5900 C.2   304  LEU304      0.2260
    104  O         34.8300   -3.3960   41.0340 O.2   304  LEU304     -0.2867
    105  CB        37.5670   -5.3320   40.3290 C.3   304  LEU304      0.0270
    106  CG        36.7260   -5.8880   39.1700 C.3   304  LEU304      0.0019
    107  CD1       36.4690   -4.8420   38.1020 C.3   304  LEU304      0.0001
    108  CD2       37.3680   -7.1210   38.5500 C.3   304  LEU304      0.0001
    109  N         34.4030   -0.5490   41.7750 N.3   307  LEU307     -0.1245
    110  CA        34.0360   -0.0770   40.4420 C.3   307  LEU307      0.1561
    111  C         32.6670   -0.6060   40.0310 C.2   307  LEU307      0.2260
    112  O         31.8460    0.1420   39.4810 O.2   307  LEU307     -0.2867
    113  CB        35.0980   -0.4560   39.3990 C.3   307  LEU307      0.0270
    114  CG        36.4830    0.2150   39.4580 C.3   307  LEU307      0.0019
    115  CD1       37.3940   -0.3710   38.3870 C.3   307  LEU307      0.0001
    116  CD2       36.3950    1.7270   39.3210 C.3   307  LEU307      0.0001
    117  N         29.7320    1.6520   39.1070 N.3   311  ARG311     -0.1245
    118  CA        29.1410    1.4870   37.7750 C.3   311  ARG311      0.1563
    119  C         27.6000    1.3820   37.7970 C.2   311  ARG311      0.2260
    120  O         26.9170    2.0120   36.9660 O.2   311  ARG311     -0.2867
    121  CB        29.7670    0.2990   37.0340 C.3   311  ARG311      0.0307
    122  CG        29.3870    0.1790   35.5430 C.3   311  ARG311      0.0489
    123  CD        29.9550    1.3190   34.6850 C.3   311  ARG311      0.2205
    124  NE        31.4110    1.4350   34.7980 N.pl3 311  ARG311     -0.0865
    125  CZ        32.1220    2.4740   34.3740 C.cat 311  ARG311      0.5346
    126  NH1       31.5180    3.5140   33.8110 N.pl3 311  ARG311      0.1354
    127  NH2       33.4400    2.4840   34.5270 N.pl3 311  ARG311      0.1354
@<TRIPOS>BOND
     1    34    32    1
     2    28    29    1
     3    29    32    1
     4    29    30    1
     5    32    33    1
     6    30    31    2
     7    30    35   am
     8    35    36    1
     9    36    37    1
    10    36    39    1
    11    37    38    2
    12    45    43    1
    13    39    40    1
    14    42    43    2
    15    42    41    1
    16    40    41    1
    17    43    44    1
    18    46    47    1
    19    63    61   ar
    20    63    65   ar
    21    61    60   ar
    22    58    57    2
    23    57    56    1
    24    47    50    1
    25    47    48    1
    26    65    64   ar
    27    60    59    1
    28    60    62   ar
    29    59    56    1
    30    56    55    1
    31    50    51    1
    32    48    49    2
    33    64    62   ar
    34    26    24   ar
    35    26    27   ar
    36    24    22   ar
    37    51    52    1
    38    27    25   ar
    39    22    21    1
    40    22    23   ar
    41    21    18    1
    42    53    52   ar
    43    25    23   ar
    44    52    54   ar
    45    20    19    2
    46    19    18    1
    47     5     6    1
    48     5     2    1
    49    18    17    1
    50     6     7    1
    51    84    82   ar
    52    84    83   ar
    53   126   125    1
    54    82    80   ar
    55    83    81   ar
    56   125   127    1
    57   125   124    2
    58     1     2    1
    59     7     8   ar
    60     7     9   ar
    61    80    79   ar
    62   123   124    1
    63   123   122    1
    64    81    79   ar
    65     2     3    1
    66    85    86    1
    67    79    78    1
    68    89    86    1
    69    89    90    1
    70    86    87    1
    71   122   121    1
    72    78    75    1
    73     3     4    2
    74    91    90    1
    75    91    92    1
    76    75    76    1
    77    75    74    1
    78    87    88    2
    79    77    76    2
    80   120   119    2
    81   121   118    1
    82    99    98    1
    83    74    68   am
    84    14    15    1
    85    14    11    1
    86    72    71    1
    87   118   119    1
    88   118   117    1
    89    12    13    2
    90    12    11    1
    91    73    71    1
    92    71    70    1
    93   107   106    1
    94   115   114    1
    95    15    16    1
    96    98   100    1
    97    98    97    1
    98    11    10    1
    99   108   106    1
   100    68    69    2
   101    68    67    1
   102   106   105    1
   103   116   114    1
   104   113   114    1
   105   113   110    1
   106    70    67    1
   107   112   111    2
   108    67    66    1
   109    97    94    1
   110    16    10    1
   111   111   110    1
   112   105   102    1
   113   110   109    1
   114   102   103    1
   115   102   101    1
   116    93    94    1
   117    94    95    1
   118   104   103    2
   119    95    96    2
