@<TRIPOS>MOLECULE
tmp/3zs5A02.pdb
 129 121 0 0 0
SMALL
GASTEIGER

@<TRIPOS>ATOM
      1  N         23.0490   22.6910   26.8890 N.3    70  ARG70      -0.1245
      2  CA        21.6610   22.7820   26.4220 C.3    70  ARG70       0.1563
      3  C         21.5790   23.4780   25.0580 C.2    70  ARG70       0.2260
      4  O         20.8790   23.0380   24.1550 O.2    70  ARG70      -0.2867
      5  CB        20.8210   23.5620   27.4360 C.3    70  ARG70       0.0307
      6  CG        19.3660   23.7750   26.9960 C.3    70  ARG70       0.0489
      7  CD        18.5580   24.6260   27.9780 C.3    70  ARG70       0.2205
      8  NE        18.4440   23.9320   29.2570 N.pl3  70  ARG70      -0.0865
      9  CZ        18.9400   24.3490   30.4140 C.cat  70  ARG70       0.5346
     10  NH1       19.5770   25.5160   30.5210 N.pl3  70  ARG70       0.1354
     11  NH2       18.7910   23.5810   31.4990 N.pl3  70  ARG70       0.1354
     12  N         20.5470   21.7010   21.5460 N.3    74  LEU74      -0.1245
     13  CA        19.3670   22.1880   20.8270 C.3    74  LEU74       0.1561
     14  C         19.7210   22.5910   19.4080 C.2    74  LEU74       0.2260
     15  O         19.0550   22.1720   18.4550 O.2    74  LEU74      -0.2867
     16  CB        18.7560   23.3810   21.5640 C.3    74  LEU74       0.0270
     17  CG        17.5100   23.9980   20.9150 C.3    74  LEU74       0.0019
     18  CD1       16.3590   23.0040   20.8250 C.3    74  LEU74       0.0001
     19  CD2       17.0670   25.2280   21.7380 C.3    74  LEU74       0.0001
     20  N         18.2510   20.8390   15.8070 N.3    78  MET78      -0.1245
     21  CA        17.2730   21.5760   15.0050 C.3    78  MET78       0.1570
     22  C         17.7250   21.6070   13.5390 C.2    78  MET78       0.2261
     23  O         18.6440   22.3470   13.1630 O.2    78  MET78      -0.2867
     24  CB        17.0660   23.0000   15.5310 C.3    78  MET78       0.0387
     25  CG        16.3850   23.0980   16.9020 C.3    78  MET78       0.0595
     26  SD        14.7010   22.4830   16.9190 S.3    78  MET78      -0.1393
     27  CE        14.9610   20.8120   17.5370 C.3    78  MET78       0.0692
     28  N         13.5070   26.9030   11.1860 N.3    83  VAL83      -0.1231
     29  CA        14.0490   26.9460   12.5560 C.3    83  VAL83       0.1692
     30  C         15.5570   27.2390   12.4640 C.2    83  VAL83       0.2591
     31  O         16.2250   26.7420   11.5720 O.2    83  VAL83      -0.2718
     32  CB        13.7850   25.6190   13.3110 C.3    83  VAL83       0.0266
     33  CG1       14.3040   25.6870   14.7810 C.3    83  VAL83       0.0020
     34  CG2       12.2810   25.2560   13.2380 C.3    83  VAL83       0.0020
     35  N         16.0880   28.0660   13.3670 N.am   84  ILE84      -0.1980
     36  CA        17.5400   28.2830   13.4090 C.3    84  ILE84       0.1595
     37  C         18.2470   26.9280   13.5220 C.2    84  ILE84       0.2287
     38  O         17.7980   26.0400   14.2530 O.2    84  ILE84      -0.2864
     39  CB        17.9390   29.1920   14.5930 C.3    84  ILE84       0.0276
     40  CG1       19.4520   29.4670   14.5720 C.3    84  ILE84       0.0022
     41  CG2       17.4670   28.6180   15.9110 C.3    84  ILE84       0.0022
     42  CD1       19.9140   30.5320   15.6000 C.3    84  ILE84       0.0001
     43  N          9.3670   21.9070   15.8990 N.3   141  ILE141     -0.1245
     44  CA         9.8050   22.1350   17.2860 C.3   141  ILE141      0.1561
     45  C          8.9800   21.3060   18.2810 C.2   141  ILE141      0.2260
     46  O          9.5230   20.5880   19.1360 O.2   141  ILE141     -0.2867
     47  CB         9.7720   23.6460   17.6200 C.3   141  ILE141      0.0252
     48  CG1       10.8270   24.4260   16.7970 C.3   141  ILE141      0.0019
     49  CG2        9.9070   23.8930   19.1370 C.3   141  ILE141      0.0019
     50  CD1       10.5790   25.9280   16.7840 C.3   141  ILE141      0.0001
     51  N          9.4360   20.1170   22.5270 N.3   146  ILE146     -0.1231
     52  CA         9.9300   21.4110   22.9530 C.3   146  ILE146      0.1692
     53  C          8.7970   22.4170   22.8130 C.2   146  ILE146      0.2592
     54  O          8.0210   22.3320   21.8650 O.2   146  ILE146     -0.2718
     55  CB        11.0800   21.8880   22.0420 C.3   146  ILE146      0.0266
     56  CG1       12.3110   20.9850   22.2110 C.3   146  ILE146      0.0019
     57  CG2       11.4180   23.3480   22.3150 C.3   146  ILE146      0.0020
     58  CD1       13.3090   21.1010   21.0480 C.3   146  ILE146      0.0001
     59  N          8.7050   23.3320   23.7740 N.am  147  ILE147     -0.1966
     60  CA         7.7710   24.4670   23.7280 C.3   147  ILE147      0.1727
     61  C          8.6220   25.7330   23.7350 C.2   147  ILE147      0.2616
     62  O          9.5340   25.8690   24.5600 O.2   147  ILE147     -0.2715
     63  CB         6.8040   24.4520   24.9310 C.3   147  ILE147      0.0290
     64  CG1        6.0490   23.1050   25.0130 C.3   147  ILE147      0.0022
     65  CG2        5.8450   25.6400   24.8230 C.3   147  ILE147      0.0023
     66  CD1        5.0420   22.9680   26.1780 C.3   147  ILE147      0.0001
     67  N          8.3640   26.6550   22.8040 N.am  148  HIS148     -0.1959
     68  CA         9.1520   27.8970   22.7330 C.3   148  HIS148      0.1787
     69  C          8.8910   28.7560   23.9710 C.2   148  HIS148      0.2620
     70  O          9.8400   29.1860   24.6310 O.2   148  HIS148     -0.2715
     71  CB         8.8200   28.6670   21.4440 C.3   148  HIS148      0.0785
     72  CG         9.6830   29.8650   21.2020 C.ar  148  HIS148      0.0821
     73  ND1        9.6860   30.9590   22.0380 N.ar  148  HIS148     -0.2267
     74  CD2       10.5760   30.1330   20.2190 C.ar  148  HIS148      0.1154
     75  CE1       10.5480   31.8540   21.5780 C.ar  148  HIS148      0.1986
     76  NE2       11.1020   31.3740   20.4770 N.ar  148  HIS148     -0.2212
     77  N          7.6050   28.9970   24.2560 N.am  149  ARG149     -0.1977
     78  CA         7.1010   29.7190   25.4410 C.3   149  ARG149      0.1597
     79  C          7.1820   31.2390   25.3900 C.2   149  ARG149      0.2287
     80  O          6.6330   31.9060   26.2730 O.2   149  ARG149     -0.2864
     81  CB         7.7710   29.2340   26.7550 C.3   149  ARG149      0.0334
     82  CG         7.4730   27.8300   27.1410 C.3   149  ARG149      0.0492
     83  CD         8.0030   27.5730   28.5620 C.3   149  ARG149      0.2205
     84  NE         7.9130   26.1700   28.9700 N.pl3 149  ARG149     -0.0865
     85  CZ         8.0330   25.7290   30.2270 C.cat 149  ARG149      0.5346
     86  NH1        8.2420   26.5730   31.2370 N.pl3 149  ARG149      0.1354
     87  NH2        7.9430   24.4250   30.4810 N.pl3 149  ARG149      0.1354
     88  N         12.3520   30.5570   12.9790 N.3   166  ILE166     -0.1231
     89  CA        12.0910   30.7460   14.4030 C.3   166  ILE166      0.1692
     90  C         13.4050   30.7290   15.1740 C.2   166  ILE166      0.2592
     91  O         14.2040   29.8250   14.9920 O.2   166  ILE166     -0.2718
     92  CB        11.1470   29.6350   14.9340 C.3   166  ILE166      0.0266
     93  CG1        9.8020   29.6880   14.2150 C.3   166  ILE166      0.0019
     94  CG2       10.9400   29.7680   16.4510 C.3   166  ILE166      0.0020
     95  CD1        8.8820   28.5040   14.4670 C.3   166  ILE166      0.0001
     96  N         13.6020   31.7460   16.0190 N.am  167  LEU167     -0.1966
     97  CA        14.7670   31.8870   16.8870 C.3   167  LEU167      0.1728
     98  C         14.3350   31.8050   18.3530 C.2   167  LEU167      0.2616
     99  O         13.1510   31.8350   18.6490 O.2   167  LEU167     -0.2715
    100  CB        15.4070   33.2600   16.6650 C.3   167  LEU167      0.0311
    101  CG        15.6030   33.7690   15.2330 C.3   167  LEU167      0.0022
    102  CD1       16.1660   35.1970   15.2770 C.3   167  LEU167      0.0001
    103  CD2       16.5160   32.8640   14.4200 C.3   167  LEU167      0.0001
    104  N         15.2980   31.7610   19.2720 N.am  168  ASP168     -0.1971
    105  CA        14.9760   31.9530   20.6950 C.3   168  ASP168      0.1709
    106  C         15.7630   33.1180   21.2970 C.2   168  ASP168      0.2293
    107  O         16.1400   33.1080   22.4650 O.2   168  ASP168     -0.2864
    108  CB        15.1600   30.6620   21.4960 C.3   168  ASP168      0.1436
    109  CG        16.5600   30.1020   21.4000 C.2   168  ASP168      0.3671
    110  OD1       17.3310   30.5360   20.5100 O.co2 168  ASP168     -0.2456
    111  OD2       16.8750   29.2110   22.2160 O.co2 168  ASP168     -0.2456
    112  N         16.0610   14.6970   25.9920 N.3   313  GLN313     -0.1245
    113  CA        16.2470   15.8060   26.9150 C.3   313  GLN313      0.1566
    114  C         16.4350   15.3160   28.3470 C.2   313  GLN313      0.2260
    115  O         16.2370   16.0910   29.2910 O.2   313  GLN313     -0.2867
    116  CB        15.0470   16.7500   26.8750 C.3   313  GLN313      0.0367
    117  CG        14.8780   17.4650   25.5710 C.3   313  GLN313      0.0905
    118  CD        13.7250   18.4570   25.6110 C.2   313  GLN313      0.2608
    119  OE1       13.8730   19.5630   26.1320 O.2   313  GLN313     -0.2717
    120  NE2       12.5730   18.0580   25.0690 N.am  313  GLN313     -0.0878
    121  N         18.1730   17.3080   31.1690 N.3   316  GLU316     -0.1245
    122  CA        17.5140   18.3660   31.9170 C.3   316  GLU316      0.1567
    123  C         17.3090   18.0220   33.3970 C.2   316  GLU316      0.2260
    124  O         17.3110   18.9010   34.2600 O.2   316  GLU316     -0.2867
    125  CB        16.1740   18.7220   31.2730 C.3   316  GLU316      0.0388
    126  CG        16.3040   19.4600   29.9270 C.3   316  GLU316      0.1160
    127  CD        16.8450   20.8790   30.0650 C.2   316  GLU316      0.3649
    128  OE1       17.2640   21.2790   31.1760 O.co2 316  GLU316     -0.2457
    129  OE2       16.8710   21.6020   29.0320 O.co2 316  GLU316     -0.2457
@<TRIPOS>BOND
     1    28    29    1
     2    31    30    2
     3    30    29    1
     4    30    35   am
     5    29    32    1
     6    88    89    1
     7    23    22    2
     8    34    32    1
     9    32    33    1
    10    35    36    1
    11    36    37    1
    12    36    39    1
    13    37    38    2
    14    22    21    1
    15    93    95    1
    16    93    92    1
    17    89    92    1
    18    89    90    1
    19   103   101    1
    20    40    39    1
    21    40    42    1
    22    39    41    1
    23    92    94    1
    24    91    90    2
    25    21    24    1
    26    21    20    1
    27    90    96   am
    28   101   102    1
    29   101   100    1
    30    24    25    1
    31    43    44    1
    32    96    97    1
    33   100    97    1
    34    50    48    1
    35    48    47    1
    36    97    98    1
    37    25    26    1
    38    26    27    1
    39    44    47    1
    40    44    45    1
    41    47    49    1
    42    45    46    2
    43    98    99    2
    44    98   104   am
    45    15    14    2
    46   104   105    1
    47    14    13    1
    48    74    76   ar
    49    74    72   ar
    50    76    75   ar
    51   110   109   ar
    52   105   106    1
    53   105   108    1
    54    18    17    1
    55    13    12    1
    56    13    16    1
    57    17    16    1
    58    17    19    1
    59    58    56    1
    60    72    71    1
    61    72    73   ar
    62   106   107    2
    63   109   108    1
    64   109   111   ar
    65    71    68    1
    66    75    73   ar
    67    54    53    2
    68    55    56    1
    69    55    57    1
    70    55    52    1
    71    51    52    1
    72    68    67    1
    73    68    69    1
    74    67    61   am
    75    53    52    1
    76    53    59   am
    77    60    61    1
    78    60    59    1
    79    60    63    1
    80    61    62    2
    81    69    77   am
    82    69    70    2
    83     4     3    2
    84    77    78    1
    85    65    63    1
    86    63    64    1
    87    64    66    1
    88     3     2    1
    89   120   118   am
    90    79    78    1
    91    79    80    2
    92    78    81    1
    93   117   118    1
    94   117   116    1
    95   118   119    2
    96   112   113    1
    97     2     1    1
    98     2     5    1
    99    81    82    1
   100   116   113    1
   101   113   114    1
   102     6     5    1
   103     6     7    1
   104    82    83    1
   105     7     8    1
   106   114   115    2
   107    83    84    1
   108    84    85    2
   109   129   127   ar
   110     8     9    2
   111   126   127    1
   112   126   125    1
   113   127   128   ar
   114    85    87    1
   115    85    86    1
   116     9    10    1
   117     9    11    1
   118   121   122    1
   119   125   122    1
   120   122   123    1
   121   123   124    2
