@<TRIPOS>MOLECULE
tmp/3zs6A00.pdb
 92 89 0 0 0
SMALL
GASTEIGER

@<TRIPOS>ATOM
      1  N          8.6390  -10.9400   14.3560 N.3    24  GLU24      -0.1231
      2  CA         8.4360   -9.8780   15.3390 C.3    24  GLU24       0.1699
      3  C          9.6540   -9.6240   16.2180 C.2    24  GLU24       0.2592
      4  O          9.7830   -8.5450   16.8020 O.2    24  GLU24      -0.2718
      5  CB         7.3040  -10.2400   16.3110 C.3    24  GLU24       0.0402
      6  CG         5.9270  -10.3760   15.7410 C.3    24  GLU24       0.1161
      7  CD         4.9210  -10.6770   16.8360 C.2    24  GLU24       0.3649
      8  OE1        4.7160   -9.8060   17.7150 O.co2  24  GLU24      -0.2457
      9  OE2        4.3460  -11.7830   16.8180 O.co2  24  GLU24      -0.2457
     10  N         10.5000  -10.6380   16.3810 N.am   25  SER25      -0.1952
     11  CA        11.5120  -10.6060   17.4460 C.3    25  SER25       0.1924
     12  C         12.9310  -10.3380   16.9630 C.2    25  SER25       0.2314
     13  O         13.2310  -10.4380   15.7670 O.2    25  SER25      -0.2863
     14  CB        11.5090  -11.9340   18.2130 C.3    25  SER25       0.2116
     15  OG        12.1110  -12.9550   17.4310 O.3    25  SER25      -0.2180
     16  N         11.6670   -3.6680   30.0840 N.3   263  TYR263     -0.1241
     17  CA        10.5310   -3.1120   30.8080 C.3   263  TYR263      0.1605
     18  C          9.4480   -4.1430   31.0920 C.2   263  TYR263      0.2264
     19  O          9.3820   -5.2050   30.4490 O.2   263  TYR263     -0.2867
     20  CB         9.9340   -1.9250   30.0450 C.3   263  TYR263      0.0534
     21  CG         9.1720   -2.2960   28.7840 C.ar  263  TYR263     -0.0201
     22  CD1        7.8080   -2.5640   28.8270 C.ar  263  TYR263     -0.0009
     23  CD2        9.8200   -2.3670   27.5450 C.ar  263  TYR263     -0.0009
     24  CE1        7.1000   -2.8940   27.6690 C.ar  263  TYR263      0.0417
     25  CE2        9.1190   -2.6910   26.3740 C.ar  263  TYR263      0.0417
     26  CZ         7.7610   -2.9530   26.4490 C.ar  263  TYR263      0.1957
     27  OH         7.0560   -3.2750   25.3130 O.3   263  TYR263     -0.2866
     28  N          9.1420  -18.1910   25.2120 N.3   387  PHE387     -0.1241
     29  CA         9.0510  -16.8340   24.6640 C.3   387  PHE387      0.1605
     30  C          7.9360  -16.6460   23.6310 C.2   387  PHE387      0.2264
     31  O          7.2430  -15.6300   23.6520 O.2   387  PHE387     -0.2867
     32  CB        10.3940  -16.3920   24.0720 C.3   387  PHE387      0.0534
     33  CG        10.4010  -14.9670   23.5930 C.ar  387  PHE387     -0.0203
     34  CD1       10.2070  -13.9170   24.4870 C.ar  387  PHE387     -0.0042
     35  CD2       10.6000  -14.6730   22.2510 C.ar  387  PHE387     -0.0042
     36  CE1       10.2170  -12.5900   24.0470 C.ar  387  PHE387     -0.0003
     37  CE2       10.6070  -13.3550   21.8020 C.ar  387  PHE387     -0.0003
     38  CZ        10.4150  -12.3130   22.6990 C.ar  387  PHE387     -0.0000
     39  N          4.9240  -13.9380   23.9650 N.3   391  MET391     -0.1245
     40  CA         4.5730  -12.9410   22.9580 C.3   391  MET391      0.1570
     41  C          3.0810  -12.9690   22.6410 C.2   391  MET391      0.2261
     42  O          2.4380  -11.9170   22.5960 O.2   391  MET391     -0.2867
     43  CB         5.3930  -13.1060   21.6730 C.3   391  MET391      0.0387
     44  CG         6.6630  -12.2580   21.6330 C.3   391  MET391      0.0595
     45  SD         7.4760  -12.2100   20.0130 S.3   391  MET391     -0.1393
     46  CE         7.3790  -13.9320   19.5330 C.3   391  MET391      0.0692
     47  N          0.9220  -11.6430   25.6080 N.3   394  ARG394     -0.1245
     48  CA         0.9340  -10.1830   25.7010 C.3   394  ARG394      0.1563
     49  C         -0.0020   -9.5540   24.6520 C.2   394  ARG394      0.2260
     50  O         -0.7820   -8.6510   24.9670 O.2   394  ARG394     -0.2867
     51  CB         2.3680   -9.6310   25.5980 C.3   394  ARG394      0.0307
     52  CG         3.2600  -10.0180   26.7820 C.3   394  ARG394      0.0489
     53  CD         4.6760   -9.4370   26.6950 C.3   394  ARG394      0.2205
     54  NE         5.2600   -9.5180   25.3530 N.pl3 394  ARG394     -0.0865
     55  CZ         6.5590   -9.6640   25.0850 C.cat 394  ARG394      0.5346
     56  NH1        7.4440   -9.7910   26.0740 N.pl3 394  ARG394      0.1354
     57  NH2        6.9760   -9.6890   23.8120 N.pl3 394  ARG394      0.1354
     58  N          9.0620   -7.7780   29.3290 N.3   404  ASP404     -0.1225
     59  CA         9.0450   -7.2970   27.9470 C.3   404  ASP404      0.1805
     60  C         10.3490   -6.5510   27.6630 C.2   404  ASP404      0.2598
     61  O         11.2140   -6.4560   28.5310 O.2   404  ASP404     -0.2718
     62  CB         7.8400   -6.3880   27.6960 C.3   404  ASP404      0.1424
     63  CG         7.3340   -6.4540   26.2460 C.2   404  ASP404      0.3668
     64  OD1        8.1560   -6.5820   25.3140 O.co2 404  ASP404     -0.2456
     65  OD2        6.1070   -6.3720   26.0410 O.co2 404  ASP404     -0.2456
     66  N         10.4800   -6.0220   26.4520 N.am  405  GLY405     -0.1942
     67  CA        11.7000   -5.3540   26.0320 C.3   405  GLY405      0.2014
     68  C         11.6340   -5.0580   24.5450 C.2   405  GLY405      0.2638
     69  O         11.1210   -5.8660   23.7700 O.2   405  GLY405     -0.2714
     70  N         12.1570   -3.9040   24.1440 N.am  406  TRP406     -0.1973
     71  CA        12.0830   -3.4840   22.7460 C.3   406  TRP406      0.1640
     72  C         13.4540   -3.0310   22.2590 C.2   406  TRP406      0.2290
     73  O         14.1150   -2.2250   22.9180 O.2   406  TRP406     -0.2864
     74  CB        11.0720   -2.3410   22.6150 C.3   406  TRP406      0.0576
     75  CG        10.8060   -1.8600   21.2150 C.ar  406  TRP406      0.0006
     76  CD1       11.3070   -0.7340   20.6240 C.ar  406  TRP406      0.0946
     77  CD2        9.9480   -2.4720   20.2480 C.ar  406  TRP406      0.0152
     78  NE1       10.8210   -0.6100   19.3440 N.ar  406  TRP406     -0.2442
     79  CE2        9.9770   -1.6610   19.0890 C.ar  406  TRP406      0.0810
     80  CE3        9.1590   -3.6290   20.2430 C.ar  406  TRP406      0.0012
     81  CZ2        9.2570   -1.9750   17.9360 C.ar  406  TRP406      0.0191
     82  CZ3        8.4340   -3.9370   19.0950 C.ar  406  TRP406      0.0001
     83  CH2        8.4880   -3.1110   17.9590 C.ar  406  TRP406      0.0015
     84  N          2.0650   -3.1710   17.7470 N.3   426  GLN426     -0.1245
     85  CA         2.9930   -3.5800   18.8000 C.3   426  GLN426      0.1566
     86  C          2.7420   -2.8280   20.1190 C.2   426  GLN426      0.2260
     87  O          3.5520   -2.8830   21.0500 O.2   426  GLN426     -0.2867
     88  CB         4.4510   -3.4390   18.3330 C.3   426  GLN426      0.0367
     89  CG         4.8880   -4.5120   17.3270 C.3   426  GLN426      0.0905
     90  CD         5.0060   -5.8890   17.9630 C.2   426  GLN426      0.2608
     91  OE1        5.5070   -6.0290   19.0800 O.2   426  GLN426     -0.2717
     92  NE2        4.5440   -6.9120   17.2530 N.am  426  GLN426     -0.0878
@<TRIPOS>BOND
     1     1     2    1
     2     2     3    1
     3     2     5    1
     4     6     5    1
     5     6     7    1
     6    13    12    2
     7     3    10   am
     8     3     4    2
     9    10    11    1
    10     9     7   ar
    11     7     8   ar
    12    12    11    1
    13    92    90   am
    14    89    90    1
    15    89    88    1
    16    15    14    1
    17    11    14    1
    18    84    85    1
    19    81    83   ar
    20    81    79   ar
    21    83    82   ar
    22    90    91    2
    23    88    85    1
    24    85    86    1
    25    79    78   ar
    26    79    77   ar
    27    82    80   ar
    28    78    76   ar
    29    46    45    1
    30    45    44    1
    31    86    87    2
    32    80    77   ar
    33    77    75   ar
    34    76    75   ar
    35    75    74    1
    36    44    43    1
    37    43    40    1
    38    37    35   ar
    39    37    38   ar
    40    35    33   ar
    41    72    71    1
    42    72    73    2
    43    42    41    2
    44    74    71    1
    45    41    40    1
    46    38    36   ar
    47    71    70    1
    48    40    39    1
    49    33    32    1
    50    33    34   ar
    51    30    31    2
    52    30    29    1
    53    69    68    2
    54    57    55    1
    55    36    34   ar
    56    32    29    1
    57    70    68   am
    58    68    67    1
    59    49    50    2
    60    49    48    1
    61    29    28    1
    62    55    54    2
    63    55    56    1
    64    27    26    1
    65    64    63   ar
    66    54    53    1
    67    51    48    1
    68    51    52    1
    69    47    48    1
    70    67    66    1
    71    65    63   ar
    72    63    62    1
    73    25    26   ar
    74    25    23   ar
    75    26    24   ar
    76    66    60   am
    77    53    52    1
    78    23    21   ar
    79    60    59    1
    80    60    61    2
    81    24    22   ar
    82    62    59    1
    83    59    58    1
    84    21    22   ar
    85    21    20    1
    86    20    17    1
    87    16    17    1
    88    19    18    2
    89    17    18    1
