@<TRIPOS>MOLECULE
tmp/3zs7A00.pdb
 200 196 0 0 0
SMALL
GASTEIGER

@<TRIPOS>ATOM
      1  N         -6.3450  -16.4010  -17.5090 N.3   140  ASN140     -0.1225
      2  CA        -6.8610  -16.0400  -18.8170 C.3   140  ASN140      0.1785
      3  C         -6.3390  -17.0980  -19.7950 C.2   140  ASN140      0.2597
      4  O         -5.5690  -17.9870  -19.3980 O.2   140  ASN140     -0.2718
      5  CB        -6.5190  -14.5840  -19.2060 C.3   140  ASN140      0.1169
      6  CG        -5.0300  -14.2960  -19.2210 C.2   140  ASN140      0.2627
      7  OD1       -4.2040  -15.1840  -19.4480 O.2   140  ASN140     -0.2716
      8  ND2       -4.6810  -13.0490  -18.9570 N.am  140  ASN140     -0.0877
      9  N         -6.7410  -17.0290  -21.0540 N.am  141  TYR141     -0.1976
     10  CA        -6.3160  -18.0490  -22.0200 C.3   141  TYR141      0.1639
     11  C         -4.7990  -18.1020  -22.2190 C.2   141  TYR141      0.2290
     12  O         -4.2440  -19.1700  -22.4210 O.2   141  TYR141     -0.2864
     13  CB        -7.0180  -17.8970  -23.3720 C.3   141  TYR141      0.0560
     14  CG        -6.6700  -16.6580  -24.1540 C.ar  141  TYR141     -0.0198
     15  CD1       -7.3320  -15.4530  -23.9080 C.ar  141  TYR141     -0.0009
     16  CD2       -5.7080  -16.6860  -25.1570 C.ar  141  TYR141     -0.0009
     17  CE1       -7.0320  -14.3000  -24.6310 C.ar  141  TYR141      0.0417
     18  CE2       -5.3910  -15.5250  -25.8880 C.ar  141  TYR141      0.0417
     19  CZ        -6.0640  -14.3410  -25.6110 C.ar  141  TYR141      0.1957
     20  OH        -5.7940  -13.1870  -26.3020 O.3   141  TYR141     -0.2866
     21  N         -2.4230  -17.3170  -19.9740 N.3   143  GLU143     -0.1245
     22  CA        -1.8420  -17.9490  -18.7880 C.3   143  GLU143      0.1567
     23  C         -2.1290  -19.4500  -18.7190 C.2   143  GLU143      0.2260
     24  O         -1.2750  -20.2280  -18.2860 O.2   143  GLU143     -0.2867
     25  CB        -2.3150  -17.2330  -17.5190 C.3   143  GLU143      0.0388
     26  CG        -1.8390  -15.7830  -17.4360 C.3   143  GLU143      0.1160
     27  CD        -2.8060  -14.8480  -16.7150 C.2   143  GLU143      0.3649
     28  OE1       -3.9010  -15.2900  -16.2750 O.co2 143  GLU143     -0.2457
     29  OE2       -2.4630  -13.6540  -16.6140 O.co2 143  GLU143     -0.2457
     30  N        -11.0520  -17.8940  -18.1180 N.3   176  LYS176     -0.1231
     31  CA       -11.9830  -16.7640  -18.0960 C.3   176  LYS176      0.1693
     32  C        -12.5260  -16.3340  -19.4350 C.2   176  LYS176      0.2592
     33  O        -13.5820  -15.7080  -19.4950 O.2   176  LYS176     -0.2718
     34  CB       -11.3340  -15.5660  -17.4390 C.3   176  LYS176      0.0285
     35  CG       -10.8930  -15.8590  -16.0310 C.3   176  LYS176      0.0035
     36  CD       -10.1770  -14.6820  -15.4310 C.3   176  LYS176      0.0206
     37  CE        -8.8550  -14.3910  -16.1250 C.3   176  LYS176      0.1093
     38  NZ        -8.0110  -13.6200  -15.1770 N.3   176  LYS176     -0.1314
     39  N        -11.7860  -16.6130  -20.5000 N.am  177  SER177     -0.1952
     40  CA       -12.3000  -16.3850  -21.8260 C.3   177  SER177      0.1924
     41  C        -11.3910  -16.9520  -22.8830 C.2   177  SER177      0.2314
     42  O        -10.2170  -17.2440  -22.6560 O.2   177  SER177     -0.2863
     43  CB       -12.5480  -14.8960  -22.1200 C.3   177  SER177      0.2116
     44  OG       -11.3330  -14.1890  -22.2710 O.3   177  SER177     -0.2180
     45  N        -17.5590  -13.8370  -25.9850 N.3   184  LEU184     -0.1245
     46  CA       -16.4560  -14.5280  -25.3490 C.3   184  LEU184      0.1561
     47  C        -17.0470  -15.7450  -24.6390 C.2   184  LEU184      0.2260
     48  O        -18.0830  -15.6290  -23.9930 O.2   184  LEU184     -0.2867
     49  CB       -15.7540  -13.6160  -24.3360 C.3   184  LEU184      0.0270
     50  CG       -15.0050  -12.3760  -24.8560 C.3   184  LEU184      0.0019
     51  CD1      -14.4440  -11.5500  -23.6920 C.3   184  LEU184      0.0001
     52  CD2      -13.8870  -12.7380  -25.8250 C.3   184  LEU184      0.0001
     53  N        -16.3430  -18.8860  -21.7840 N.3   186  PHE186     -0.1241
     54  CA       -15.5190  -19.3090  -20.6630 C.3   186  PHE186      0.1605
     55  C        -15.7690  -20.7700  -20.3310 C.2   186  PHE186      0.2264
     56  O        -16.7670  -21.3580  -20.7670 O.2   186  PHE186     -0.2867
     57  CB       -15.7590  -18.4300  -19.4260 C.3   186  PHE186      0.0534
     58  CG       -17.1890  -18.3860  -18.9770 C.ar  186  PHE186     -0.0203
     59  CD1      -17.7120  -19.3900  -18.1660 C.ar  186  PHE186     -0.0042
     60  CD2      -18.0150  -17.3390  -19.3690 C.ar  186  PHE186     -0.0042
     61  CE1      -19.0480  -19.3610  -17.7710 C.ar  186  PHE186     -0.0003
     62  CE2      -19.3420  -17.2910  -18.9720 C.ar  186  PHE186     -0.0003
     63  CZ       -19.8550  -18.3060  -18.1570 C.ar  186  PHE186     -0.0000
     64  N        -20.3770  -14.4660  -22.6220 N.3   205  VAL205     -0.1231
     65  CA       -20.7110  -13.0890  -22.3060 C.3   205  VAL205      0.1678
     66  C        -20.5000  -12.2380  -23.5650 C.2   205  VAL205      0.2434
     67  O        -19.6270  -12.5460  -24.3740 O.2   205  VAL205     -0.2733
     68  CB       -19.8660  -12.5500  -21.1150 C.3   205  VAL205      0.0265
     69  CG1      -20.0090  -13.4980  -19.9050 C.3   205  VAL205      0.0020
     70  CG2      -18.3980  -12.4050  -21.4970 C.3   205  VAL205      0.0020
     71  N        -21.3220  -11.1910  -23.7570 N.am  206  PRO206     -0.2718
     72  CA       -21.1180  -10.3510  -24.9390 C.3   206  PRO206      0.1535
     73  C        -19.7440   -9.6990  -24.9480 C.2   206  PRO206      0.2599
     74  O        -19.3150   -9.1580  -23.9240 O.2   206  PRO206     -0.2715
     75  CB       -22.2110   -9.2840  -24.8190 C.3   206  PRO206      0.0310
     76  CG       -23.2680   -9.8980  -24.0140 C.3   206  PRO206      0.0237
     77  CD       -22.5850  -10.8760  -23.0680 C.3   206  PRO206      0.0939
     78  N        -19.0650   -9.7750  -26.0930 N.am  207  TYR207     -0.1960
     79  CA       -17.7630   -9.1380  -26.2850 C.3   207  TYR207      0.1771
     80  C        -17.9280   -7.6480  -26.5450 C.2   207  TYR207      0.2619
     81  O        -18.7470   -7.2490  -27.3700 O.2   207  TYR207     -0.2715
     82  CB       -17.0190   -9.7770  -27.4580 C.3   207  TYR207      0.0574
     83  CG       -15.6920   -9.1120  -27.7800 C.ar  207  TYR207     -0.0198
     84  CD1      -14.6040   -9.2220  -26.9100 C.ar  207  TYR207     -0.0009
     85  CD2      -15.5240   -8.3760  -28.9560 C.ar  207  TYR207     -0.0009
     86  CE1      -13.3840   -8.6190  -27.2050 C.ar  207  TYR207      0.0417
     87  CE2      -14.3090   -7.7690  -29.2600 C.ar  207  TYR207      0.0417
     88  CZ       -13.2460   -7.8910  -28.3790 C.ar  207  TYR207      0.1957
     89  OH       -12.0450   -7.2910  -28.6680 O.3   207  TYR207     -0.2866
     90  N        -17.1510   -6.8330  -25.8410 N.am  208  HIS208     -0.1973
     91  CA       -17.1750   -5.3840  -26.0290 C.3   208  HIS208      0.1656
     92  C        -15.7940   -4.9000  -26.4930 C.2   208  HIS208      0.2291
     93  O        -14.7730   -5.1990  -25.8560 O.2   208  HIS208     -0.2864
     94  CB       -17.6110   -4.6810  -24.7320 C.3   208  HIS208      0.0771
     95  CG       -18.9740   -5.0860  -24.2510 C.ar  208  HIS208      0.0820
     96  ND1      -20.1330   -4.7500  -24.9210 N.ar  208  HIS208     -0.2267
     97  CD2      -19.3640   -5.7910  -23.1600 C.ar  208  HIS208      0.1154
     98  CE1      -21.1740   -5.2390  -24.2690 C.ar  208  HIS208      0.1986
     99  NE2      -20.7350   -5.8750  -23.1980 N.ar  208  HIS208     -0.2212
    100  N        -12.4460   -2.7840  -27.4150 N.3   210  GLY210     -0.1210
    101  CA       -11.5750   -1.9500  -26.5900 C.3   210  GLY210      0.1956
    102  C        -10.9000   -2.7780  -25.5140 C.2   210  GLY210      0.2612
    103  O        -11.1630   -3.9790  -25.3920 O.2   210  GLY210     -0.2717
    104  N        -10.0250   -2.1380  -24.7370 N.am  211  ARG211     -0.1965
    105  CA        -9.3840   -2.7830  -23.5900 C.3   211  ARG211      0.1729
    106  C         -9.8280   -2.0810  -22.3120 C.2   211  ARG211      0.2616
    107  O        -10.0480   -0.8700  -22.3040 O.2   211  ARG211     -0.2715
    108  CB        -7.8590   -2.7490  -23.7240 C.3   211  ARG211      0.0348
    109  CG        -7.4530   -3.6020  -24.9650 C.3   211  ARG211      0.0492
    110  CD        -7.2400   -5.0050  -24.4770 C.3   211  ARG211      0.2205
    111  NE        -7.0990   -6.0490  -25.4520 N.pl3 211  ARG211     -0.0865
    112  CZ        -7.8850   -6.4220  -26.4690 C.cat 211  ARG211      0.5346
    113  NH1       -9.1160   -5.9020  -26.6370 N.pl3 211  ARG211      0.1354
    114  NH2       -7.3810   -7.3280  -27.3400 N.pl3 211  ARG211      0.1354
    115  N         -9.9760   -2.8580  -21.2410 N.am  212  TYR212     -0.1960
    116  CA       -10.4290   -2.3330  -19.9580 C.3   212  TYR212      0.1771
    117  C         -9.4940   -2.8500  -18.8830 C.2   212  TYR212      0.2620
    118  O         -9.3130   -4.0650  -18.7270 O.2   212  TYR212     -0.2715
    119  CB       -11.8800   -2.7520  -19.6820 C.3   212  TYR212      0.0574
    120  CG       -12.8220   -2.3780  -20.8090 C.ar  212  TYR212     -0.0198
    121  CD1      -12.9210   -3.1750  -21.9470 C.ar  212  TYR212     -0.0009
    122  CD2      -13.5760   -1.2050  -20.7590 C.ar  212  TYR212     -0.0009
    123  CE1      -13.7630   -2.8270  -22.9930 C.ar  212  TYR212      0.0417
    124  CE2      -14.4310   -0.8500  -21.8100 C.ar  212  TYR212      0.0417
    125  CZ       -14.5180   -1.6650  -22.9220 C.ar  212  TYR212      0.1957
    126  OH       -15.3520   -1.3300  -23.9730 O.3   212  TYR212     -0.2866
    127  N         -8.9000   -1.9310  -18.1370 N.am  213  THR213     -0.1937
    128  CA        -7.8680   -2.3040  -17.1860 C.3   213  THR213      0.2028
    129  C         -8.4860   -2.8240  -15.8810 C.2   213  THR213      0.2643
    130  O         -9.5430   -2.3600  -15.4500 O.2   213  THR213     -0.2714
    131  CB        -6.8990   -1.1260  -16.9280 C.3   213  THR213      0.1808
    132  OG1       -6.2030   -0.8070  -18.1490 O.3   213  THR213     -0.2208
    133  CG2       -5.8880   -1.4950  -15.8650 C.3   213  THR213      0.0379
    134  N         -7.8350   -3.8180  -15.2850 N.am  214  GLY214     -0.1939
    135  CA        -8.2530   -4.3530  -13.9880 C.3   214  GLY214      0.2014
    136  C         -9.4020   -5.3610  -13.9800 C.2   214  GLY214      0.2640
    137  O         -9.8360   -5.7560  -12.9050 O.2   214  GLY214     -0.2714
    138  N         -9.8810   -5.7760  -15.1610 N.am  215  THR215     -0.1936
    139  CA       -11.0040   -6.7350  -15.2590 C.3   215  THR215      0.2028
    140  C        -10.6880   -8.0570  -14.5500 C.2   215  THR215      0.2643
    141  O        -11.5020   -8.5700  -13.7980 O.2   215  THR215     -0.2714
    142  CB       -11.3830   -7.0680  -16.7320 C.3   215  THR215      0.1808
    143  OG1      -10.2300   -7.5290  -17.4370 O.3   215  THR215     -0.2208
    144  CG2      -11.9560   -5.8660  -17.4390 C.3   215  THR215      0.0379
    145  N         -9.5010   -8.6080  -14.7860 N.am  216  GLY216     -0.1939
    146  CA        -9.1050   -9.8610  -14.1360 C.3   216  GLY216      0.2014
    147  C         -9.0420   -9.7530  -12.6220 C.2   216  GLY216      0.2638
    148  O         -9.4800  -10.6590  -11.8910 O.2   216  GLY216     -0.2714
    149  N         -8.4970   -8.6390  -12.1420 N.am  217  ASP217     -0.1971
    150  CA        -8.3970   -8.3900  -10.7070 C.3   217  ASP217      0.1709
    151  C         -9.7880   -8.2760  -10.0270 C.2   217  ASP217      0.2293
    152  O        -10.0170   -8.8340   -8.9600 O.2   217  ASP217     -0.2864
    153  CB        -7.5740   -7.1200  -10.4640 C.3   217  ASP217      0.1436
    154  CG        -6.1540   -7.2120  -11.0240 C.2   217  ASP217      0.3671
    155  OD1       -5.6500   -8.3460  -11.1790 O.co2 217  ASP217     -0.2456
    156  OD2       -5.5520   -6.1400  -11.3350 O.co2 217  ASP217     -0.2456
    157  N        -12.6160   -9.4730  -11.3380 N.3   219  PHE219     -0.1241
    158  CA       -13.2490  -10.7950  -11.4830 C.3   219  PHE219      0.1605
    159  C        -12.8890  -11.7190  -10.3240 C.2   219  PHE219      0.2264
    160  O        -13.7630  -12.2910   -9.6700 O.2   219  PHE219     -0.2867
    161  CB       -12.8890  -11.4730  -12.8110 C.3   219  PHE219      0.0534
    162  CG       -13.4610  -12.8630  -12.9330 C.ar  219  PHE219     -0.0203
    163  CD1      -14.7970  -13.0400  -13.2630 C.ar  219  PHE219     -0.0042
    164  CD2      -12.6870  -13.9820  -12.6600 C.ar  219  PHE219     -0.0042
    165  CE1      -15.3510  -14.3130  -13.3580 C.ar  219  PHE219     -0.0003
    166  CE2      -13.2430  -15.2680  -12.7460 C.ar  219  PHE219     -0.0003
    167  CZ       -14.5730  -15.4270  -13.1000 C.ar  219  PHE219     -0.0000
    168  N        -19.0990  -12.8090  -13.7220 N.3   240  MET240     -0.1245
    169  CA       -19.0980  -12.4750  -15.1320 C.3   240  MET240      0.1570
    170  C        -20.0670  -11.3350  -15.3910 C.2   240  MET240      0.2261
    171  O        -19.7720  -10.4420  -16.2130 O.2   240  MET240     -0.2867
    172  CB       -19.4700  -13.6830  -15.9910 C.3   240  MET240      0.0387
    173  CG       -18.3930  -14.7930  -16.0590 C.3   240  MET240      0.0595
    174  SD       -16.9250  -14.2730  -16.9650 S.3   240  MET240     -0.1393
    175  CE       -15.9690  -15.7860  -16.9980 C.3   240  MET240      0.0692
    176  N        -18.6640   -7.8430  -14.1680 N.3   243  LEU243     -0.1231
    177  CA       -17.7530   -7.3230  -15.1780 C.3   243  LEU243      0.1693
    178  C        -18.4960   -6.8110  -16.4120 C.2   243  LEU243      0.2591
    179  O        -18.1840   -5.7370  -16.9210 O.2   243  LEU243     -0.2718
    180  CB       -16.7250   -8.3750  -15.5950 C.3   243  LEU243      0.0284
    181  CG       -15.4530   -8.3680  -14.7340 C.3   243  LEU243      0.0019
    182  CD1      -14.7060   -7.0100  -14.8800 C.3   243  LEU243      0.0001
    183  CD2      -15.7460   -8.6290  -13.2720 C.3   243  LEU243      0.0001
    184  N        -19.4510   -7.6010  -16.8950 N.am  244  GLN244     -0.1979
    185  CA       -20.2330   -7.2330  -18.0680 C.3   244  GLN244      0.1601
    186  C        -20.9230   -5.8740  -17.8700 C.2   244  GLN244      0.2287
    187  O        -20.8660   -5.0240  -18.7570 O.2   244  GLN244     -0.2864
    188  CB       -21.2330   -8.3550  -18.3970 C.3   244  GLN244      0.0394
    189  CG       -22.0300   -8.1660  -19.6610 C.3   244  GLN244      0.0908
    190  CD       -21.2030   -8.2510  -20.9370 C.2   244  GLN244      0.2608
    191  OE1      -21.6810   -7.8670  -21.9980 O.2   244  GLN244     -0.2717
    192  NE2      -19.9720   -8.7610  -20.8440 N.am  244  GLN244     -0.0878
    193  N        -18.1720   -2.9340  -17.5500 N.3   247  ILE247     -0.1245
    194  CA       -17.6020   -2.6080  -18.8490 C.3   247  ILE247      0.1561
    195  C        -18.5650   -1.7900  -19.7010 C.2   247  ILE247      0.2260
    196  O        -18.1270   -0.9690  -20.5020 O.2   247  ILE247     -0.2867
    197  CB       -17.2020   -3.8590  -19.6230 C.3   247  ILE247      0.0252
    198  CG1      -15.9770   -4.5050  -18.9760 C.3   247  ILE247      0.0019
    199  CG2      -16.9210   -3.5280  -21.0780 C.3   247  ILE247      0.0019
    200  CD1      -15.6190   -5.8220  -19.5940 C.3   247  ILE247      0.0001
@<TRIPOS>BOND
     1    87    85   ar
     2    87    88   ar
     3    85    83   ar
     4    89    88    1
     5    88    86   ar
     6    83    82    1
     7    83    84   ar
     8    82    79    1
     9   100   101    1
    10    81    80    2
    11   114   112    1
    12    86    84   ar
    13   113   112    1
    14   101   102    1
    15    80    79    1
    16    80    90   am
    17    92    91    1
    18    92    93    2
    19   112   111    2
    20    20    19    1
    21    79    78    1
    22    78    73   am
    23    91    90    1
    24    91    94    1
    25    45    46    1
    26    18    19   ar
    27    18    16   ar
    28    52    50    1
    29    19    17   ar
    30   102   103    2
    31   102   104   am
    32   111   110    1
    33    46    47    1
    34    46    49    1
    35    16    14   ar
    36   109   110    1
    37   109   108    1
    38    73    72    1
    39    73    74    2
    40    72    75    1
    41    72    71    1
    42    96    98   ar
    43    96    95   ar
    44    50    49    1
    45    50    51    1
    46    75    76    1
    47   104   105    1
    48    94    95    1
    49    47    48    2
    50    17    15   ar
    51    67    66    2
    52    98    99   ar
    53    95    97   ar
    54    14    15   ar
    55    14    13    1
    56    76    77    1
    57   126   125    1
    58    71    66   am
    59    71    77    1
    60   108   105    1
    61   105   106    1
    62    66    65    1
    63    13    10    1
    64    99    97   ar
    65   123   125   ar
    66   123   121   ar
    67   125   124   ar
    68    41    42    2
    69    41    40    1
    70    64    65    1
    71    12    11    2
    72   106   107    2
    73   106   115   am
    74    65    68    1
    75    44    43    1
    76    11    10    1
    77    43    40    1
    78    10     9    1
    79   191   190    2
    80   121   120   ar
    81    40    39    1
    82   124   122   ar
    83    53    54    1
    84    70    68    1
    85   115   116    1
    86    68    69    1
    87   199   197    1
    88     9     3   am
    89   190   192   am
    90   190   189    1
    91   120   122   ar
    92   120   119    1
    93    56    55    2
    94    54    55    1
    95    54    57    1
    96   196   195    2
    97    39    32   am
    98    21    22    1
    99   116   119    1
   100   116   117    1
   101     3     4    2
   102     3     2    1
   103   195   194    1
   104   189   188    1
   105   197   198    1
   106   197   194    1
   107   200   198    1
   108    33    32    2
   109     7     6    2
   110    32    31    1
   111    57    58    1
   112    60    58   ar
   113    60    62   ar
   114     6     5    1
   115     6     8   am
   116     5     2    1
   117    58    59   ar
   118    62    63   ar
   119   117   118    2
   120   117   127   am
   121   194   193    1
   122     2     1    1
   123    22    23    1
   124    22    25    1
   125   187   186    2
   126    23    24    2
   127   188   185    1
   128    59    61   ar
   129    63    61   ar
   130   132   131    1
   131   127   128    1
   132    30    31    1
   133    31    34    1
   134   185   186    1
   135   185   184    1
   136    25    26    1
   137    34    35    1
   138   144   142    1
   139   143   142    1
   140    26    27    1
   141   128   131    1
   142   128   129    1
   143   175   174    1
   144   174   173    1
   145   131   133    1
   146   179   178    2
   147   184   178   am
   148   142   139    1
   149    27    29   ar
   150    27    28   ar
   151   178   177    1
   152   171   170    2
   153    37    36    1
   154    37    38    1
   155   173   172    1
   156    35    36    1
   157   172   169    1
   158   129   130    2
   159   129   134   am
   160   180   177    1
   161   180   181    1
   162   170   169    1
   163   134   135    1
   164   139   138    1
   165   139   140    1
   166   177   176    1
   167   138   136   am
   168   169   168    1
   169   182   181    1
   170   145   140   am
   171   145   146    1
   172   181   183    1
   173   140   141    2
   174   146   147    1
   175   135   136    1
   176   136   137    2
   177   165   163   ar
   178   165   167   ar
   179   163   162   ar
   180   167   166   ar
   181   162   161    1
   182   162   164   ar
   183   161   158    1
   184   166   164   ar
   185   147   149   am
   186   147   148    2
   187   149   150    1
   188   158   157    1
   189   158   159    1
   190   156   154   ar
   191   155   154   ar
   192   154   153    1
   193   150   153    1
   194   150   151    1
   195   159   160    2
   196   151   152    2
