@<TRIPOS>MOLECULE
tmp/3zscA00.pdb
 118 109 0 0 0
SMALL
GASTEIGER

@<TRIPOS>ATOM
      1  N          8.1110   31.3700   74.7200 N.3   107  ARG107     -0.1245
      2  CA         9.2480   31.7200   75.6050 C.3   107  ARG107      0.1563
      3  C         10.6090   31.3860   75.0190 C.2   107  ARG107      0.2260
      4  O         11.6390   31.5700   75.6910 O.2   107  ARG107     -0.2867
      5  CB         9.1240   31.0230   76.9430 C.3   107  ARG107      0.0307
      6  CG         8.1090   31.6720   77.8710 C.3   107  ARG107      0.0489
      7  CD         8.0060   30.8450   79.1710 C.3   107  ARG107      0.2205
      8  NE         9.2550   30.9670   79.9300 N.pl3 107  ARG107     -0.0865
      9  CZ         9.6240   30.1330   80.8870 C.cat 107  ARG107      0.5346
     10  NH1        8.8350   29.1140   81.2020 N.pl3 107  ARG107      0.1354
     11  NH2       10.7880   30.3130   81.5030 N.pl3 107  ARG107      0.1354
     12  N         12.0510   28.5170   74.1950 N.3   109  LYS109     -0.1245
     13  CA        12.7310   27.5080   75.0080 C.3   109  LYS109      0.1561
     14  C         12.7840   26.1460   74.3430 C.2   109  LYS109      0.2260
     15  O         13.3720   25.2340   74.8920 O.2   109  LYS109     -0.2867
     16  CB        12.1000   27.3840   76.3990 C.3   109  LYS109      0.0271
     17  CG        12.3980   28.5920   77.3220 C.3   109  LYS109      0.0035
     18  CD        11.5800   28.6180   78.6070 C.3   109  LYS109      0.0206
     19  CE        12.2860   27.8680   79.7080 C.3   109  LYS109      0.1093
     20  NZ        12.1460   26.4450   79.4210 N.3   109  LYS109     -0.1314
     21  N         14.5850   37.4380   74.5410 N.3   160  LYS160     -0.1245
     22  CA        15.9230   37.1860   75.1360 C.3   160  LYS160      0.1561
     23  C         17.0320   37.6400   74.2060 C.2   160  LYS160      0.2260
     24  O         17.4250   36.8980   73.2720 O.2   160  LYS160     -0.2867
     25  CB        16.0300   35.6960   75.4350 C.3   160  LYS160      0.0271
     26  CG        14.8570   35.2290   76.3200 C.3   160  LYS160      0.0035
     27  CD        15.0210   33.7520   76.8120 C.3   160  LYS160      0.0206
     28  CE        14.5000   32.8070   75.7730 C.3   160  LYS160      0.1093
     29  NZ        14.7280   31.3660   76.1260 N.3   160  LYS160     -0.1314
     30  N         14.7330   41.2820   77.7710 N.3   193  GLN193     -0.1231
     31  CA        15.8260   41.0300   78.7130 C.3   193  GLN193      0.1698
     32  C         17.1570   40.7540   78.0520 C.2   193  GLN193      0.2592
     33  O         17.2280   40.4560   76.8360 O.2   193  GLN193     -0.2718
     34  CB        15.4380   39.8680   79.6190 C.3   193  GLN193      0.0381
     35  CG        15.0580   38.5620   78.8560 C.3   193  GLN193      0.0905
     36  CD        14.4110   37.5460   79.7750 C.2   193  GLN193      0.2608
     37  OE1       14.9460   37.2740   80.8580 O.2   193  GLN193     -0.2717
     38  NE2       13.2580   36.9730   79.3610 N.am  193  GLN193     -0.0878
     39  N         18.2270   40.8370   78.8670 N.am  194  ARG194     -0.1980
     40  CA        19.5910   40.4550   78.4530 C.3   194  ARG194      0.1597
     41  C         20.1610   41.3820   77.4400 C.2   194  ARG194      0.2287
     42  O         20.3930   40.9610   76.2930 O.2   194  ARG194     -0.2864
     43  CB        19.6280   39.0300   77.8760 C.3   194  ARG194      0.0334
     44  CG        18.9380   38.0020   78.6930 C.3   194  ARG194      0.0492
     45  CD        19.0260   36.6230   78.0800 C.3   194  ARG194      0.2205
     46  NE        18.3360   35.6600   78.9250 N.pl3 194  ARG194     -0.0865
     47  CZ        18.2590   34.3530   78.6690 C.cat 194  ARG194      0.5346
     48  NH1       18.8320   33.8490   77.5930 N.pl3 194  ARG194      0.1354
     49  NH2       17.5980   33.5470   79.5080 N.pl3 194  ARG194      0.1354
     50  N         23.0420   40.1400   79.0600 N.3   197  ARG197     -0.1245
     51  CA        23.2290   39.4510   80.3390 C.3   197  ARG197      0.1563
     52  C         24.6090   38.7870   80.2210 C.2   197  ARG197      0.2260
     53  O         24.7700   37.9260   79.3740 O.2   197  ARG197     -0.2867
     54  CB        22.2160   38.3260   80.5050 C.3   197  ARG197      0.0307
     55  CG        22.3090   37.5480   81.8270 C.3   197  ARG197      0.0489
     56  CD        21.6870   36.1840   81.6540 C.3   197  ARG197      0.2205
     57  NE        21.3430   35.4840   82.8990 N.pl3 197  ARG197     -0.0865
     58  CZ        22.2280   35.0040   83.7900 C.cat 197  ARG197      0.5346
     59  NH1       23.5340   35.1670   83.6080 N.pl3 197  ARG197      0.1354
     60  NH2       21.7960   34.3350   84.8640 N.pl3 197  ARG197      0.1354
     61  N         27.9590   36.6310   81.9880 N.3   199  ARG199     -0.1245
     62  CA        28.5820   35.8440   83.0800 C.3   199  ARG199      0.1563
     63  C         30.0840   36.0080   82.9460 C.2   199  ARG199      0.2260
     64  O         30.5950   36.0860   81.8280 O.2   199  ARG199     -0.2867
     65  CB        28.2250   34.3500   82.9530 C.3   199  ARG199      0.0307
     66  CG        26.7980   33.9880   83.2800 C.3   199  ARG199      0.0489
     67  CD        26.5800   32.4940   83.1240 C.3   199  ARG199      0.2205
     68  NE        25.3240   32.0340   83.7310 N.pl3 199  ARG199     -0.0865
     69  CZ        24.1930   31.8150   83.0520 C.cat 199  ARG199      0.5346
     70  NH1       24.1250   32.0290   81.7340 N.pl3 199  ARG199      0.1354
     71  NH2       23.1220   31.3870   83.6890 N.pl3 199  ARG199      0.1354
     72  N          6.4840   37.0550   77.3990 N.3   221  ASN221     -0.1240
     73  CA         6.8960   38.3450   77.9680 C.3   221  ASN221      0.1653
     74  C          6.5070   39.5320   77.1140 C.2   221  ASN221      0.2266
     75  O          7.0940   39.7380   76.0600 O.2   221  ASN221     -0.2867
     76  CB         8.4270   38.3470   78.2050 C.3   221  ASN221      0.1155
     77  CG         8.7940   37.6380   79.4710 C.2   221  ASN221      0.2627
     78  OD1        8.2550   37.9170   80.5520 O.2   221  ASN221     -0.2716
     79  ND2        9.7010   36.6990   79.3540 N.am  221  ASN221     -0.0877
     80  N         11.6670   43.5950   81.0170 N.3   225  ILE225     -0.1231
     81  CA        12.0410   43.2990   82.4290 C.3   225  ILE225      0.1692
     82  C         13.3050   44.1480   82.8300 C.2   225  ILE225      0.2592
     83  O         13.2530   45.0260   83.7370 O.2   225  ILE225     -0.2718
     84  CB        12.3550   41.7920   82.6180 C.3   225  ILE225      0.0266
     85  CG1       11.1550   40.9040   82.1860 C.3   225  ILE225      0.0019
     86  CG2       12.6920   41.4790   84.1260 C.3   225  ILE225      0.0020
     87  CD1       11.5210   39.3570   82.0260 C.3   225  ILE225      0.0001
     88  N         14.4200   43.9010   82.1540 N.am  226  TYR226     -0.1976
     89  CA        15.7190   44.5290   82.5990 C.3   226  TYR226      0.1639
     90  C         16.6830   44.6720   81.4340 C.2   226  TYR226      0.2290
     91  O         16.5830   43.9230   80.4490 O.2   226  TYR226     -0.2864
     92  CB        16.3660   43.7170   83.7610 C.3   226  TYR226      0.0560
     93  CG        17.0450   42.4720   83.2780 C.ar  226  TYR226     -0.0198
     94  CD1       18.3140   42.5320   82.7630 C.ar  226  TYR226     -0.0009
     95  CD2       16.4010   41.2210   83.2970 C.ar  226  TYR226     -0.0009
     96  CE1       18.9610   41.3670   82.2030 C.ar  226  TYR226      0.0417
     97  CE2       17.0430   40.0940   82.7690 C.ar  226  TYR226      0.0417
     98  CZ        18.3160   40.1810   82.2500 C.ar  226  TYR226      0.1957
     99  OH        18.9430   39.0790   81.7410 O.3   226  TYR226     -0.2866
    100  N         21.1630   45.3090   86.3120 N.3   261  ARG261     -0.1245
    101  CA        20.7750   44.2890   87.2730 C.3   261  ARG261      0.1563
    102  C         22.0330   43.5410   87.7130 C.2   261  ARG261      0.2260
    103  O         22.8270   43.1620   86.8620 O.2   261  ARG261     -0.2867
    104  CB        19.8410   43.2760   86.5940 C.3   261  ARG261      0.0307
    105  CG        19.2970   42.2590   87.5430 C.3   261  ARG261      0.0489
    106  CD        18.3010   41.3900   86.9130 C.3   261  ARG261      0.2205
    107  NE        17.8200   40.3540   87.8010 N.pl3 261  ARG261     -0.0865
    108  CZ        17.0090   39.3810   87.4010 C.cat 261  ARG261      0.5346
    109  NH1       16.5960   39.3430   86.1380 N.pl3 261  ARG261      0.1354
    110  NH2       16.6020   38.4420   88.2360 N.pl3 261  ARG261      0.1354
    111  N         23.1710   39.9650   89.1100 N.3   263  MET263     -0.1245
    112  CA        22.6280   38.6180   89.2960 C.3   263  MET263      0.1570
    113  C         23.6990   37.6850   89.8600 C.2   263  MET263      0.2261
    114  O         24.8950   37.9850   89.7350 O.2   263  MET263     -0.2867
    115  CB        22.0960   38.0260   87.9750 C.3   263  MET263      0.0387
    116  CG        21.0790   38.9140   87.2500 C.3   263  MET263      0.0595
    117  SD        20.5300   38.1890   85.6870 S.3   263  MET263     -0.1393
    118  CE        19.5090   36.8070   86.2000 C.3   263  MET263      0.0692
@<TRIPOS>BOND
     1    24    23    2
     2    12    13    1
     3    23    22    1
     4    14    15    2
     5    14    13    1
     6    21    22    1
     7     1     2    1
     8    13    16    1
     9     3     2    1
    10     3     4    2
    11    22    25    1
    12    25    26    1
    13     2     5    1
    14    28    29    1
    15    28    27    1
    16    75    74    2
    17    42    41    2
    18    26    27    1
    19    16    17    1
    20    33    32    2
    21     5     6    1
    22    74    73    1
    23    17    18    1
    24    72    73    1
    25    41    40    1
    26    48    47    1
    27    30    31    1
    28     6     7    1
    29    43    40    1
    30    43    44    1
    31    73    76    1
    32    32    31    1
    33    32    39   am
    34    45    44    1
    35    45    46    1
    36    76    77    1
    37    40    39    1
    38    18    19    1
    39    47    46    2
    40    47    49    1
    41    31    34    1
    42    35    34    1
    43    35    36    1
    44    50    51    1
    45     7     8    1
    46    79    77   am
    47    38    36   am
    48    53    52    2
    49    20    19    1
    50    77    78    2
    51    36    37    2
    52     8     9    2
    53    52    51    1
    54    51    54    1
    55    91    90    2
    56    54    55    1
    57     9    10    1
    58     9    11    1
    59    80    81    1
    60    90    89    1
    61    56    55    1
    62    56    57    1
    63    70    69    1
    64    99    98    1
    65    64    63    2
    66    61    62    1
    67    87    85    1
    68    88    89    1
    69    88    82   am
    70    85    84    1
    71    96    98   ar
    72    96    94   ar
    73    98    97   ar
    74    81    84    1
    75    81    82    1
    76    89    92    1
    77    84    86    1
    78    94    93   ar
    79    97    95   ar
    80    82    83    2
    81    57    58    2
    82    63    62    1
    83    65    62    1
    84    65    66    1
    85    69    71    1
    86    69    68    2
    87    67    66    1
    88    67    68    1
    89    93    95   ar
    90    93    92    1
    91    59    58    1
    92    58    60    1
    93   117   118    1
    94   117   116    1
    95   109   108    1
    96   100   101    1
    97   104   101    1
    98   104   105    1
    99   103   102    2
   100   106   105    1
   101   106   107    1
   102   116   115    1
   103   101   102    1
   104   108   107    2
   105   108   110    1
   106   115   112    1
   107   111   112    1
   108   112   113    1
   109   114   113    2
