@<TRIPOS>MOLECULE
tmp/3zseA00.pdb
 167 161 0 0 0
SMALL
GASTEIGER

@<TRIPOS>ATOM
      1  N         -4.8420   27.1500   18.5750 N.3     7  THR7       -0.1218
      2  CA        -5.3820   25.7870   18.7420 C.3     7  THR7        0.1862
      3  C         -6.8340   25.8940   19.1990 C.2     7  THR7        0.2287
      4  O         -7.3010   26.9720   19.5970 O.2     7  THR7       -0.2866
      5  CB        -4.5880   24.9190   19.7800 C.3     7  THR7        0.1770
      6  OG1       -4.9250   25.3050   21.1260 O.3     7  THR7       -0.2211
      7  CG2       -3.0680   25.0120   19.5650 C.3     7  THR7        0.0375
      8  N         -4.4410   22.3500   15.5580 N.3    16  SER16      -0.1217
      9  CA        -3.4080   23.3510   15.7850 C.3    16  SER16       0.1889
     10  C         -3.0300   23.9550   14.4500 C.2    16  SER16       0.2288
     11  O         -3.0080   23.2510   13.4370 O.2    16  SER16      -0.2866
     12  CB        -2.1850   22.7040   16.4450 C.3    16  SER16       0.2089
     13  OG        -1.1590   23.6530   16.6720 O.3    16  SER16      -0.2183
     14  N          0.0550   26.7490   13.0610 N.3    18  TRP18      -0.1241
     15  CA         1.2320   27.5620   13.4020 C.3    18  TRP18       0.1605
     16  C          1.9470   27.9220   12.1200 C.2    18  TRP18       0.2264
     17  O          2.1370   27.0750   11.2520 O.2    18  TRP18      -0.2867
     18  CB         2.1960   26.8060   14.3370 C.3    18  TRP18       0.0550
     19  CG         3.5010   27.5540   14.5180 C.ar   18  TRP18       0.0003
     20  CD1        3.7450   28.5660   15.4150 C.ar   18  TRP18       0.0946
     21  CD2        4.7100   27.4020   13.7480 C.ar   18  TRP18       0.0152
     22  NE1        5.0250   29.0350   15.2620 N.ar   18  TRP18      -0.2442
     23  CE2        5.6480   28.3430   14.2540 C.ar   18  TRP18       0.0810
     24  CE3        5.0920   26.5610   12.6900 C.ar   18  TRP18       0.0012
     25  CZ2        6.9580   28.4730   13.7320 C.ar   18  TRP18       0.0191
     26  CZ3        6.3830   26.6770   12.1730 C.ar   18  TRP18       0.0001
     27  CH2        7.3150   27.6300   12.7060 C.ar   18  TRP18       0.0015
     28  N          7.5810   28.6230    7.0660 N.3    44  ASN44      -0.1240
     29  CA         7.3160   27.3020    7.6470 C.3    44  ASN44       0.1653
     30  C          5.9190   27.3540    8.3010 C.2    44  ASN44       0.2266
     31  O          5.5390   28.3610    8.9070 O.2    44  ASN44      -0.2867
     32  CB         8.3990   26.9630    8.6820 C.3    44  ASN44       0.1155
     33  CG         8.3740   25.4880    9.1480 C.2    44  ASN44       0.2627
     34  OD1        8.8710   25.1910   10.2410 O.2    44  ASN44      -0.2716
     35  ND2        7.8090   24.5670    8.3270 N.am   44  ASN44      -0.0877
     36  N          2.8680   24.4270   10.1690 N.3    46  VAL46      -0.1245
     37  CA         2.3510   23.1070   10.4750 C.3    46  VAL46       0.1561
     38  C          0.9120   23.3030   10.9180 C.2    46  VAL46       0.2260
     39  O          0.6490   24.1030   11.8310 O.2    46  VAL46      -0.2867
     40  CB         3.1300   22.4130   11.6120 C.3    46  VAL46       0.0252
     41  CG1        2.4130   21.0700   11.9640 C.3    46  VAL46       0.0019
     42  CG2        4.5840   22.1810   11.2040 C.3    46  VAL46       0.0019
     43  N          2.0680   14.0920   13.5670 N.3    76  TYR76      -0.1241
     44  CA         2.9230   15.1330   14.1680 C.3    76  TYR76       0.1605
     45  C          2.4430   15.4450   15.5790 C.2    76  TYR76       0.2264
     46  O          1.2320   15.5590   15.8210 O.2    76  TYR76      -0.2867
     47  CB         2.8390   16.3930   13.3160 C.3    76  TYR76       0.0534
     48  CG         3.4730   17.6380   13.8980 C.ar   76  TYR76      -0.0201
     49  CD1        2.7420   18.5130   14.7040 C.ar   76  TYR76      -0.0009
     50  CD2        4.7860   17.9560   13.6140 C.ar   76  TYR76      -0.0009
     51  CE1        3.3210   19.6770   15.1950 C.ar   76  TYR76       0.0417
     52  CE2        5.3830   19.0940   14.1210 C.ar   76  TYR76       0.0417
     53  CZ         4.6400   19.9580   14.9180 C.ar   76  TYR76       0.1957
     54  OH         5.2290   21.1140   15.4110 O.3    76  TYR76      -0.2866
     55  N          3.9230   16.4550   20.0150 N.3    78  TRP78      -0.1241
     56  CA         4.8970   16.8460   21.0060 C.3    78  TRP78       0.1605
     57  C          4.7380   16.0550   22.2910 C.2    78  TRP78       0.2264
     58  O          3.6240   15.6200   22.6340 O.2    78  TRP78      -0.2867
     59  CB         4.6660   18.3010   21.3850 C.3    78  TRP78       0.0550
     60  CG         4.9180   19.2770   20.2980 C.ar   78  TRP78       0.0003
     61  CD1        4.0360   19.7100   19.3420 C.ar   78  TRP78       0.0946
     62  CD2        6.1460   19.9720   20.0680 C.ar   78  TRP78       0.0152
     63  NE1        4.6630   20.6420   18.5280 N.ar   78  TRP78      -0.2442
     64  CE2        5.9530   20.8160   18.9570 C.ar   78  TRP78       0.0810
     65  CE3        7.4010   19.9550   20.6990 C.ar   78  TRP78       0.0012
     66  CZ2        6.9750   21.6450   18.4510 C.ar   78  TRP78       0.0191
     67  CZ3        8.4190   20.7940   20.2000 C.ar   78  TRP78       0.0001
     68  CH2        8.1900   21.6200   19.0920 C.ar   78  TRP78       0.0015
     69  N          9.5950   17.0130   19.5770 N.3    85  GLU85      -0.1245
     70  CA         8.7120   17.1090   18.4210 C.3    85  GLU85       0.1567
     71  C          8.8570   15.8290   17.6190 C.2    85  GLU85       0.2260
     72  O          9.9660   15.3770   17.3570 O.2    85  GLU85      -0.2867
     73  CB         9.0930   18.3200   17.5810 C.3    85  GLU85       0.0388
     74  CG         8.0930   18.6800   16.4810 C.3    85  GLU85       0.1160
     75  CD         8.6840   19.7090   15.5420 C.2    85  GLU85       0.3649
     76  OE1        9.7740   19.4370   15.0190 O.co2  85  GLU85      -0.2457
     77  OE2        8.0810   20.8060   15.3580 O.co2  85  GLU85      -0.2457
     78  N          7.4740   13.0510   14.3320 N.3    87  TYR87      -0.1241
     79  CA         6.9000   12.8880   13.0110 C.3    87  TYR87       0.1605
     80  C          6.7980   11.4250   12.6280 C.2    87  TYR87       0.2264
     81  O          7.7510   10.6510   12.8190 O.2    87  TYR87      -0.2867
     82  CB         7.8110   13.4950   11.9670 C.3    87  TYR87       0.0534
     83  CG         7.9400   15.0050   11.9790 C.ar   87  TYR87      -0.0201
     84  CD1        8.8530   15.6560   12.8060 C.ar   87  TYR87      -0.0009
     85  CD2        7.1630   15.7730   11.1380 C.ar   87  TYR87      -0.0009
     86  CE1        8.9790   17.0840   12.7780 C.ar   87  TYR87       0.0417
     87  CE2        7.2800   17.1740   11.1050 C.ar   87  TYR87       0.0417
     88  CZ         8.1850   17.8110   11.9200 C.ar   87  TYR87       0.1957
     89  OH         8.2610   19.1980   11.8320 O.3    87  TYR87      -0.2866
     90  N         16.4810   20.5380   16.7930 N.3   119  ARG119     -0.1245
     91  CA        16.2680   21.9610   16.4590 C.3   119  ARG119      0.1563
     92  C         16.7910   22.8350   17.5960 C.2   119  ARG119      0.2260
     93  O         16.5870   22.5080   18.7660 O.2   119  ARG119     -0.2867
     94  CB        14.7880   22.2620   16.2030 C.3   119  ARG119      0.0307
     95  CG        14.1970   21.6340   14.9590 C.3   119  ARG119      0.0489
     96  CD        14.6460   22.2850   13.6330 C.3   119  ARG119      0.2205
     97  NE        14.5990   23.7440   13.7000 N.pl3 119  ARG119     -0.0865
     98  CZ        13.5990   24.4980   13.2540 C.cat 119  ARG119      0.5346
     99  NH1       12.5470   23.9560   12.6720 N.pl3 119  ARG119      0.1354
    100  NH2       13.6720   25.8170   13.3740 N.pl3 119  ARG119      0.1354
    101  N         14.4370   27.3190   18.7200 N.3   122  ALA122     -0.1231
    102  CA        13.3950   27.1670   17.6990 C.3   122  ALA122      0.1679
    103  C         12.0160   27.2640   18.3380 C.2   122  ALA122      0.2434
    104  O         11.8790   26.9890   19.5400 O.2   122  ALA122     -0.2733
    105  CB        13.5580   25.8060   16.9940 C.3   122  ALA122      0.0304
    106  N         10.9890   27.6780   17.5570 N.am  123  PRO123     -0.2718
    107  CA         9.6610   27.6990   18.1630 C.3   123  PRO123      0.1535
    108  C          9.2290   26.2970   18.6440 C.2   123  PRO123      0.2599
    109  O          9.5620   25.2880   18.0110 O.2   123  PRO123     -0.2715
    110  CB         8.7570   28.1860   17.0140 C.3   123  PRO123      0.0310
    111  CG         9.6680   28.9280   16.0900 C.3   123  PRO123      0.0237
    112  CD        10.9450   28.1210   16.1440 C.3   123  PRO123      0.0939
    113  N          8.5110   26.2460   19.7650 N.am  124  SER124     -0.1936
    114  CA         8.0360   24.9820   20.3290 C.3   124  SER124      0.2055
    115  C          6.7820   25.2750   21.1510 C.2   124  SER124      0.2642
    116  O          6.4490   26.4480   21.4070 O.2   124  SER124     -0.2714
    117  CB         9.1090   24.3290   21.2190 C.3   124  SER124      0.2130
    118  OG         8.9790   24.7930   22.5610 O.3   124  SER124     -0.2179
    119  N          6.1050   24.2230   21.5910 N.am  125  ILE125     -0.1977
    120  CA         4.9770   24.3990   22.5310 C.3   125  ILE125      0.1596
    121  C          5.4280   25.0320   23.8560 C.2   125  ILE125      0.2287
    122  O          4.6050   25.5780   24.5980 O.2   125  ILE125     -0.2864
    123  CB         4.2050   23.0950   22.7840 C.3   125  ILE125      0.0276
    124  CG1        5.1350   21.9880   23.2980 C.3   125  ILE125      0.0022
    125  CG2        3.4710   22.6770   21.4970 C.3   125  ILE125      0.0022
    126  CD1        4.3920   20.8400   23.9930 C.3   125  ILE125      0.0001
    127  N         15.5030   21.2300   21.2230 N.3   131  PHE131     -0.1241
    128  CA        14.7840   19.9750   21.4060 C.3   131  PHE131      0.1605
    129  C         15.0520   19.0090   20.2580 C.2   131  PHE131      0.2264
    130  O         15.2560   19.4190   19.1010 O.2   131  PHE131     -0.2867
    131  CB        13.2730   20.2290   21.5510 C.3   131  PHE131      0.0534
    132  CG        12.6560   20.9700   20.3860 C.ar  131  PHE131     -0.0203
    133  CD1       12.6100   22.3640   20.3700 C.ar  131  PHE131     -0.0042
    134  CD2       12.1210   20.2690   19.3000 C.ar  131  PHE131     -0.0042
    135  CE1       12.0390   23.0540   19.2960 C.ar  131  PHE131     -0.0003
    136  CE2       11.5430   20.9460   18.2180 C.ar  131  PHE131     -0.0003
    137  CZ        11.5100   22.3520   18.2220 C.ar  131  PHE131     -0.0000
    138  N         14.0160   16.1290   17.5160 N.3   133  GLN133     -0.1245
    139  CA        12.8870   15.6800   16.7180 C.3   133  GLN133      0.1566
    140  C         13.0460   14.1720   16.4590 C.2   133  GLN133      0.2260
    141  O         14.1300   13.6950   16.1170 O.2   133  GLN133     -0.2867
    142  CB        12.7950   16.4480   15.4040 C.3   133  GLN133      0.0367
    143  CG        12.7890   17.9800   15.5500 C.3   133  GLN133      0.0905
    144  CD        13.1420   18.6360   14.2460 C.2   133  GLN133      0.2608
    145  OE1       14.2480   18.4660   13.7570 O.2   133  GLN133     -0.2717
    146  NE2       12.1840   19.3510   13.6400 N.am  133  GLN133     -0.0878
    147  N         -0.0840   17.4710   22.2490 N.3   168  TYR168     -0.1241
    148  CA        -1.0230   17.2380   21.1350 C.3   168  TYR168      0.1605
    149  C         -0.4880   16.2870   20.0700 C.2   168  TYR168      0.2264
    150  O          0.7180   16.0030   20.0170 O.2   168  TYR168     -0.2867
    151  CB        -1.5860   18.5430   20.5260 C.3   168  TYR168      0.0534
    152  CG        -0.6260   19.4000   19.6830 C.ar  168  TYR168     -0.0201
    153  CD1       -0.2660   19.0290   18.3790 C.ar  168  TYR168     -0.0009
    154  CD2       -0.1370   20.6170   20.1730 C.ar  168  TYR168     -0.0009
    155  CE1        0.5850   19.8310   17.6060 C.ar  168  TYR168      0.0417
    156  CE2        0.7530   21.4240   19.4170 C.ar  168  TYR168      0.0417
    157  CZ         1.0850   21.0350   18.1360 C.ar  168  TYR168      0.1957
    158  OH         1.9450   21.8200   17.3930 O.3   168  TYR168     -0.2866
    159  N          2.6850   20.0800    6.5850 N.3   174  GLU174     -0.1245
    160  CA         3.7840   21.0130    6.8480 C.3   174  GLU174      0.1567
    161  C          4.3320   21.4780    5.5130 C.2   174  GLU174      0.2260
    162  O          4.5990   20.6590    4.6350 O.2   174  GLU174     -0.2867
    163  CB         4.9200   20.3740    7.6790 C.3   174  GLU174      0.0388
    164  CG         6.2150   21.2380    7.7370 C.3   174  GLU174      0.1160
    165  CD         7.1370   20.9150    8.9110 C.2   174  GLU174      0.3649
    166  OE1        6.8350   19.9980    9.6750 O.co2 174  GLU174     -0.2457
    167  OE2        8.1750   21.5980    9.0680 O.co2 174  GLU174     -0.2457
@<TRIPOS>BOND
     1   162   161    2
     2   161   160    1
     3   159   160    1
     4   160   163    1
     5    28    29    1
     6    29    30    1
     7    29    32    1
     8   163   164    1
     9   164   165    1
    10    30    31    2
    11    35    33   am
    12    32    33    1
    13   165   167   ar
    14   165   166   ar
    15    33    34    2
    16    36    37    1
    17    37    38    1
    18    37    40    1
    19    38    39    2
    20    87    85   ar
    21    87    88   ar
    22    85    83   ar
    23    42    40    1
    24    17    16    2
    25    40    41    1
    26    89    88    1
    27    88    86   ar
    28    82    83    1
    29    82    79    1
    30    83    84   ar
    31    16    15    1
    32    26    24   ar
    33    26    27   ar
    34    80    81    2
    35    80    79    1
    36    99    98    1
    37    24    21   ar
    38    27    25   ar
    39    86    84   ar
    40    79    78    1
    41    14    15    1
    42    98   100    1
    43    98    97    2
    44    47    48    1
    45    47    44    1
    46    15    18    1
    47    11    10    2
    48    43    44    1
    49    50    48   ar
    50    50    52   ar
    51    96    97    1
    52    96    95    1
    53   146   144   am
    54    25    23   ar
    55    21    23   ar
    56    21    19   ar
    57   145   144    2
    58    48    49   ar
    59    52    53   ar
    60    44    45    1
    61   144   143    1
    62    23    22   ar
    63    18    19    1
    64    10     9    1
    65    19    20   ar
    66    49    51   ar
    67    53    51   ar
    68    53    54    1
    69    95    94    1
    70    76    75   ar
    71    22    20   ar
    72    77    75   ar
    73   142   143    1
    74   142   139    1
    75    75    74    1
    76     8     9    1
    77    45    46    2
    78     9    12    1
    79   111   112    1
    80   111   110    1
    81   141   140    2
    82   112   106    1
    83    94    91    1
    84    12    13    1
    85    91    90    1
    86    91    92    1
    87   140   139    1
    88    74    73    1
    89   139   138    1
    90   105   102    1
    91   110   107    1
    92    72    71    2
    93   158   157    1
    94   106   107    1
    95   106   103   am
    96    73    70    1
    97    92    93    2
    98   155   157   ar
    99   155   153   ar
   100    71    70    1
   101   102   103    1
   102   102   101    1
   103   109   108    2
   104   157   156   ar
   105   107   108    1
   106   136   137   ar
   107   136   134   ar
   108   137   135   ar
   109   103   104    2
   110   153   152   ar
   111    70    69    1
   112    66    64   ar
   113    66    68   ar
   114    63    64   ar
   115    63    61   ar
   116     1     2    1
   117   108   113   am
   118     2     3    1
   119     2     5    1
   120    64    62   ar
   121    68    67   ar
   122   130   129    2
   123     3     4    2
   124   135   133   ar
   125   134   132   ar
   126    61    60   ar
   127   156   154   ar
   128     7     5    1
   129   152   154   ar
   130   152   151    1
   131   113   114    1
   132     5     6    1
   133    55    56    1
   134   150   149    2
   135    62    60   ar
   136    62    65   ar
   137   149   148    1
   138    67    65   ar
   139   129   128    1
   140    60    59    1
   141   114   115    1
   142   114   117    1
   143   133   132   ar
   144   132   131    1
   145   151   148    1
   146    56    59    1
   147    56    57    1
   148   148   147    1
   149   115   116    2
   150   115   119   am
   151   117   118    1
   152   127   128    1
   153   128   131    1
   154   125   123    1
   155   119   120    1
   156    57    58    2
   157   120   123    1
   158   120   121    1
   159   123   124    1
   160   124   126    1
   161   121   122    2
