@<TRIPOS>MOLECULE
tmp/3zsgA00.pdb
 144 136 0 0 0
SMALL
GASTEIGER

@<TRIPOS>ATOM
      1  N         28.5010   42.6000   15.2040 N.3    27  VAL27      -0.1245
      2  CA        27.1230   43.0220   15.0160 C.3    27  VAL27       0.1561
      3  C         26.6330   43.5640   16.3480 C.2    27  VAL27       0.2260
      4  O         26.0350   44.6230   16.4150 O.2    27  VAL27      -0.2867
      5  CB        26.2260   41.8430   14.5790 C.3    27  VAL27       0.0252
      6  CG1       24.8170   42.3190   14.3320 C.3    27  VAL27       0.0019
      7  CG2       26.7930   41.1700   13.3350 C.3    27  VAL27       0.0019
      8  N         25.6910   37.1760   27.1960 N.3    32  TYR32      -0.1241
      9  CA        25.8210   35.8550   26.5530 C.3    32  TYR32       0.1605
     10  C         27.1540   35.6270   25.8270 C.2    32  TYR32       0.2264
     11  O         27.6160   34.4780   25.6860 O.2    32  TYR32      -0.2867
     12  CB        24.6940   35.6930   25.5210 C.3    32  TYR32       0.0534
     13  CG        24.7890   36.6930   24.3740 C.ar   32  TYR32      -0.0201
     14  CD1       25.6000   36.4360   23.2640 C.ar   32  TYR32      -0.0009
     15  CD2       24.1000   37.9090   24.4170 C.ar   32  TYR32      -0.0009
     16  CE1       25.7150   37.3500   22.2240 C.ar   32  TYR32       0.0417
     17  CE2       24.2050   38.8340   23.3770 C.ar   32  TYR32       0.0417
     18  CZ        25.0160   38.5460   22.2820 C.ar   32  TYR32       0.1957
     19  OH        25.1300   39.4460   21.2460 O.3    32  TYR32      -0.2866
     20  N         28.7750   38.5900   18.8120 N.3    35  VAL35      -0.1245
     21  CA        28.4320   38.0610   17.5040 C.3    35  VAL35       0.1561
     22  C         29.0890   38.9300   16.4470 C.2    35  VAL35       0.2260
     23  O         28.9190   40.1590   16.4650 O.2    35  VAL35      -0.2867
     24  CB        26.8850   38.0820   17.3260 C.3    35  VAL35       0.0252
     25  CG1       26.4560   37.6580   15.9250 C.3    35  VAL35       0.0019
     26  CG2       26.2330   37.2030   18.3850 C.3    35  VAL35       0.0019
     27  N         29.4910   39.3380   12.1750 N.3    37  ALA37      -0.1245
     28  CA        29.1930   38.9490   10.8080 C.3    37  ALA37       0.1562
     29  C         30.5100   38.5510   10.1570 C.2    37  ALA37       0.2260
     30  O         31.5460   39.1120   10.4660 O.2    37  ALA37      -0.2867
     31  CB        28.5630   40.1110   10.0460 C.3    37  ALA37       0.0290
     32  N         26.9770   34.4510   10.7430 N.3    48  ALA48      -0.1245
     33  CA        27.1900   35.0940   12.0220 C.3    48  ALA48       0.1562
     34  C         27.9870   34.1210   12.8530 C.2    48  ALA48       0.2260
     35  O         27.6470   32.9300   12.9070 O.2    48  ALA48      -0.2867
     36  CB        25.8780   35.3940   12.7050 C.3    48  ALA48       0.0290
     37  N         29.3340   33.5000   16.7290 N.3    50  LYS50      -0.1245
     38  CA        29.1330   33.8780   18.1190 C.3    50  LYS50       0.1561
     39  C         30.1320   33.1890   19.0280 C.2    50  LYS50       0.2260
     40  O         30.2080   31.9600   19.0460 O.2    50  LYS50      -0.2867
     41  CB        27.7410   33.5010   18.5760 C.3    50  LYS50       0.0271
     42  CG        27.5150   33.8020   20.0560 C.3    50  LYS50       0.0035
     43  CD        26.0350   33.8990   20.3610 C.3    50  LYS50       0.0206
     44  CE        25.3850   32.5570   20.4240 C.3    50  LYS50       0.1093
     45  NZ        23.8850   32.6910   20.3230 N.3    50  LYS50      -0.1314
     46  N         20.7410   23.3670   19.2880 N.3    72  LEU72      -0.1245
     47  CA        21.1910   23.8410   17.9830 C.3    72  LEU72       0.1561
     48  C         21.5500   22.6880   17.0510 C.2    72  LEU72       0.2260
     49  O         21.1810   22.7150   15.8770 O.2    72  LEU72      -0.2867
     50  CB        22.3820   24.7990   18.1440 C.3    72  LEU72       0.0270
     51  CG        21.9630   26.2220   18.5490 C.3    72  LEU72       0.0019
     52  CD1       23.1520   27.0780   18.9710 C.3    72  LEU72       0.0001
     53  CD2       21.2230   26.8950   17.4020 C.3    72  LEU72       0.0001
     54  N         16.0790   28.1490   13.3650 N.3    81  ILE81      -0.1245
     55  CA        17.5120   28.4350   13.3850 C.3    81  ILE81       0.1561
     56  C         18.2650   27.1190   13.5780 C.2    81  ILE81       0.2260
     57  O         17.8460   26.2530   14.3570 O.2    81  ILE81      -0.2867
     58  CB        17.9030   29.4480   14.4820 C.3    81  ILE81       0.0252
     59  CG1       19.3590   29.9230   14.2680 C.3    81  ILE81       0.0019
     60  CG2       17.6150   28.8800   15.8590 C.3    81  ILE81       0.0019
     61  CD1       20.0640   30.3320   15.5230 C.3    81  ILE81       0.0001
     62  N         22.5340   25.1700   12.8780 N.3    83  LEU83      -0.1245
     63  CA        23.9610   25.3380   13.0230 C.3    83  LEU83       0.1561
     64  C         24.6730   24.9820   11.7180 C.2    83  LEU83       0.2260
     65  O         24.4840   23.9030   11.1570 O.2    83  LEU83      -0.2867
     66  CB        24.4270   24.4520   14.1780 C.3    83  LEU83       0.0270
     67  CG        25.6540   24.8010   15.0080 C.3    83  LEU83       0.0019
     68  CD1       25.6270   26.2510   15.5210 C.3    83  LEU83       0.0001
     69  CD2       25.7290   23.7950   16.1670 C.3    83  LEU83       0.0001
     70  N         29.9390   29.3990   17.7640 N.3   101  LEU101     -0.1231
     71  CA        28.7980   28.9050   17.0220 C.3   101  LEU101      0.1693
     72  C         28.6030   29.7060   15.7350 C.2   101  LEU101      0.2592
     73  O         28.7070   30.9390   15.7450 O.2   101  LEU101     -0.2718
     74  CB        27.5530   29.0440   17.8920 C.3   101  LEU101      0.0284
     75  CG        27.6430   28.3570   19.2580 C.3   101  LEU101      0.0019
     76  CD1       26.4310   28.6890   20.1120 C.3   101  LEU101      0.0001
     77  CD2       27.7650   26.8380   19.0770 C.3   101  LEU101      0.0001
     78  N         28.2950   29.0020   14.6460 N.am  102  VAL102     -0.1966
     79  CA        28.1000   29.6290   13.3350 C.3   102  VAL102      0.1727
     80  C         26.7210   29.3400   12.7640 C.2   102  VAL102      0.2617
     81  O         26.2990   28.1860   12.6930 O.2   102  VAL102     -0.2715
     82  CB        29.1440   29.1620   12.3140 C.3   102  VAL102      0.0290
     83  CG1       28.9900   29.9480   10.9820 C.3   102  VAL102      0.0023
     84  CG2       30.5620   29.3550   12.8680 C.3   102  VAL102      0.0023
     85  N         26.0230   30.3870   12.3380 N.am  103  THR103     -0.1937
     86  CA        24.7470   30.2220   11.6170 C.3   103  THR103      0.2028
     87  C         24.6640   31.2060   10.4380 C.2   103  THR103      0.2642
     88  O         25.5660   32.0220   10.2290 O.2   103  THR103     -0.2714
     89  CB        23.5240   30.4130   12.5550 C.3   103  THR103      0.1808
     90  OG1       22.3530   29.8680   11.9380 O.3   103  THR103     -0.2208
     91  CG2       23.2880   31.8920   12.8520 C.3   103  THR103      0.0379
     92  N         23.5800   31.1260    9.6740 N.am  104  HIS104     -0.1959
     93  CA        23.3290   32.0720    8.5770 C.3   104  HIS104      0.1787
     94  C         23.2220   33.4870    9.1240 C.2   104  HIS104      0.2620
     95  O         22.6030   33.7000   10.1690 O.2   104  HIS104     -0.2715
     96  CB        22.0090   31.7480    7.8560 C.3   104  HIS104      0.0785
     97  CG        22.0390   30.4870    7.0630 C.ar  104  HIS104      0.0821
     98  ND1       22.6880   30.3880    5.8500 N.ar  104  HIS104     -0.2267
     99  CD2       21.4890   29.2720    7.2980 C.ar  104  HIS104      0.1154
    100  CE1       22.5480   29.1590    5.3820 C.ar  104  HIS104      0.1986
    101  NE2       21.8210   28.4660    6.2370 N.ar  104  HIS104     -0.2212
    102  N         23.8250   34.4490    8.4330 N.am  105  LEU105     -0.1963
    103  CA        23.6960   35.8410    8.8160 C.3   105  LEU105      0.1728
    104  C         22.2580   36.2590    8.5250 C.2   105  LEU105      0.2616
    105  O         21.7320   36.0270    7.4280 O.2   105  LEU105     -0.2715
    106  CB        24.6960   36.7270    8.0630 C.3   105  LEU105      0.0311
    107  CG        24.7010   38.2130    8.4420 C.3   105  LEU105      0.0022
    108  CD1       25.0190   38.3670    9.9420 C.3   105  LEU105      0.0001
    109  CD2       25.6920   38.9800    7.5790 C.3   105  LEU105      0.0001
    110  N         21.6220   36.8450    9.5230 N.am  106  MET106     -0.1963
    111  CA        20.2530   37.3200    9.4020 C.3   106  MET106      0.1736
    112  C         20.2190   38.8210    9.6080 C.2   106  MET106      0.2617
    113  O         20.9610   39.3490   10.4260 O.2   106  MET106     -0.2715
    114  CB        19.3830   36.5910   10.4120 C.3   106  MET106      0.0427
    115  CG        19.3290   35.0940   10.1170 C.3   106  MET106      0.0599
    116  SD        18.4580   34.1600   11.3680 S.3   106  MET106     -0.1393
    117  CE        19.4690   34.3870   12.8290 C.3   106  MET106      0.0692
    118  N         19.3730   39.5160    8.8590 N.am  107  GLY107     -0.1955
    119  CA        19.4340   40.9820    8.8210 C.3   107  GLY107      0.1869
    120  C         18.1520   41.7280    9.1350 C.2   107  GLY107      0.2309
    121  O         18.1240   42.9610    9.0780 O.2   107  GLY107     -0.2863
    122  N         16.1110   34.0340   20.2590 N.3   166  PHE166     -0.1227
    123  CA        16.7690   35.2910   20.6210 C.3   166  PHE166      0.1736
    124  C         16.3860   36.3600   19.6170 C.2   166  PHE166      0.2596
    125  O         15.9130   36.0420   18.5250 O.2   166  PHE166     -0.2718
    126  CB        18.2880   35.1290   20.5930 C.3   166  PHE166      0.0547
    127  CG        18.8220   34.5830   19.2890 C.ar  166  PHE166     -0.0202
    128  CD1       19.1030   35.4280   18.2250 C.ar  166  PHE166     -0.0042
    129  CD2       19.0600   33.2250   19.1360 C.ar  166  PHE166     -0.0042
    130  CE1       19.6110   34.9260   17.0350 C.ar  166  PHE166     -0.0003
    131  CE2       19.5610   32.7170   17.9460 C.ar  166  PHE166     -0.0003
    132  CZ        19.8360   33.5560   16.8980 C.ar  166  PHE166     -0.0000
    133  N         16.6540   37.6160   19.9640 N.am  167  GLY167     -0.1942
    134  CA        16.4530   38.7430   19.0620 C.3   167  GLY167      0.2014
    135  C         17.7200   39.1120   18.2970 C.2   167  GLY167      0.2638
    136  O         18.8390   38.8200   18.7330 O.2   167  GLY167     -0.2714
    137  N         17.5480   39.7400   17.1420 N.am  168  LEU168     -0.1977
    138  CA        18.6840   40.2450   16.3830 C.3   168  LEU168      0.1596
    139  C         19.1490   41.5890   16.9820 C.2   168  LEU168      0.2287
    140  O         20.3130   41.9800   16.8110 O.2   168  LEU168     -0.2864
    141  CB        18.3180   40.4030   14.9090 C.3   168  LEU168      0.0297
    142  CG        17.8390   39.1510   14.1710 C.3   168  LEU168      0.0022
    143  CD1       17.4940   39.5310   12.7390 C.3   168  LEU168      0.0001
    144  CD2       18.8670   38.0210   14.1990 C.3   168  LEU168      0.0001
@<TRIPOS>BOND
     1   100    98   ar
     2   100   101   ar
     3    98    97   ar
     4   101    99   ar
     5    97    99   ar
     6    97    96    1
     7   105   104    2
     8   109   107    1
     9    96    93    1
    10   106   107    1
    11   106   103    1
    12   102   103    1
    13   102    94   am
    14   107   108    1
    15   104   103    1
    16   104   110   am
    17    93    94    1
    18    93    92    1
    19   119   118    1
    20   119   120    1
    21   118   112   am
    22   121   120    2
    23    94    95    2
    24   111   110    1
    25   111   112    1
    26   111   114    1
    27   112   113    2
    28    92    87   am
    29    31    28    1
    30   115   114    1
    31   115   116    1
    32    29    30    2
    33    29    28    1
    34    88    87    2
    35    87    86    1
    36    32    33    1
    37    28    27    1
    38    83    82    1
    39    65    64    2
    40   116   117    1
    41    86    85    1
    42    86    89    1
    43    64    63    1
    44    90    89    1
    45    33    36    1
    46    33    34    1
    47    82    84    1
    48    82    79    1
    49    85    80   am
    50    89    91    1
    51    81    80    2
    52   143   142    1
    53    80    79    1
    54    34    35    2
    55    62    63    1
    56    63    66    1
    57    79    78    1
    58     7     5    1
    59    54    55    1
    60    55    56    1
    61    55    58    1
    62    56    57    2
    63   142   144    1
    64   142   141    1
    65    66    67    1
    66    59    58    1
    67    59    61    1
    68     6     5    1
    69    58    60    1
    70     5     2    1
    71    78    72   am
    72   141   138    1
    73    67    68    1
    74    67    69    1
    75     2     1    1
    76     2     3    1
    77    72    73    2
    78    72    71    1
    79    49    48    2
    80    25    24    1
    81     3     4    2
    82   138   139    1
    83   138   137    1
    84    22    23    2
    85    22    21    1
    86    37    38    1
    87   140   139    2
    88   132   130   ar
    89   132   131   ar
    90    71    70    1
    91    71    74    1
    92   130   128   ar
    93    48    47    1
    94   137   135   am
    95    24    21    1
    96    24    26    1
    97    53    51    1
    98    21    20    1
    99    74    75    1
   100   131   129   ar
   101    47    50    1
   102    47    46    1
   103    38    41    1
   104    38    39    1
   105    50    51    1
   106   128   127   ar
   107   135   136    2
   108   135   134    1
   109   125   124    2
   110    51    52    1
   111    41    42    1
   112    39    40    2
   113   134   133    1
   114    77    75    1
   115   129   127   ar
   116    75    76    1
   117   127   126    1
   118   124   133   am
   119   124   123    1
   120    42    43    1
   121   122   123    1
   122    45    44    1
   123    43    44    1
   124   126   123    1
   125    19    18    1
   126    16    18   ar
   127    16    14   ar
   128    18    17   ar
   129    14    13   ar
   130    17    15   ar
   131    13    15   ar
   132    13    12    1
   133    12     9    1
   134    11    10    2
   135    10     9    1
   136     9     8    1
