@<TRIPOS>MOLECULE
tmp/3zsiA00.pdb
 175 165 0 0 0
SMALL
GASTEIGER

@<TRIPOS>ATOM
      1  N         -8.1640    0.8470   28.0550 N.3    25  VAL25      -0.1245
      2  CA        -6.7370    0.5210   28.1660 C.3    25  VAL25       0.1561
      3  C         -5.8620    1.7700   28.2920 C.2    25  VAL25       0.2260
      4  O         -4.8580    1.7640   29.0070 O.2    25  VAL25      -0.2867
      5  CB        -6.2650   -0.3000   26.9400 C.3    25  VAL25       0.0252
      6  CG1       -4.7440   -0.4090   26.9060 C.3    25  VAL25       0.0019
      7  CG2       -6.9050   -1.6870   26.9470 C.3    25  VAL25       0.0019
      8  N         -8.0300    3.6720   23.1700 N.3    33  VAL33      -0.1245
      9  CA        -8.0590    2.2330   22.9260 C.3    33  VAL33       0.1561
     10  C         -8.7450    1.4620   24.0480 C.2    33  VAL33       0.2260
     11  O         -8.5020    1.7220   25.2250 O.2    33  VAL33      -0.2867
     12  CB        -6.6340    1.6820   22.7620 C.3    33  VAL33       0.0252
     13  CG1       -6.6730    0.2260   22.3190 C.3    33  VAL33       0.0019
     14  CG2       -5.8560    2.5260   21.7660 C.3    33  VAL33       0.0019
     15  N         -7.7840   -5.3580   20.4270 N.3    46  ALA46      -0.1245
     16  CA        -7.6350   -3.9510   20.7620 C.3    46  ALA46       0.1562
     17  C         -8.4490   -3.1390   19.7680 C.2    46  ALA46       0.2260
     18  O         -8.2930   -3.3080   18.5600 O.2    46  ALA46      -0.2867
     19  CB        -6.1720   -3.5450   20.7130 C.3    46  ALA46       0.0290
     20  N         -9.3350    0.7380   18.5940 N.3    48  LYS48      -0.1245
     21  CA        -8.9640    2.1520   18.6760 C.3    48  LYS48       0.1561
     22  C        -10.0300    3.0290   18.0470 C.2    48  LYS48       0.2260
     23  O        -10.3500    2.8690   16.8730 O.2    48  LYS48      -0.2867
     24  CB        -7.6220    2.4100   17.9830 C.3    48  LYS48       0.0271
     25  CG        -6.8950    3.6520   18.5010 C.3    48  LYS48       0.0035
     26  CD        -6.7660    4.7710   17.4790 C.3    48  LYS48       0.0206
     27  CE        -5.4630    4.6750   16.6970 C.3    48  LYS48       0.1093
     28  NZ        -4.9320    6.0180   16.3220 N.3    48  LYS48      -0.1314
     29  N         -2.5380    0.6220    7.7240 N.3    70  LEU70      -0.1245
     30  CA        -2.9060   -0.6080    8.4230 C.3    70  LEU70       0.1561
     31  C         -3.6370   -1.6050    7.5240 C.2    70  LEU70       0.2260
     32  O         -3.5450   -2.8140    7.7410 O.2    70  LEU70      -0.2867
     33  CB        -3.7280   -0.2890    9.6750 C.3    70  LEU70       0.0270
     34  CG        -2.9790    0.5600   10.7120 C.3    70  LEU70       0.0019
     35  CD1       -3.7860    0.6900   11.9890 C.3    70  LEU70       0.0001
     36  CD2       -1.6010   -0.0280   11.0080 C.3    70  LEU70       0.0001
     37  N          1.4440   -4.5880   13.2390 N.3    79  ILE79      -0.1245
     38  CA         0.0160   -4.4520   13.5230 C.3    79  ILE79       0.1561
     39  C         -0.7850   -4.2400   12.2500 C.2    79  ILE79       0.2260
     40  O         -0.5130   -3.3140   11.4840 O.2    79  ILE79      -0.2867
     41  CB        -0.2630   -3.2740   14.4770 C.3    79  ILE79       0.0252
     42  CG1        0.2110   -3.6200   15.8920 C.3    79  ILE79       0.0019
     43  CG2       -1.7420   -2.9220   14.4850 C.3    79  ILE79       0.0019
     44  CD1       -0.5690   -4.7310   16.5600 C.3    79  ILE79       0.0001
     45  N         -5.0750   -4.9470   10.4760 N.3    81  LEU81      -0.1245
     46  CA        -6.4940   -4.8240   10.7950 C.3    81  LEU81       0.1561
     47  C         -7.2530   -6.1400   10.6730 C.2    81  LEU81       0.2260
     48  O         -7.2560   -6.7680    9.6140 O.2    81  LEU81      -0.2867
     49  CB        -7.1590   -3.7880    9.8840 C.3    81  LEU81       0.0270
     50  CG        -6.8380   -2.3140   10.1300 C.3    81  LEU81       0.0019
     51  CD1       -7.7930   -1.4440    9.3200 C.3    81  LEU81       0.0001
     52  CD2       -6.9020   -1.9530   11.6190 C.3    81  LEU81       0.0001
     53  N        -10.7260    1.0830   14.6220 N.3    99  LEU99      -0.1231
     54  CA        -9.7990    0.1050   14.0650 C.3    99  LEU99       0.1693
     55  C         -9.6370   -1.0420   15.0530 C.2    99  LEU99       0.2592
     56  O         -9.5130   -0.8130   16.2490 O.2    99  LEU99      -0.2718
     57  CB        -8.4440    0.7590   13.7870 C.3    99  LEU99       0.0284
     58  CG        -8.4670    2.0050   12.8950 C.3    99  LEU99       0.0019
     59  CD1       -7.0680    2.5870   12.7880 C.3    99  LEU99       0.0001
     60  CD2       -9.0230    1.6890   11.5160 C.3    99  LEU99       0.0001
     61  N         -9.6450   -2.2720   14.5480 N.am  100  VAL100     -0.1966
     62  CA        -9.5420   -3.4600   15.3880 C.3   100  VAL100      0.1727
     63  C         -8.3330   -4.3020   14.9860 C.2   100  VAL100      0.2617
     64  O         -8.1080   -4.5550   13.8010 O.2   100  VAL100     -0.2715
     65  CB       -10.8140   -4.3210   15.2970 C.3   100  VAL100      0.0290
     66  CG1      -10.7840   -5.4340   16.3370 C.3   100  VAL100      0.0023
     67  CG2      -12.0480   -3.4570   15.4840 C.3   100  VAL100      0.0023
     68  N         -7.5590   -4.7190   15.9850 N.am  101  THR101     -0.1937
     69  CA        -6.3960   -5.5830   15.7940 C.3   101  THR101      0.2028
     70  C         -6.3350   -6.6220   16.9120 C.2   101  THR101      0.2642
     71  O         -6.9970   -6.4710   17.9450 O.2   101  THR101     -0.2714
     72  CB        -5.0810   -4.7670   15.8020 C.3   101  THR101      0.1808
     73  OG1       -3.9920   -5.6030   15.3900 O.3   101  THR101     -0.2208
     74  CG2       -4.7870   -4.1960   17.1990 C.3   101  THR101      0.0379
     75  N         -5.5400   -7.6720   16.7110 N.am  102  HIS102     -0.1959
     76  CA        -5.3340   -8.6770   17.7570 C.3   102  HIS102      0.1787
     77  C         -4.5740   -8.0680   18.9420 C.2   102  HIS102      0.2620
     78  O         -3.5710   -7.3720   18.7600 O.2   102  HIS102     -0.2715
     79  CB        -4.5880   -9.9010   17.2200 C.3   102  HIS102      0.0785
     80  CG        -4.3600  -10.9640   18.2520 C.ar  102  HIS102      0.0821
     81  ND1       -5.3910  -11.5700   18.9360 N.ar  102  HIS102     -0.2267
     82  CD2       -3.2190  -11.5230   18.7220 C.ar  102  HIS102      0.1154
     83  CE1       -4.8970  -12.4580   19.7810 C.ar  102  HIS102      0.1986
     84  NE2       -3.5820  -12.4490   19.6710 N.ar  102  HIS102     -0.2212
     85  N         -5.0630   -8.3330   20.1500 N.am  103  LEU103     -0.1963
     86  CA        -4.4800   -7.7670   21.3640 C.3   103  LEU103      0.1728
     87  C         -3.2790   -8.5860   21.8250 C.2   103  LEU103      0.2616
     88  O         -3.3600   -9.8090   21.9250 O.2   103  LEU103     -0.2715
     89  CB        -5.5330   -7.7040   22.4720 C.3   103  LEU103      0.0311
     90  CG        -5.0940   -7.1030   23.8120 C.3   103  LEU103      0.0022
     91  CD1       -6.2330   -6.3330   24.4640 C.3   103  LEU103      0.0001
     92  CD2       -4.5730   -8.1800   24.7440 C.3   103  LEU103      0.0001
     93  N         -2.1710   -7.9040   22.1010 N.am  104  MET104     -0.1963
     94  CA        -0.9770   -8.5480   22.6500 C.3   104  MET104      0.1736
     95  C         -0.9980   -8.5050   24.1830 C.2   104  MET104      0.2617
     96  O         -0.7140   -9.5080   24.8320 O.2   104  MET104     -0.2715
     97  CB         0.2920   -7.8910   22.1010 C.3   104  MET104      0.0427
     98  CG         0.3570   -7.8410   20.5650 C.3   104  MET104      0.0599
     99  SD         0.3090   -9.4680   19.7740 S.3   104  MET104     -0.1393
    100  CE         1.9460  -10.0810   20.1660 C.3   104  MET104      0.0692
    101  N         -1.3330   -7.3440   24.7450 N.am  105  GLY105     -0.1940
    102  CA        -1.5760   -7.1990   26.1860 C.3   105  GLY105      0.2014
    103  C         -0.5700   -6.3610   26.9610 C.2   105  GLY105      0.2639
    104  O         -0.7600   -6.1100   28.1540 O.2   105  GLY105     -0.2714
    105  N          0.4980   -5.9360   26.2930 N.am  106  ALA106     -0.1963
    106  CA         1.5410   -5.1240   26.9170 C.3   106  ALA106      0.1728
    107  C          2.4080   -4.4600   25.8560 C.2   106  ALA106      0.2616
    108  O          2.4170   -4.8880   24.6990 O.2   106  ALA106     -0.2715
    109  CB         2.4030   -5.9870   27.8290 C.3   106  ALA106      0.0334
    110  N          3.1210   -3.4090   26.2490 N.am  107  ASP107     -0.1971
    111  CA         4.1440   -2.8090   25.3920 C.3   107  ASP107      0.1709
    112  C          5.5220   -3.1050   25.9690 C.2   107  ASP107      0.2293
    113  O          5.6390   -3.6340   27.0720 O.2   107  ASP107     -0.2864
    114  CB         3.9240   -1.2980   25.1830 C.3   107  ASP107      0.1436
    115  CG         4.0470   -0.4840   26.4630 C.2   107  ASP107      0.3671
    116  OD1        4.8350   -0.8550   27.3600 O.co2 107  ASP107     -0.2456
    117  OD2        3.3480    0.5480   26.5640 O.co2 107  ASP107     -0.2456
    118  N          6.5870   -1.6270   29.5620 N.3   110  ASN110     -0.1240
    119  CA         6.1800   -2.3750   30.7650 C.3   110  ASN110      0.1653
    120  C          6.7340   -3.8120   30.7940 C.2   110  ASN110      0.2266
    121  O          6.0950   -4.7290   31.3210 O.2   110  ASN110     -0.2867
    122  CB         4.6490   -2.3260   30.9840 C.3   110  ASN110      0.1155
    123  CG         3.8520   -2.9560   29.8510 C.2   110  ASN110      0.2627
    124  OD1        4.1660   -4.0460   29.3830 O.2   110  ASN110     -0.2716
    125  ND2        2.7880   -2.2760   29.4280 N.am  110  ASN110     -0.0877
    126  N          7.2840    1.9780   23.5870 N.3   145  SER145     -0.1217
    127  CA         5.8200    2.1020   23.6400 C.3   145  SER145      0.1889
    128  C          5.1080    1.8140   22.3030 C.2   145  SER145      0.2288
    129  O          3.8840    1.6780   22.2720 O.2   145  SER145     -0.2866
    130  CB         5.4140    3.4770   24.1780 C.3   145  SER145      0.2089
    131  OG         6.1680    4.5100   23.5710 O.3   145  SER145     -0.2183
    132  N          4.2760   -3.7270   20.6860 N.3   148  ALA148     -0.1245
    133  CA         3.2890   -4.5110   21.4360 C.3   148  ALA148      0.1562
    134  C          3.7830   -5.9390   21.6440 C.2   148  ALA148      0.2260
    135  O          4.1760   -6.5960   20.6860 O.2   148  ALA148     -0.2867
    136  CB         1.9600   -4.5210   20.6980 C.3   148  ALA148      0.0290
    137  N          3.8450   -1.1990   16.3200 N.3   158  LEU158     -0.1231
    138  CA         2.6830   -0.3110   16.2720 C.3   158  LEU158      0.1693
    139  C          3.0670    0.9620   15.5440 C.2   158  LEU158      0.2592
    140  O          4.2440    1.3160   15.4840 O.2   158  LEU158     -0.2718
    141  CB         2.2340    0.0760   17.6850 C.3   158  LEU158      0.0284
    142  CG         1.5310   -0.9690   18.5410 C.3   158  LEU158      0.0019
    143  CD1        1.6300   -0.6120   20.0210 C.3   158  LEU158      0.0001
    144  CD2        0.0830   -1.0820   18.1140 C.3   158  LEU158      0.0001
    145  N          2.0710    1.6580   15.0080 N.am  159  ASP159     -0.1960
    146  CA         2.2910    2.9960   14.4470 C.3   159  ASP159      0.1840
    147  C          2.2590    4.0590   15.5540 C.2   159  ASP159      0.2622
    148  O          3.1200    4.9390   15.5850 O.2   159  ASP159     -0.2715
    149  CB         1.3040    3.3190   13.3090 C.3   159  ASP159      0.1450
    150  CG        -0.1550    3.0920   13.6870 C.2   159  ASP159      0.3671
    151  OD1       -0.4370    2.5210   14.7640 O.co2 159  ASP159     -0.2456
    152  OD2       -1.0290    3.4880   12.8900 O.co2 159  ASP159     -0.2456
    153  N          1.2780    3.9700   16.4560 N.am  160  PHE160     -0.1960
    154  CA         1.2170    4.8360   17.6480 C.3   160  PHE160      0.1771
    155  C          0.7200    4.0540   18.8630 C.2   160  PHE160      0.2620
    156  O         -0.4050    3.5520   18.8700 O.2   160  PHE160     -0.2715
    157  CB         0.2980    6.0430   17.4310 C.3   160  PHE160      0.0574
    158  CG         0.4240    6.6650   16.0780 C.ar  160  PHE160     -0.0200
    159  CD1        1.4250    7.5890   15.8090 C.ar  160  PHE160     -0.0042
    160  CD2       -0.4590    6.3170   15.0640 C.ar  160  PHE160     -0.0042
    161  CE1        1.5420    8.1590   14.5450 C.ar  160  PHE160     -0.0003
    162  CE2       -0.3530    6.8810   13.8060 C.ar  160  PHE160     -0.0003
    163  CZ         0.6490    7.8030   13.5430 C.ar  160  PHE160     -0.0000
    164  N          1.5620    3.9640   19.8880 N.am  161  GLY161     -0.1940
    165  CA         1.2010    3.3010   21.1380 C.3   161  GLY161      0.2014
    166  C          0.6470    4.2750   22.1590 C.2   161  GLY161      0.2638
    167  O          0.3800    5.4380   21.8480 O.2   161  GLY161     -0.2714
    168  N          0.4910    3.7950   23.3890 N.am  162  LEU162     -0.1977
    169  CA        -0.0950    4.5910   24.4630 C.3   162  LEU162      0.1596
    170  C          0.9440    5.5370   25.0550 C.2   162  LEU162      0.2287
    171  O          0.7580    6.7530   25.0510 O.2   162  LEU162     -0.2864
    172  CB        -0.6550    3.6810   25.5570 C.3   162  LEU162      0.0297
    173  CG        -1.5990    2.5660   25.0980 C.3   162  LEU162      0.0022
    174  CD1       -1.9640    1.6700   26.2750 C.3   162  LEU162      0.0001
    175  CD2       -2.8460    3.1420   24.4420 C.3   162  LEU162      0.0001
@<TRIPOS>BOND
     1    31    32    2
     2    31    30    1
     3    29    30    1
     4    30    33    1
     5    51    50    1
     6    48    47    2
     7    33    34    1
     8    49    50    1
     9    49    46    1
    10    50    52    1
    11    45    46    1
    12    47    46    1
    13    34    36    1
    14    34    35    1
    15    40    39    2
    16    60    58    1
    17    39    38    1
    18    59    58    1
    19   152   150   ar
    20    58    57    1
    21    37    38    1
    22   149   150    1
    23   149   146    1
    24    38    41    1
    25   163   162   ar
    26   163   161   ar
    27   150   151   ar
    28    57    54    1
    29    64    63    2
    30   162   160   ar
    31    54    53    1
    32    54    55    1
    33   146   145    1
    34   146   147    1
    35    41    43    1
    36    41    42    1
    37   161   159   ar
    38    61    55   am
    39    61    62    1
    40    63    62    1
    41    63    68   am
    42   145   139   am
    43    55    56    2
    44   160   158   ar
    45    65    62    1
    46    65    67    1
    47    65    66    1
    48    73    72    1
    49   140   139    2
    50   139   138    1
    51   147   148    2
    52   147   153   am
    53    69    72    1
    54    69    68    1
    55    69    70    1
    56    72    74    1
    57   159   158   ar
    58    42    44    1
    59   158   157    1
    60   138   137    1
    61   138   141    1
    62    28    27    1
    63   153   154    1
    64    27    26    1
    65    75    70   am
    66    75    76    1
    67    23    22    2
    68    70    71    2
    69    79    76    1
    70    79    80    1
    71   157   154    1
    72    26    25    1
    73   154   155    1
    74   141   142    1
    75    76    77    1
    76    24    25    1
    77    24    21    1
    78    22    21    1
    79   144   142    1
    80    80    82   ar
    81    80    81   ar
    82   142   143    1
    83    18    17    2
    84    20    21    1
    85    82    84   ar
    86    78    77    2
    87   155   156    2
    88   155   164   am
    89    81    83   ar
    90    77    85   am
    91    84    83   ar
    92    17    16    1
    93    99   100    1
    94    99    98    1
    95   164   165    1
    96    85    86    1
    97    15    16    1
    98    98    97    1
    99   135   134    2
   100   132   133    1
   101   136   133    1
   102    19    16    1
   103   165   166    1
   104    86    87    1
   105    86    89    1
   106   133   134    1
   107    14    12    1
   108    87    88    2
   109    87    93   am
   110   167   166    2
   111    97    94    1
   112    93    94    1
   113   166   168   am
   114   129   128    2
   115   128   127    1
   116    13    12    1
   117    89    90    1
   118    94    95    1
   119    12     9    1
   120     9     8    1
   121     9    10    1
   122   168   169    1
   123   131   130    1
   124   126   127    1
   125   127   130    1
   126    90    91    1
   127    90    92    1
   128    10    11    2
   129    95   101   am
   130    95    96    2
   131   175   173    1
   132   169   170    1
   133   169   172    1
   134   108   107    2
   135   101   102    1
   136   171   170    2
   137   173   172    1
   138   173   174    1
   139   114   111    1
   140   114   115    1
   141   111   112    1
   142   111   110    1
   143   107   110   am
   144   107   106    1
   145   112   113    2
   146   102   103    1
   147   105   106    1
   148   105   103   am
   149   115   117   ar
   150   115   116   ar
   151     6     5    1
   152   106   109    1
   153     5     7    1
   154     5     2    1
   155   103   104    2
   156     1     2    1
   157     2     3    1
   158     3     4    2
   159   124   123    2
   160   125   123   am
   161   118   119    1
   162   123   122    1
   163   119   120    1
   164   119   122    1
   165   120   121    2
