@<TRIPOS>MOLECULE
tmp/3zsoB00.pdb
 88 87 0 0 0
SMALL
GASTEIGER

@<TRIPOS>ATOM
      1  N        -10.9710   46.9220   -7.5030 N.3    39  GLN39      -0.1231
      2  CA       -11.7330   46.3670   -6.3920 C.3    39  GLN39       0.1698
      3  C        -12.5010   45.1190   -6.8370 C.2    39  GLN39       0.2592
      4  O        -12.5130   44.1540   -6.1240 O.2    39  GLN39      -0.2718
      5  CB       -12.7340   47.3460   -5.8000 C.3    39  GLN39       0.0381
      6  CG       -12.1340   48.1510   -4.6650 C.3    39  GLN39       0.0905
      7  CD       -13.1630   49.0610   -4.0130 C.2    39  GLN39       0.2608
      8  OE1      -14.1540   48.5880   -3.4280 O.2    39  GLN39      -0.2717
      9  NE2      -12.9610   50.3700   -4.1540 N.am   39  GLN39      -0.0878
     10  N        -13.0880   45.1570   -8.0220 N.am   40  GLU40      -0.1979
     11  CA       -13.8700   43.9420   -8.5050 C.3    40  GLU40       0.1602
     12  C        -12.9100   42.8190   -8.7510 C.2    40  GLU40       0.2287
     13  O        -13.2240   41.6580   -8.3860 O.2    40  GLU40      -0.2864
     14  CB       -14.6600   44.2550   -9.7920 C.3    40  GLU40       0.0415
     15  CG       -15.8160   45.2420   -9.5130 C.3    40  GLU40       0.1163
     16  CD       -17.0230   44.6450   -8.8060 C.2    40  GLU40       0.3649
     17  OE1      -17.1080   43.4470   -8.4420 O.co2  40  GLU40      -0.2457
     18  OE2      -17.9840   45.4070   -8.6280 O.co2  40  GLU40      -0.2457
     19  N         -9.9780   42.2850   -7.4140 N.3    42  ALA42      -0.1231
     20  CA        -9.4590   41.8230   -6.1160 C.3    42  ALA42       0.1694
     21  C        -10.4500   40.8960   -5.4100 C.2    42  ALA42       0.2592
     22  O        -10.0580   39.8540   -4.8960 O.2    42  ALA42      -0.2718
     23  CB        -9.1150   43.0990   -5.2040 C.3    42  ALA42       0.0304
     24  N        -11.7280   41.3000   -5.4440 N.am   43  TYR43      -0.1976
     25  CA       -12.7770   40.4750   -4.7690 C.3    43  TYR43       0.1639
     26  C        -12.8900   39.1270   -5.4810 C.2    43  TYR43       0.2290
     27  O        -13.0340   38.0870   -4.8400 O.2    43  TYR43      -0.2864
     28  CB       -14.0970   41.2440   -4.7310 C.3    43  TYR43       0.0560
     29  CG       -15.2070   40.4690   -4.0200 C.ar   43  TYR43      -0.0198
     30  CD1      -15.1740   40.2610   -2.6850 C.ar   43  TYR43      -0.0009
     31  CD2      -16.3230   40.0010   -4.7720 C.ar   43  TYR43      -0.0009
     32  CE1      -16.1970   39.5590   -2.0400 C.ar   43  TYR43       0.0417
     33  CE2      -17.3660   39.3400   -4.1560 C.ar   43  TYR43       0.0417
     34  CZ       -17.2950   39.1350   -2.7790 C.ar   43  TYR43       0.1957
     35  OH       -18.2450   38.3870   -2.1460 O.3    43  TYR43      -0.2866
     36  N        -10.0710   36.9270   -4.4390 N.3    46  LEU46      -0.1245
     37  CA       -10.2600   36.4330   -3.0670 C.3    46  LEU46       0.1561
     38  C        -11.2710   35.2610   -3.0530 C.2    46  LEU46       0.2260
     39  O        -11.0150   34.2340   -2.4090 O.2    46  LEU46      -0.2867
     40  CB       -10.7760   37.5860   -2.1660 C.3    46  LEU46       0.0270
     41  CG       -11.1670   37.1080   -0.7850 C.3    46  LEU46       0.0019
     42  CD1       -9.9420   36.4630   -0.0210 C.3    46  LEU46       0.0001
     43  CD2      -11.8110   38.3400   -0.0500 C.3    46  LEU46       0.0001
     44  N         -4.9800   47.5640   -5.0760 N.3    69  THR69      -0.1218
     45  CA        -6.0360   46.7640   -4.4570 C.3    69  THR69       0.1862
     46  C         -5.9100   45.2910   -4.8830 C.2    69  THR69       0.2287
     47  O         -6.0750   44.3220   -4.0610 O.2    69  THR69      -0.2866
     48  CB        -7.3320   47.3620   -4.8430 C.3    69  THR69       0.1770
     49  OG1       -7.3210   48.7780   -4.4890 O.3    69  THR69      -0.2211
     50  CG2       -8.5090   46.6010   -4.2280 C.3    69  THR69       0.0375
     51  N         -2.9750   43.9020   -3.0320 N.3    72  ALA72      -0.1231
     52  CA        -3.3630   43.6160   -1.6270 C.3    72  ALA72       0.1694
     53  C         -4.1440   42.3340   -1.4930 C.2    72  ALA72       0.2591
     54  O         -3.9040   41.5670   -0.5820 O.2    72  ALA72      -0.2718
     55  CB        -4.1790   44.7830   -1.0430 C.3    72  ALA72       0.0304
     56  N         -5.0700   42.0630   -2.4230 N.am   73  ALA73      -0.1980
     57  CA        -5.7720   40.7810   -2.3440 C.3    73  ALA73       0.1597
     58  C         -4.8520   39.6400   -2.6080 C.2    73  ALA73       0.2287
     59  O         -4.9550   38.5370   -1.9880 O.2    73  ALA73      -0.2864
     60  CB        -6.8710   40.7640   -3.5010 C.3    73  ALA73       0.0319
     61  N         -1.6170   39.4470   -1.9510 N.3    75  TRP75      -0.1227
     62  CA        -0.8980   39.3000   -0.6910 C.3    75  TRP75       0.1737
     63  C         -1.7780   38.5730    0.3490 C.2    75  TRP75       0.2595
     64  O         -1.3610   37.5800    0.9860 O.2    75  TRP75      -0.2718
     65  CB        -0.4450   40.6910   -0.1900 C.3    75  TRP75       0.0564
     66  CG         0.0280   40.5350    1.2690 C.ar   75  TRP75       0.0003
     67  CD1        1.2510   39.9840    1.6890 C.ar   75  TRP75       0.0946
     68  CD2       -0.7670   40.7240    2.4460 C.ar   75  TRP75       0.0152
     69  NE1        1.2630   39.9010    3.1050 N.ar   75  TRP75      -0.2442
     70  CE2        0.0380   40.2940    3.5780 C.ar   75  TRP75       0.0810
     71  CE3       -2.0560   41.2400    2.6660 C.ar   75  TRP75       0.0012
     72  CZ2       -0.4120   40.3960    4.8810 C.ar   75  TRP75       0.0191
     73  CZ3       -2.5430   41.3180    3.9870 C.ar   75  TRP75       0.0001
     74  CH2       -1.6920   40.8690    5.0850 C.ar   75  TRP75       0.0015
     75  N         -3.0020   39.0470    0.5260 N.am   76  TRP76      -0.1976
     76  CA        -3.8420   38.4710    1.5910 C.3    76  TRP76       0.1640
     77  C         -3.9940   36.9740    1.3810 C.2    76  TRP76       0.2290
     78  O         -3.8940   36.1590    2.3120 O.2    76  TRP76      -0.2864
     79  CB        -5.2370   39.2090    1.5930 C.3    76  TRP76       0.0576
     80  CG        -5.9790   38.9930    2.8730 C.ar   76  TRP76       0.0006
     81  CD1       -5.9990   39.8180    3.9610 C.ar   76  TRP76       0.0946
     82  CD2       -6.7080   37.8240    3.2200 C.ar   76  TRP76       0.0152
     83  NE1       -6.7240   39.1890    4.9920 N.ar   76  TRP76      -0.2442
     84  CE2       -7.1650   37.9800    4.5520 C.ar   76  TRP76       0.0810
     85  CE3       -7.0850   36.6650    2.5050 C.ar   76  TRP76       0.0012
     86  CZ2       -7.9210   36.9980    5.2200 C.ar   76  TRP76       0.0191
     87  CZ3       -7.8520   35.6590    3.1630 C.ar   76  TRP76       0.0001
     88  CH2       -8.2590   35.8470    4.5290 C.ar   76  TRP76       0.0015
@<TRIPOS>BOND
     1    14    15    1
     2    14    11    1
     3    15    16    1
     4    16    18   ar
     5    16    17   ar
     6    12    11    1
     7    12    13    2
     8    11    10    1
     9    10     3   am
    10     1     2    1
    11    19    20    1
    12     3     2    1
    13     3     4    2
    14     2     5    1
    15    20    21    1
    16    20    23    1
    17     5     6    1
    18    26    27    2
    19    26    25    1
    20    24    21   am
    21    24    25    1
    22    21    22    2
    23    44    45    1
    24    46    45    1
    25    46    47    2
    26    48    49    1
    27    48    45    1
    28    48    50    1
    29    31    33   ar
    30    31    29   ar
    31    25    28    1
    32    28    29    1
    33     6     7    1
    34    36    37    1
    35    33    34   ar
    36     9     7   am
    37    29    30   ar
    38     7     8    2
    39    60    57    1
    40    37    38    1
    41    37    40    1
    42    38    39    2
    43    51    52    1
    44    34    35    1
    45    34    32   ar
    46    30    32   ar
    47    58    57    1
    48    58    59    2
    49    56    57    1
    50    56    53   am
    51    40    41    1
    52    61    62    1
    53    52    53    1
    54    52    55    1
    55    53    54    2
    56    41    43    1
    57    41    42    1
    58    62    65    1
    59    62    63    1
    60    65    66    1
    61    63    75   am
    62    63    64    2
    63    75    76    1
    64    66    67   ar
    65    66    68   ar
    66    77    76    1
    67    77    78    2
    68    76    79    1
    69    79    80    1
    70    67    69   ar
    71    68    71   ar
    72    68    70   ar
    73    85    87   ar
    74    85    82   ar
    75    71    73   ar
    76    80    82   ar
    77    80    81   ar
    78    69    70   ar
    79    87    88   ar
    80    82    84   ar
    81    70    72   ar
    82    81    83   ar
    83    73    74   ar
    84    88    86   ar
    85    84    83   ar
    86    84    86   ar
    87    72    74   ar
