@<TRIPOS>MOLECULE
tmp/3zsqB00.pdb
 88 87 0 0 0
SMALL
GASTEIGER

@<TRIPOS>ATOM
      1  N        -10.4540   34.4440   -6.3840 N.3    39  GLN39      -0.1231
      2  CA       -10.3190   33.5240   -5.2460 C.3    39  GLN39       0.1698
      3  C         -9.6070   32.2290   -5.7030 C.2    39  GLN39       0.2592
      4  O         -8.7500   31.7110   -4.9670 O.2    39  GLN39      -0.2718
      5  CB       -11.6080   33.1080   -4.5650 C.3    39  GLN39       0.0381
      6  CG       -12.1350   34.2950   -3.7320 C.3    39  GLN39       0.0905
      7  CD       -13.3730   33.8890   -2.9060 C.2    39  GLN39       0.2608
      8  OE1      -13.4150   32.8170   -2.2570 O.2    39  GLN39      -0.2717
      9  NE2      -14.4060   34.7350   -3.0130 N.am   39  GLN39      -0.0878
     10  N        -10.0260   31.7090   -6.8590 N.am   40  GLU40      -0.1979
     11  CA        -9.3330   30.4730   -7.3140 C.3    40  GLU40       0.1602
     12  C         -7.8740   30.7370   -7.6140 C.2    40  GLU40       0.2287
     13  O         -7.0610   29.8980   -7.2720 O.2    40  GLU40      -0.2864
     14  CB        -9.9240   29.8970   -8.5840 C.3    40  GLU40       0.0415
     15  CG       -11.4080   29.4000   -8.3910 C.3    40  GLU40       0.1163
     16  CD       -11.5040   28.0500   -7.7540 C.2    40  GLU40       0.3649
     17  OE1      -10.5140   27.4160   -7.3860 O.co2  40  GLU40      -0.2457
     18  OE2      -12.6790   27.5070   -7.6970 O.co2  40  GLU40      -0.2457
     19  N         -5.9100   33.0120   -6.2560 N.3    42  ALA42      -0.1231
     20  CA        -5.2430   33.2290   -4.9510 C.3    42  ALA42       0.1694
     21  C         -4.9890   31.8940   -4.2510 C.2    42  ALA42       0.2592
     22  O         -3.8410   31.7000   -3.7360 O.2    42  ALA42      -0.2718
     23  CB        -6.1810   34.1230   -4.0890 C.3    42  ALA42       0.0304
     24  N         -5.9670   31.0180   -4.2350 N.am   43  TYR43      -0.1976
     25  CA        -5.8140   29.7080   -3.5820 C.3    43  TYR43       0.1639
     26  C         -4.7170   28.8940   -4.2730 C.2    43  TYR43       0.2290
     27  O         -3.9090   28.2220   -3.6290 O.2    43  TYR43      -0.2864
     28  CB        -7.1590   28.9540   -3.5850 C.3    43  TYR43       0.0560
     29  CG        -7.0490   27.6140   -2.8490 C.ar   43  TYR43      -0.0198
     30  CD1       -6.8770   27.5370   -1.4800 C.ar   43  TYR43      -0.0009
     31  CD2       -7.1310   26.4280   -3.5860 C.ar   43  TYR43      -0.0009
     32  CE1       -6.8060   26.3080   -0.8430 C.ar   43  TYR43       0.0417
     33  CE2       -7.0680   25.1620   -2.9490 C.ar   43  TYR43       0.0417
     34  CZ        -6.9440   25.1180   -1.5900 C.ar   43  TYR43       0.1957
     35  OH        -6.7870   23.9270   -0.9340 O.3    43  TYR43      -0.2866
     36  N         -1.3370   30.2150   -3.2600 N.3    46  LEU46      -0.1245
     37  CA        -1.0480   29.8050   -1.8610 C.3    46  LEU46       0.1561
     38  C         -0.5270   28.3570   -1.8550 C.2    46  LEU46       0.2260
     39  O          0.4800   28.0800   -1.1930 O.2    46  LEU46      -0.2867
     40  CB        -2.3220   29.9460   -0.9980 C.3    46  LEU46       0.0270
     41  CG        -2.0890   29.4050    0.4010 C.3    46  LEU46       0.0019
     42  CD1       -0.9630   30.1280    1.2660 C.3    46  LEU46       0.0001
     43  CD2       -3.4510   29.4700    1.0910 C.3    46  LEU46       0.0001
     44  N         -7.9680   40.0160   -3.9210 N.3    69  THR69      -0.1218
     45  CA        -7.7460   38.7160   -3.2630 C.3    69  THR69       0.1862
     46  C         -6.4400   38.0850   -3.6960 C.2    69  THR69       0.2287
     47  O         -5.7040   37.5180   -2.8900 O.2    69  THR69      -0.2866
     48  CB        -8.9110   37.7940   -3.6050 C.3    69  THR69       0.1770
     49  OG1      -10.1580   38.4480   -3.1610 O.3    69  THR69      -0.2211
     50  CG2       -8.7260   36.4300   -2.8950 C.3    69  THR69       0.0375
     51  N         -3.7800   39.9860   -1.9010 N.3    72  ALA72      -0.1231
     52  CA        -3.7520   39.5080   -0.4940 C.3    72  ALA72       0.1694
     53  C         -3.0510   38.1660   -0.3180 C.2    72  ALA72       0.2591
     54  O         -2.2890   37.9740    0.6460 O.2    72  ALA72      -0.2718
     55  CB        -5.1510   39.4230    0.0890 C.3    72  ALA72       0.0304
     56  N         -3.3240   37.2360   -1.1870 N.am   73  ALA73      -0.1980
     57  CA        -2.5920   35.9500   -1.1220 C.3    73  ALA73       0.1597
     58  C         -1.1470   36.1440   -1.3300 C.2    73  ALA73       0.2287
     59  O         -0.2730   35.4680   -0.6830 O.2    73  ALA73      -0.2864
     60  CB        -3.1780   34.9910   -2.2060 C.3    73  ALA73       0.0319
     61  N          0.6130   38.8190   -0.6350 N.3    75  TRP75      -0.1227
     62  CA         1.1190   39.3850    0.6270 C.3    75  TRP75       0.1737
     63  C          1.3380   38.2160    1.6210 C.2    75  TRP75       0.2595
     64  O          2.3590   38.1180    2.2730 O.2    75  TRP75      -0.2718
     65  CB         0.1500   40.4310    1.1840 C.3    75  TRP75       0.0564
     66  CG         0.4830   40.7340    2.6160 C.ar   75  TRP75       0.0003
     67  CD1        1.5240   41.5530    3.0560 C.ar   75  TRP75       0.0946
     68  CD2       -0.1030   40.1450    3.7580 C.ar   75  TRP75       0.0152
     69  NE1        1.5880   41.4650    4.4550 N.ar   75  TRP75      -0.2442
     70  CE2        0.6250   40.6180    4.8890 C.ar   75  TRP75       0.0810
     71  CE3       -1.1710   39.2630    3.9380 C.ar   75  TRP75       0.0012
     72  CZ2        0.3030   40.2570    6.1910 C.ar   75  TRP75       0.0191
     73  CZ3       -1.5400   38.8800    5.2550 C.ar   75  TRP75       0.0001
     74  CH2       -0.7530   39.3680    6.3650 C.ar   75  TRP75       0.0015
     75  N          0.3110   37.4030    1.7620 N.am   76  TRP76      -0.1976
     76  CA         0.3390   36.3660    2.8370 C.3    76  TRP76       0.1640
     77  C          1.5440   35.4720    2.5950 C.2    76  TRP76       0.2290
     78  O          2.3250   35.1420    3.5180 O.2    76  TRP76      -0.2864
     79  CB        -0.9700   35.5730    2.8000 C.3    76  TRP76       0.0576
     80  CG        -1.1280   34.7470    4.1040 C.ar   76  TRP76       0.0006
     81  CD1       -1.8510   35.1420    5.1750 C.ar   76  TRP76       0.0946
     82  CD2       -0.4640   33.5410    4.4710 C.ar   76  TRP76       0.0152
     83  NE1       -1.6760   34.2220    6.2260 N.ar   76  TRP76      -0.2442
     84  CE2       -0.8490   33.2270    5.8040 C.ar   76  TRP76       0.0810
     85  CE3        0.3630   32.6410    3.7740 C.ar   76  TRP76       0.0012
     86  CZ2       -0.3730   32.0790    6.4610 C.ar   76  TRP76       0.0191
     87  CZ3        0.8250   31.4710    4.4190 C.ar   76  TRP76       0.0001
     88  CH2        0.4680   31.2490    5.7770 C.ar   76  TRP76       0.0015
@<TRIPOS>BOND
     1    14    15    1
     2    14    11    1
     3    15    16    1
     4    16    18   ar
     5    16    17   ar
     6    12    11    1
     7    12    13    2
     8    11    10    1
     9    10     3   am
    10     1     2    1
    11    19    20    1
    12     3     2    1
    13     3     4    2
    14     2     5    1
    15    20    21    1
    16    20    23    1
    17     5     6    1
    18    26    27    2
    19    26    25    1
    20    21    24   am
    21    21    22    2
    22    24    25    1
    23    44    45    1
    24     6     7    1
    25    46    45    1
    26    46    47    2
    27    48    45    1
    28    48    49    1
    29    48    50    1
    30    31    33   ar
    31    31    29   ar
    32    28    25    1
    33    28    29    1
    34    36    37    1
    35     9     7   am
    36    33    34   ar
    37     7     8    2
    38    29    30   ar
    39    60    57    1
    40    51    52    1
    41    37    38    1
    42    37    40    1
    43    38    39    2
    44    34    35    1
    45    34    32   ar
    46    30    32   ar
    47    58    57    1
    48    58    59    2
    49    56    57    1
    50    56    53   am
    51    40    41    1
    52    61    62    1
    53    52    53    1
    54    52    55    1
    55    53    54    2
    56    41    43    1
    57    41    42    1
    58    62    65    1
    59    62    63    1
    60    65    66    1
    61    63    75   am
    62    63    64    2
    63    75    76    1
    64    77    76    1
    65    77    78    2
    66    66    67   ar
    67    66    68   ar
    68    79    76    1
    69    79    80    1
    70    67    69   ar
    71    68    71   ar
    72    68    70   ar
    73    85    87   ar
    74    85    82   ar
    75    71    73   ar
    76    80    82   ar
    77    80    81   ar
    78    87    88   ar
    79    69    70   ar
    80    82    84   ar
    81    70    72   ar
    82    81    83   ar
    83    73    74   ar
    84    88    86   ar
    85    84    83   ar
    86    84    86   ar
    87    72    74   ar
