@<TRIPOS>MOLECULE
tmp/3zt4A01.pdb
 89 86 0 0 0
SMALL
GASTEIGER

@<TRIPOS>ATOM
      1  N        -10.5190   24.1520   -3.4370 N.3    27  TYR27      -0.1241
      2  CA       -11.6670   24.4410   -2.5440 C.3    27  TYR27       0.1605
      3  C        -11.7810   25.9610   -2.2890 C.2    27  TYR27       0.2264
      4  O        -10.7620   26.6210   -2.1210 O.2    27  TYR27      -0.2867
      5  CB       -11.4520   23.7000   -1.2170 C.3    27  TYR27       0.0534
      6  CG       -12.3890   24.0490   -0.0660 C.ar   27  TYR27      -0.0201
      7  CD1      -12.1420   25.1700    0.7640 C.ar   27  TYR27      -0.0009
      8  CD2      -13.4860   23.2290    0.2380 C.ar   27  TYR27      -0.0009
      9  CE1      -12.9530   25.4650    1.8340 C.ar   27  TYR27       0.0417
     10  CE2      -14.3330   23.5130    1.3260 C.ar   27  TYR27       0.0417
     11  CZ       -14.0640   24.6290    2.1270 C.ar   27  TYR27       0.1957
     12  OH       -14.8560   24.9000    3.2280 O.3    27  TYR27      -0.2866
     13  N        -10.1590   27.1980    8.7420 N.3    52  TRP52      -0.1241
     14  CA        -9.1340   26.3410    8.1190 C.3    52  TRP52       0.1605
     15  C         -7.7780   26.7830    8.5760 C.2    52  TRP52       0.2264
     16  O         -7.6140   27.9410    8.9710 O.2    52  TRP52      -0.2867
     17  CB        -9.1730   26.4590    6.5880 C.3    52  TRP52       0.0550
     18  CG       -10.4210   25.8320    5.9940 C.ar   52  TRP52       0.0003
     19  CD1      -11.6100   26.4820    5.6360 C.ar   52  TRP52       0.0946
     20  CD2      -10.6700   24.4280    5.7920 C.ar   52  TRP52       0.0152
     21  NE1      -12.5400   25.5830    5.2270 N.ar   52  TRP52      -0.2442
     22  CE2      -12.0410   24.3240    5.2800 C.ar   52  TRP52       0.0810
     23  CE3       -9.9140   23.2660    5.9460 C.ar   52  TRP52       0.0012
     24  CZ2      -12.6250   23.0920    4.9490 C.ar   52  TRP52       0.0191
     25  CZ3      -10.5220   22.0550    5.6290 C.ar   52  TRP52       0.0001
     26  CH2      -11.8380   21.9850    5.0860 C.ar   52  TRP52       0.0015
     27  N        -17.5480   23.3140   -4.5210 N.3   128  ASN128     -0.1225
     28  CA       -16.8100   22.4900   -3.5560 C.3   128  ASN128      0.1785
     29  C        -17.2090   21.0180   -3.5930 C.2   128  ASN128      0.2597
     30  O        -16.4260   20.1510   -3.1570 O.2   128  ASN128     -0.2718
     31  CB       -16.9500   23.0610   -2.1340 C.3   128  ASN128      0.1169
     32  CG       -16.0990   24.3490   -1.8930 C.2   128  ASN128      0.2627
     33  OD1      -15.1880   24.6900   -2.6630 O.2   128  ASN128     -0.2716
     34  ND2      -16.4020   25.0480   -0.8100 N.am  128  ASN128     -0.0877
     35  N        -18.4110   20.7210   -4.0960 N.am  129  HIS129     -0.1975
     36  CA       -18.9240   19.3430   -4.0940 C.3   129  HIS129      0.1656
     37  C        -18.7130   18.6740   -5.4540 C.2   129  HIS129      0.2291
     38  O        -18.7990   17.4640   -5.5910 O.2   129  HIS129     -0.2864
     39  CB       -20.4040   19.3370   -3.7740 C.3   129  HIS129      0.0771
     40  CG       -20.7360   19.4960   -2.2790 C.ar  129  HIS129      0.0820
     41  ND1      -20.9060   20.7050   -1.6830 N.ar  129  HIS129     -0.2267
     42  CD2      -20.9650   18.5440   -1.2910 C.ar  129  HIS129      0.1154
     43  CE1      -21.2440   20.5320   -0.4040 C.ar  129  HIS129      0.1986
     44  NE2      -21.2590   19.2030   -0.1570 N.ar  129  HIS129     -0.2212
     45  N        -17.5520   16.6740   -8.3210 N.3   131  ARG131     -0.1245
     46  CA       -16.5580   15.5930   -8.6120 C.3   131  ARG131      0.1563
     47  C        -15.5970   15.8480   -9.8180 C.2   131  ARG131      0.2260
     48  O        -16.0620   16.0210  -10.9240 O.2   131  ARG131     -0.2867
     49  CB       -17.2700   14.2600   -8.8160 C.3   131  ARG131      0.0307
     50  CG       -17.4960   13.4740   -7.5420 C.3   131  ARG131      0.0489
     51  CD       -18.9350   13.5830   -6.9870 C.3   131  ARG131      0.2205
     52  NE       -18.9390   13.2580   -5.5440 N.pl3 131  ARG131     -0.0865
     53  CZ       -18.0010   12.5130   -4.9400 C.cat 131  ARG131      0.5346
     54  NH1      -17.0080   12.0010   -5.6530 N.pl3 131  ARG131      0.1354
     55  NH2      -18.0420   12.2960   -3.6290 N.pl3 131  ARG131      0.1354
     56  N        -13.8960   15.4990   -5.1590 N.3   136  SER136     -0.1217
     57  CA       -14.2430   16.9340   -5.1940 C.3   136  SER136      0.1889
     58  C        -13.1610   17.7760   -4.4740 C.2   136  SER136      0.2288
     59  O        -12.3000   17.2260   -3.7700 O.2   136  SER136     -0.2866
     60  CB       -15.5940   17.1380   -4.5430 C.3   136  SER136      0.2089
     61  OG       -15.4820   16.7160   -3.1690 O.3   136  SER136     -0.2183
     62  N        -13.6700   19.7280   -1.9700 N.3   138  GLY138     -0.1210
     63  CA       -13.8990   19.5310   -0.5720 C.3   138  GLY138      0.1956
     64  C        -13.2030   18.3110   -0.0470 C.2   138  GLY138      0.2611
     65  O        -12.5710   18.4000    1.0020 O.2   138  GLY138     -0.2717
     66  N        -13.2800   17.1730   -0.7660 N.am  139  GLU139     -0.1979
     67  CA       -12.5020   15.9630   -0.3830 C.3   139  GLU139      0.1602
     68  C        -10.9840   16.2000   -0.4450 C.2   139  GLU139      0.2287
     69  O        -10.2570   15.7670    0.4420 O.2   139  GLU139     -0.2864
     70  CB       -12.8850   14.7200   -1.2360 C.3   139  GLU139      0.0415
     71  CG       -14.3050   14.2480   -0.9560 C.3   139  GLU139      0.1163
     72  CD       -14.8310   13.2650   -1.9940 C.2   139  GLU139      0.3649
     73  OE1      -14.8650   13.5740   -3.1820 O.co2 139  GLU139     -0.2457
     74  OE2      -15.2130   12.1560   -1.6100 O.co2 139  GLU139     -0.2457
     75  N         -9.2510   18.9930   -0.0420 N.3   141  ILE141     -0.1231
     76  CA        -8.6580   19.8570    0.9900 C.3   141  ILE141      0.1692
     77  C         -8.5270   19.0580    2.2950 C.2   141  ILE141      0.2591
     78  O         -7.4870   19.1050    2.9900 O.2   141  ILE141     -0.2718
     79  CB        -9.3960   21.2370    1.1970 C.3   141  ILE141      0.0266
     80  CG1       -8.6690   22.1040    2.2420 C.3   141  ILE141      0.0019
     81  CG2      -10.8710   21.0490    1.5720 C.3   141  ILE141      0.0020
     82  CD1       -9.3090   23.4730    2.4740 C.3   141  ILE141      0.0001
     83  N         -9.5840   18.3380    2.6530 N.am  142  VAL142     -0.1980
     84  CA        -9.5390   17.4570    3.8150 C.3   142  VAL142      0.1595
     85  C         -8.4010   16.4050    3.7250 C.2   142  VAL142      0.2287
     86  O         -7.6570   16.2240    4.6860 O.2   142  VAL142     -0.2864
     87  CB       -10.9250   16.8350    4.0540 C.3   142  VAL142      0.0276
     88  CG1      -10.8330   15.7710    5.0980 C.3   142  VAL142      0.0022
     89  CG2      -11.8810   17.9160    4.5080 C.3   142  VAL142      0.0022
@<TRIPOS>BOND
     1    48    47    2
     2    47    46    1
     3    49    46    1
     4    49    50    1
     5    46    45    1
     6    50    51    1
     7    51    52    1
     8    54    53    1
     9    38    37    2
    10    52    53    2
    11    37    36    1
    12    57    56    1
    13    57    60    1
    14    57    58    1
    15    53    55    1
    16    60    61    1
    17    27    28    1
    18    58    59    2
    19    35    36    1
    20    35    29   am
    21    36    39    1
    22    39    40    1
    23    29    28    1
    24    29    30    2
    25    28    31    1
    26     1     2    1
    27    73    72   ar
    28    33    32    2
    29     2     3    1
    30     2     5    1
    31     3     4    2
    32    40    41   ar
    33    40    42   ar
    34    31    32    1
    35    72    74   ar
    36    72    71    1
    37    62    63    1
    38    32    34   am
    39    41    43   ar
    40    42    44   ar
    41    70    71    1
    42    70    67    1
    43     5     6    1
    44    66    67    1
    45    66    64   am
    46    63    64    1
    47    68    67    1
    48    68    69    2
    49    43    44   ar
    50     6     8   ar
    51     6     7   ar
    52    64    65    2
    53    75    76    1
    54     8    10   ar
    55     7     9   ar
    56    76    79    1
    57    76    77    1
    58    79    81    1
    59    79    80    1
    60    10    11   ar
    61     9    11   ar
    62    11    12    1
    63    80    82    1
    64    77    83   am
    65    77    78    2
    66    83    84    1
    67    85    84    1
    68    85    86    2
    69    84    87    1
    70    87    89    1
    71    87    88    1
    72    24    26   ar
    73    24    22   ar
    74    26    25   ar
    75    21    22   ar
    76    21    19   ar
    77    22    20   ar
    78    25    23   ar
    79    19    18   ar
    80    20    23   ar
    81    20    18   ar
    82    18    17    1
    83    17    14    1
    84    14    15    1
    85    14    13    1
    86    15    16    2
