@<TRIPOS>MOLECULE
tmp/3zt6D01.pdb
 154 145 0 0 0
SMALL
GASTEIGER

@<TRIPOS>ATOM
      1  N         51.5340  -87.3850   86.6470 N.3   250  LYS250     -0.1245
      2  CA        50.4510  -88.3430   86.4920 C.3   250  LYS250      0.1561
      3  C         50.6510  -89.5200   87.4410 C.2   250  LYS250      0.2260
      4  O         51.7530  -89.9610   87.6910 O.2   250  LYS250     -0.2867
      5  CB        50.3440  -88.8080   85.0340 C.3   250  LYS250      0.0271
      6  CG        50.0270  -87.7020   84.0260 C.3   250  LYS250      0.0035
      7  CD        48.6910  -87.8910   83.3180 C.3   250  LYS250      0.0206
      8  CE        48.5430  -87.0460   82.0820 C.3   250  LYS250      0.1093
      9  NZ        48.1790  -87.9260   80.8560 N.3   250  LYS250     -0.1314
     10  N         47.2300  -93.4030   84.0300 N.3   254  ASN254     -0.1240
     11  CA        46.9450  -92.1120   83.4420 C.3   254  ASN254      0.1653
     12  C         45.9440  -91.2900   84.2670 C.2   254  ASN254      0.2266
     13  O         45.1380  -90.5650   83.7210 O.2   254  ASN254     -0.2867
     14  CB        46.4180  -92.3080   82.0020 C.3   254  ASN254      0.1155
     15  CG        46.6940  -91.1340   81.1120 C.2   254  ASN254      0.2627
     16  OD1       47.5760  -90.3000   81.4030 O.2   254  ASN254     -0.2716
     17  ND2       45.9230  -91.0380   80.0080 N.am  254  ASN254     -0.0877
     18  N         55.6100  -90.2090   84.6460 N.3   265  VAL265     -0.1245
     19  CA        55.8810  -90.5980   83.2780 C.3   265  VAL265      0.1561
     20  C         57.2270  -90.0710   82.8470 C.2   265  VAL265      0.2260
     21  O         57.4850  -88.8780   82.9680 O.2   265  VAL265     -0.2867
     22  CB        54.7570  -90.0850   82.3350 C.3   265  VAL265      0.0252
     23  CG1       54.9900  -90.6130   80.9500 C.3   265  VAL265      0.0019
     24  CG2       53.3970  -90.6340   82.8170 C.3   265  VAL265      0.0019
     25  N         58.4200  -89.2580   80.0940 N.3   267  TRP267     -0.1227
     26  CA        58.3270  -88.2620   79.0390 C.3   267  TRP267      0.1737
     27  C         58.0640  -86.8900   79.6030 C.2   267  TRP267      0.2595
     28  O         58.2030  -85.8900   78.8770 O.2   267  TRP267     -0.2718
     29  CB        57.2640  -88.6860   78.0010 C.3   267  TRP267      0.0564
     30  CG        57.7480  -89.8120   77.0430 C.ar  267  TRP267      0.0003
     31  CD1       58.3740  -89.6450   75.8180 C.ar  267  TRP267      0.0946
     32  CD2       57.6340  -91.2320   77.2280 C.ar  267  TRP267      0.0152
     33  NE1       58.6460  -90.8700   75.2420 N.ar  267  TRP267     -0.2442
     34  CE2       58.2040  -91.8570   76.0820 C.ar  267  TRP267      0.0810
     35  CE3       57.0830  -92.0350   78.2370 C.ar  267  TRP267      0.0012
     36  CZ2       58.2610  -93.2240   75.9400 C.ar  267  TRP267      0.0191
     37  CZ3       57.1320  -93.3960   78.0910 C.ar  267  TRP267      0.0001
     38  CH2       57.7230  -93.9890   76.9480 C.ar  267  TRP267      0.0015
     39  N         57.6600  -86.8180   80.8820 N.am  268  ALA268     -0.1980
     40  CA        57.5270  -85.5380   81.5780 C.3   268  ALA268      0.1597
     41  C         58.8940  -85.1210   82.1230 C.2   268  ALA268      0.2287
     42  O         59.1930  -85.2040   83.3180 O.2   268  ALA268     -0.2864
     43  CB        56.4050  -85.5960   82.6900 C.3   268  ALA268      0.0319
     44  N         60.1590  -81.5580   74.6190 N.3   310  GLN310     -0.1245
     45  CA        59.0950  -81.0440   75.4160 C.3   310  GLN310      0.1566
     46  C         59.6260  -80.9490   76.8520 C.2   310  GLN310      0.2260
     47  O         60.6940  -81.4970   77.1490 O.2   310  GLN310     -0.2867
     48  CB        57.9240  -82.0240   75.3360 C.3   310  GLN310      0.0367
     49  CG        58.2930  -83.4580   75.7340 C.3   310  GLN310      0.0905
     50  CD        57.2700  -84.4890   75.3200 C.2   310  GLN310      0.2608
     51  OE1       56.5880  -84.3330   74.3110 O.2   310  GLN310     -0.2717
     52  NE2       57.1610  -85.5500   76.1100 N.am  310  GLN310     -0.0878
     53  N         43.8860  -87.1420   73.1290 N.3   341  LYS341     -0.1245
     54  CA        44.8430  -87.4210   74.2320 C.3   341  LYS341      0.1561
     55  C         45.4160  -86.1150   74.8100 C.2   341  LYS341      0.2260
     56  O         45.8650  -85.2460   74.0570 O.2   341  LYS341     -0.2867
     57  CB        46.0020  -88.3140   73.7490 C.3   341  LYS341      0.0271
     58  CG        45.5700  -89.7000   73.3080 C.3   341  LYS341      0.0035
     59  CD        46.7460  -90.4990   72.7600 C.3   341  LYS341      0.0206
     60  CE        47.2350  -91.5330   73.7650 C.3   341  LYS341      0.1093
     61  NZ        48.4540  -92.2500   73.2870 N.3   341  LYS341     -0.1314
     62  N         48.1020  -84.2770   77.6340 N.3   343  TYR343     -0.1241
     63  CA        49.3040  -84.4840   78.4130 C.3   343  TYR343      0.1605
     64  C         49.4710  -83.3520   79.4140 C.2   343  TYR343      0.2264
     65  O         50.3380  -82.4950   79.2790 O.2   343  TYR343     -0.2867
     66  CB        50.5450  -84.5990   77.5320 C.3   343  TYR343      0.0534
     67  CG        50.4150  -85.5150   76.3290 C.ar  343  TYR343     -0.0201
     68  CD1       49.9020  -86.8030   76.4540 C.ar  343  TYR343     -0.0009
     69  CD2       50.8780  -85.1190   75.0900 C.ar  343  TYR343     -0.0009
     70  CE1       49.8140  -87.6600   75.3430 C.ar  343  TYR343      0.0417
     71  CE2       50.8020  -85.9670   73.9800 C.ar  343  TYR343      0.0417
     72  CZ        50.2580  -87.2370   74.1150 C.ar  343  TYR343      0.1957
     73  OH        50.1740  -88.0750   73.0150 O.3   343  TYR343     -0.2866
     74  N         50.7750  -83.2480   82.1780 N.3   345  ASP345     -0.1225
     75  CA        52.1170  -83.2310   82.8260 C.3   345  ASP345      0.1805
     76  C         53.2950  -82.6170   82.0400 C.2   345  ASP345      0.2597
     77  O         54.4290  -82.5780   82.5510 O.2   345  ASP345     -0.2718
     78  CB        52.5070  -84.6470   83.2430 C.3   345  ASP345      0.1424
     79  CG        52.4170  -85.6610   82.1180 C.2   345  ASP345      0.3668
     80  OD1       51.7170  -85.4250   81.0990 O.co2 345  ASP345     -0.2456
     81  OD2       53.0370  -86.7230   82.2660 O.co2 345  ASP345     -0.2456
     82  N         53.0440  -82.0940   80.8400 N.am  346  ILE346     -0.1980
     83  CA        54.1280  -81.4570   80.0800 C.3   346  ILE346      0.1595
     84  C         53.6560  -80.2110   79.3170 C.2   346  ILE346      0.2287
     85  O         52.4390  -80.0270   79.0770 O.2   346  ILE346     -0.2864
     86  CB        54.7190  -82.4310   79.0270 C.3   346  ILE346      0.0276
     87  CG1       53.5730  -83.0560   78.2360 C.3   346  ILE346      0.0022
     88  CG2       55.5590  -83.4870   79.6840 C.3   346  ILE346      0.0022
     89  CD1       53.9700  -83.7390   76.9460 C.3   346  ILE346      0.0001
     90  N         65.6140  -92.2300   69.1470 N.3   378  ARG378     -0.1245
     91  CA        64.2140  -92.4200   68.8440 C.3   378  ARG378      0.1563
     92  C         63.5260  -91.1060   69.1910 C.2   378  ARG378      0.2260
     93  O         63.4060  -90.7410   70.3620 O.2   378  ARG378     -0.2867
     94  CB        63.6270  -93.5990   69.6650 C.3   378  ARG378      0.0307
     95  CG        62.1650  -93.9750   69.3740 C.3   378  ARG378      0.0489
     96  CD        61.1800  -93.0920   70.1700 C.3   378  ARG378      0.2205
     97  NE        59.8340  -93.6490   70.2850 N.pl3 378  ARG378     -0.0865
     98  CZ        58.8140  -93.0340   70.8830 C.cat 378  ARG378      0.5346
     99  NH1       59.0180  -91.8940   71.4930 N.pl3 378  ARG378      0.1354
    100  NH2       57.6190  -93.6000   70.9540 N.pl3 378  ARG378      0.1354
    101  N         60.5800  -88.5840   69.6350 N.3   380  ASP380     -0.1225
    102  CA        59.2210  -88.6490   70.1010 C.3   380  ASP380      0.1805
    103  C         58.3960  -87.6480   69.2830 C.2   380  ASP380      0.2597
    104  O         58.8100  -86.5090   69.0990 O.2   380  ASP380     -0.2718
    105  CB        59.2140  -88.3490   71.6170 C.3   380  ASP380      0.1424
    106  CG        57.9320  -88.7330   72.2780 C.2   380  ASP380      0.3668
    107  OD1       57.6310  -89.9370   72.3870 O.co2 380  ASP380     -0.2456
    108  OD2       57.2060  -87.8360   72.6870 O.co2 380  ASP380     -0.2456
    109  N         57.2620  -88.1170   68.7800 N.am  381  ASN381     -0.1974
    110  CA        56.2520  -87.2830   68.0880 C.3   381  ASN381      0.1688
    111  C         56.7990  -86.1650   67.2470 C.2   381  ASN381      0.2292
    112  O         56.4560  -85.0110   67.4410 O.2   381  ASN381     -0.2864
    113  CB        55.2520  -86.7050   69.1100 C.3   381  ASN381      0.1181
    114  CG        54.4460  -87.7680   69.7870 C.2   381  ASN381      0.2629
    115  OD1       53.6650  -88.5090   69.1660 O.2   381  ASN381     -0.2716
    116  ND2       54.5680  -87.8180   71.0690 N.am  381  ASN381     -0.0877
    117  N         58.9810  -91.3550   65.4330 N.3   409  GLU409     -0.1245
    118  CA        57.7090  -91.9240   65.8800 C.3   409  GLU409      0.1567
    119  C         56.5550  -91.0520   65.4390 C.2   409  GLU409      0.2260
    120  O         55.9670  -90.3410   66.2410 O.2   409  GLU409     -0.2867
    121  CB        57.6700  -92.1290   67.3880 C.3   409  GLU409      0.0388
    122  CG        56.3550  -92.7530   67.8570 C.3   409  GLU409      0.1160
    123  CD        55.6850  -91.9490   68.9210 C.2   409  GLU409      0.3649
    124  OE1       56.2350  -90.8750   69.3080 O.co2 409  GLU409     -0.2457
    125  OE2       54.5980  -92.3680   69.3510 O.co2 409  GLU409     -0.2457
    126  N         51.9850  -97.6580   73.9800 N.3   466  ASP466     -0.1239
    127  CA        50.7970  -96.8500   73.6910 C.3   466  ASP466      0.1674
    128  C         49.8340  -97.5770   72.7540 C.2   466  ASP466      0.2266
    129  O         48.7620  -97.0580   72.4100 O.2   466  ASP466     -0.2867
    130  CB        51.2570  -95.5360   73.0310 C.3   466  ASP466      0.1410
    131  CG        52.3740  -94.8550   73.8050 C.2   466  ASP466      0.3668
    132  OD1       52.0750  -94.2600   74.8750 O.co2 466  ASP466     -0.2456
    133  OD2       53.5380  -94.9100   73.3410 O.co2 466  ASP466     -0.2456
    134  N         54.0140  -96.8850   81.7540 N.3   520  LYS520     -0.1231
    135  CA        54.3120  -95.4810   81.5840 C.3   520  LYS520      0.1693
    136  C         54.1040  -94.7710   82.9090 C.2   520  LYS520      0.2592
    137  O         54.8170  -93.8440   83.2230 O.2   520  LYS520     -0.2718
    138  CB        53.4300  -94.8610   80.5070 C.3   520  LYS520      0.0285
    139  CG        53.7440  -95.3450   79.0960 C.3   520  LYS520      0.0035
    140  CD        52.8180  -94.6880   78.0810 C.3   520  LYS520      0.0206
    141  CE        51.3790  -95.1550   78.1980 C.3   520  LYS520      0.1093
    142  NZ        50.4670  -94.5480   77.2420 N.3   520  LYS520     -0.1314
    143  N         53.1760  -95.2550   83.7070 N.am  521  TYR521     -0.1976
    144  CA        52.8200  -94.5810   84.9600 C.3   521  TYR521      0.1639
    145  C         53.1770  -95.3550   86.2230 C.2   521  TYR521      0.2290
    146  O         52.8190  -94.9190   87.3250 O.2   521  TYR521     -0.2864
    147  CB        51.3250  -94.3100   84.9660 C.3   521  TYR521      0.0560
    148  CG        50.7730  -93.8420   83.6600 C.ar  521  TYR521     -0.0198
    149  CD1       50.8400  -92.5300   83.3050 C.ar  521  TYR521     -0.0009
    150  CD2       50.1650  -94.7390   82.7770 C.ar  521  TYR521     -0.0009
    151  CE1       50.3210  -92.0830   82.0870 C.ar  521  TYR521      0.0417
    152  CE2       49.6470  -94.3200   81.5690 C.ar  521  TYR521      0.0417
    153  CZ        49.7260  -92.9950   81.2250 C.ar  521  TYR521      0.1957
    154  OH        49.2270  -92.5670   80.0130 O.3   521  TYR521     -0.2866
@<TRIPOS>BOND
     1   117   118    1
     2   119   118    1
     3   119   120    2
     4   118   121    1
     5   111   112    2
     6   111   110    1
     7   121   122    1
     8   122   123    1
     9   110   109    1
    10   110   113    1
    11   109   103   am
    12    91    90    1
    13    91    92    1
    14    91    94    1
    15   123   124   ar
    16   123   125   ar
    17   104   103    2
    18   113   114    1
    19   115   114    2
    20    92    93    2
    21   103   102    1
    22    95    94    1
    23    95    96    1
    24   101   102    1
    25   114   116   am
    26   102   105    1
    27    96    97    1
    28    97    98    2
    29    98   100    1
    30    98    99    1
    31   105   106    1
    32   106   107   ar
    33   106   108   ar
    34   129   128    2
    35   128   127    1
    36    59    58    1
    37    59    60    1
    38    73    72    1
    39   130   127    1
    40   130   131    1
    41    53    54    1
    42    61    60    1
    43    58    57    1
    44   133   131   ar
    45   127   126    1
    46    57    54    1
    47   131   132   ar
    48    71    72   ar
    49    71    69   ar
    50    56    55    2
    51    72    70   ar
    52    54    55    1
    53    51    50    2
    54    44    45    1
    55    69    67   ar
    56    33    31   ar
    57    33    34   ar
    58    50    49    1
    59    50    52   am
    60    48    45    1
    61    48    49    1
    62    70    68   ar
    63    45    46    1
    64    31    30   ar
    65    36    34   ar
    66    36    38   ar
    67    34    32   ar
    68    67    68   ar
    69    67    66    1
    70    46    47    2
    71    89    87    1
    72    38    37   ar
    73    30    32   ar
    74    30    29    1
    75    32    35   ar
    76   142   141    1
    77    66    63    1
    78    62    63    1
    79    29    26    1
    80   140   141    1
    81   140   139    1
    82    37    35   ar
    83    87    86    1
    84    63    64    1
    85    28    27    2
    86    86    88    1
    87    86    83    1
    88    26    27    1
    89    26    25    1
    90    85    84    2
    91   139   138    1
    92    65    64    2
    93    84    83    1
    94    27    39   am
    95    17    15   am
    96   154   153    1
    97    83    82    1
    98   138   135    1
    99    82    76   am
   100     9     8    1
   101    39    40    1
   102    23    22    1
   103    80    79   ar
   104    15    16    2
   105    15    14    1
   106   153   152   ar
   107   153   151   ar
   108   152   150   ar
   109    40    41    1
   110    40    43    1
   111   135   134    1
   112   135   136    1
   113    14    11    1
   114    76    77    2
   115    76    75    1
   116     8     7    1
   117   151   149   ar
   118    79    81   ar
   119    79    78    1
   120    41    42    2
   121    74    75    1
   122    22    24    1
   123    22    19    1
   124   150   148   ar
   125    75    78    1
   126    20    21    2
   127    20    19    1
   128   136   137    2
   129   136   143   am
   130    19    18    1
   131   149   148   ar
   132     7     6    1
   133    11    10    1
   134    11    12    1
   135   148   147    1
   136   143   144    1
   137    13    12    2
   138     6     5    1
   139   144   147    1
   140   144   145    1
   141     5     2    1
   142   145   146    2
   143     2     1    1
   144     2     3    1
   145     3     4    2
