@<TRIPOS>MOLECULE
tmp/3ztcI00.pdb
 173 175 0 0 0
SMALL
GASTEIGER

@<TRIPOS>ATOM
      1  N         31.8310   73.2450   -6.5500 N.3     6  ASN6       -0.1225
      2  CA        32.2850   74.6520   -6.6210 C.3     6  ASN6        0.1785
      3  C         31.1460   75.6810   -6.5640 C.2     6  ASN6        0.2598
      4  O         31.0020   76.5230   -7.4510 O.2     6  ASN6       -0.2718
      5  CB        33.2000   74.9120   -7.8450 C.3     6  ASN6        0.1169
      6  CG        33.9880   76.2510   -7.7440 C.2     6  ASN6        0.2627
      7  OD1       33.8300   77.0300   -6.7920 O.2     6  ASN6       -0.2716
      8  ND2       34.8280   76.5110   -8.7390 N.am    6  ASN6       -0.0877
      9  N         30.3370   75.6130   -5.5100 N.am    7  SER7       -0.1938
     10  CA        29.4360   76.7020   -5.1600 C.3     7  SER7        0.2055
     11  C         30.3960   77.7860   -4.8570 C.2     7  SER7        0.2642
     12  O         31.5220   77.5120   -4.4530 O.2     7  SER7       -0.2714
     13  CB        28.7270   76.3740   -3.8730 C.3     7  SER7        0.2130
     14  OG        29.6310   76.4600   -2.8030 O.3     7  SER7       -0.2179
     15  N         30.0260   79.0280   -5.0200 N.am    8  ARG8       -0.1977
     16  CA        30.9990   79.9910   -4.5800 C.3     8  ARG8        0.1597
     17  C         30.3720   80.7180   -3.4030 C.2     8  ARG8        0.2287
     18  O         30.4230   81.9610   -3.2950 O.2     8  ARG8       -0.2864
     19  CB        31.4740   80.8320   -5.7560 C.3     8  ARG8        0.0334
     20  CG        32.3820   80.0070   -6.6590 C.3     8  ARG8        0.0492
     21  CD        32.7740   80.7270   -7.9510 C.3     8  ARG8        0.2205
     22  NE        31.7460   80.6210   -8.9960 N.pl3   8  ARG8       -0.0865
     23  CZ        30.9880   81.6360   -9.4330 C.cat   8  ARG8        0.5346
     24  NH1       31.1240   82.8630   -8.9240 N.pl3   8  ARG8        0.1354
     25  NH2       30.0860   81.4290  -10.3870 N.pl3   8  ARG8        0.1354
     26  N         35.6780   74.0450   13.5530 N.3    15  PHE15      -0.1241
     27  CA        36.3530   72.7460   13.6580 C.3    15  PHE15       0.1605
     28  C         36.6100   72.3990   15.1380 C.2    15  PHE15       0.2264
     29  O         37.6110   72.8660   15.7290 O.2    15  PHE15      -0.2867
     30  CB        37.7010   72.7250   12.9010 C.3    15  PHE15       0.0534
     31  CG        37.5810   72.5360   11.4060 C.ar   15  PHE15      -0.0203
     32  CD1       36.3660   72.2260   10.8080 C.ar   15  PHE15      -0.0042
     33  CD2       38.7010   72.6800   10.5940 C.ar   15  PHE15      -0.0042
     34  CE1       36.2740   72.0720    9.4030 C.ar   15  PHE15      -0.0003
     35  CE2       38.6230   72.5280    9.2250 C.ar   15  PHE15      -0.0003
     36  CZ        37.4060   72.2160    8.6190 C.ar   15  PHE15      -0.0000
     37  N         42.5990   67.8240    9.3490 N.3    25  PRO25      -0.2116
     38  CA        41.4180   68.0220    8.5220 C.3    25  PRO25       0.1372
     39  C         41.7950   67.9500    7.0590 C.2    25  PRO25       0.2244
     40  O         42.8340   68.4620    6.6570 O.2    25  PRO25      -0.2868
     41  CB        40.9440   69.4380    8.8900 C.3    25  PRO25       0.0268
     42  CG        42.0390   70.0870    9.6240 C.3    25  PRO25       0.0207
     43  CD        43.2260   69.1160    9.6850 C.3    25  PRO25       0.0892
     44  N         40.3410   68.5340    3.1910 N.3    27  TRP27      -0.1241
     45  CA        39.3340   69.0430    2.2760 C.3    27  TRP27       0.1605
     46  C         39.4250   68.2380    0.9740 C.2    27  TRP27       0.2264
     47  O         40.5220   68.0150    0.4800 O.2    27  TRP27      -0.2867
     48  CB        39.5550   70.5550    2.0410 C.3    27  TRP27       0.0550
     49  CG        38.7330   71.1370    0.8950 C.ar   27  TRP27       0.0003
     50  CD1       37.3550   71.1650    0.7820 C.ar   27  TRP27       0.0946
     51  CD2       39.2420   71.7550   -0.2830 C.ar   27  TRP27       0.0152
     52  NE1       36.9930   71.7560   -0.4100 N.ar   27  TRP27      -0.2442
     53  CE2       38.1280   72.1300   -1.0770 C.ar   27  TRP27       0.0810
     54  CE3       40.5360   72.0460   -0.7430 C.ar   27  TRP27       0.0012
     55  CZ2       38.2750   72.7780   -2.3140 C.ar   27  TRP27       0.0191
     56  CZ3       40.6940   72.6670   -1.9800 C.ar   27  TRP27       0.0001
     57  CH2       39.5690   73.0300   -2.7520 C.ar   27  TRP27       0.0015
     58  N         38.3230   70.0480   -6.0480 N.3    30  PHE30      -0.1241
     59  CA        37.3030   69.9720   -7.1470 C.3    30  PHE30       0.1605
     60  C         37.5170   68.8070   -8.1360 C.2    30  PHE30       0.2264
     61  O         36.6800   68.5380   -8.9990 O.2    30  PHE30      -0.2867
     62  CB        37.1450   71.3140   -7.8760 C.3    30  PHE30       0.0534
     63  CG        36.8070   72.4670   -6.9550 C.ar   30  PHE30      -0.0203
     64  CD1       35.6240   72.4560   -6.2000 C.ar   30  PHE30      -0.0042
     65  CD2       37.6830   73.5710   -6.8320 C.ar   30  PHE30      -0.0042
     66  CE1       35.3130   73.5260   -5.3370 C.ar   30  PHE30      -0.0003
     67  CE2       37.3850   74.6450   -5.9810 C.ar   30  PHE30      -0.0003
     68  CZ        36.2040   74.6310   -5.2320 C.ar   30  PHE30      -0.0000
     69  N         45.1040   70.3100    5.7460 N.3    37  TYR37      -0.1228
     70  CA        45.0350   71.6420    6.3320 C.3    37  TYR37       0.1721
     71  C         45.7530   71.6430    7.6910 C.2    37  TYR37       0.2437
     72  O         46.0790   70.5680    8.2070 O.2    37  TYR37      -0.2733
     73  CB        43.5660   72.0630    6.4700 C.3    37  TYR37       0.0547
     74  CG        43.0710   72.8090    5.2480 C.ar   37  TYR37      -0.0200
     75  CD1       42.6670   72.1170    4.1030 C.ar   37  TYR37      -0.0009
     76  CD2       43.0750   74.2190    5.2160 C.ar   37  TYR37      -0.0009
     77  CE1       42.2380   72.8010    2.9680 C.ar   37  TYR37       0.0417
     78  CE2       42.6590   74.9160    4.0720 C.ar   37  TYR37       0.0417
     79  CZ        42.2300   74.2030    2.9530 C.ar   37  TYR37       0.1957
     80  OH        41.8220   74.8880    1.8130 O.3    37  TYR37      -0.2866
     81  N         46.0460   72.8430    8.2510 N.am   38  PRO38      -0.2718
     82  CA        46.6960   72.9760    9.5640 C.3    38  PRO38       0.1535
     83  C         46.1050   72.0540   10.6370 C.2    38  PRO38       0.2599
     84  O         44.8820   71.9710   10.7880 O.2    38  PRO38      -0.2715
     85  CB        46.4090   74.4310    9.9120 C.3    38  PRO38       0.0310
     86  CG        46.4720   75.1100    8.5480 C.3    38  PRO38       0.0237
     87  CD        45.8600   74.1570    7.6070 C.3    38  PRO38       0.0939
     88  N         46.9650   71.3760   11.3850 N.am   39  THR39      -0.1937
     89  CA        46.4850   70.3720   12.3440 C.3    39  THR39       0.2028
     90  C         45.7530   70.9690   13.5650 C.2    39  THR39       0.2642
     91  O         45.6870   72.1860   13.7360 O.2    39  THR39      -0.2714
     92  CB        47.5930   69.3510   12.7340 C.3    39  THR39       0.1808
     93  OG1       48.6170   69.9820   13.4890 O.3    39  THR39      -0.2208
     94  CG2       48.2500   68.7870   11.5170 C.3    39  THR39       0.0379
     95  N         45.1540   70.1360   14.3870 N.am   40  LEU40      -0.1977
     96  CA        44.5000   70.6460   15.5650 C.3    40  LEU40       0.1596
     97  C         44.8900   69.7940   16.7750 C.2    40  LEU40       0.2287
     98  O         44.7290   68.5700   16.7220 O.2    40  LEU40      -0.2864
     99  CB        42.9840   70.6120   15.3640 C.3    40  LEU40       0.0297
    100  CG        42.2280   71.7010   14.5970 C.3    40  LEU40       0.0022
    101  CD1       42.4910   71.6190   13.1440 C.3    40  LEU40       0.0001
    102  CD2       40.7510   71.5650   14.8380 C.3    40  LEU40       0.0001
    103  N         38.6370   75.7410   16.1250 N.3    46  ARG46      -0.1245
    104  CA        39.0370   76.8230   15.2050 C.3    46  ARG46       0.1563
    105  C         37.9030   77.2160   14.3000 C.2    46  ARG46       0.2260
    106  O         37.2840   76.3640   13.7030 O.2    46  ARG46      -0.2867
    107  CB        40.2240   76.4450   14.3110 C.3    46  ARG46       0.0307
    108  CG        41.4610   75.9560   15.0290 C.3    46  ARG46       0.0489
    109  CD        42.2380   77.0670   15.6920 C.3    46  ARG46       0.2205
    110  NE        43.5410   76.5980   16.1790 N.pl3  46  ARG46      -0.0865
    111  CZ        43.8280   76.2670   17.4410 C.cat  46  ARG46       0.5346
    112  NH1       42.9090   76.3300   18.3970 N.pl3  46  ARG46       0.1354
    113  NH2       45.0620   75.8760   17.7520 N.pl3  46  ARG46       0.1354
    114  N         36.7970   78.3880   10.9670 N.3    48  ILE48      -0.1231
    115  CA        37.4730   78.4170    9.6810 C.3    48  ILE48       0.1692
    116  C         36.5040   78.8250    8.5930 C.2    48  ILE48       0.2592
    117  O         35.2930   78.6640    8.7380 O.2    48  ILE48      -0.2718
    118  CB        38.2880   77.0730    9.3510 C.3    48  ILE48       0.0266
    119  CG1       37.4000   75.8310    9.2650 C.3    48  ILE48       0.0019
    120  CG2       39.3750   76.8250   10.3650 C.3    48  ILE48       0.0020
    121  CD1       36.8140   75.6650    7.9250 C.3    48  ILE48       0.0001
    122  N         37.0420   79.3570    7.5110 N.am   49  HIS49      -0.1962
    123  CA        36.2380   79.8020    6.3740 C.3    49  HIS49       0.1787
    124  C         36.2040   78.7620    5.2710 C.2    49  HIS49       0.2621
    125  O         37.2550   78.3310    4.8070 O.2    49  HIS49      -0.2715
    126  CB        36.7550   81.1430    5.8290 C.3    49  HIS49       0.0785
    127  CG        36.5600   82.2760    6.7850 C.ar   49  HIS49       0.0821
    128  ND1       37.6070   82.8970    7.4330 N.ar   49  HIS49      -0.2267
    129  CD2       35.4280   82.8720    7.2390 C.ar   49  HIS49       0.1154
    130  CE1       37.1310   83.8390    8.2290 C.ar   49  HIS49       0.1986
    131  NE2       35.8110   83.8420    8.1350 N.ar   49  HIS49      -0.2212
    132  N         34.9820   78.4070    4.8560 N.am   50  SER50      -0.1936
    133  CA        34.7160   77.3700    3.8440 C.3    50  SER50       0.2055
    134  C         33.4650   77.6510    2.9380 C.2    50  SER50       0.2643
    135  O         33.0110   78.7770    2.7820 O.2    50  SER50      -0.2714
    136  CB        34.6040   76.0060    4.5440 C.3    50  SER50       0.2130
    137  OG        34.7520   74.9170    3.6420 O.3    50  SER50      -0.2179
    138  N         32.9160   76.6360    2.3100 N.am   51  TYR51      -0.1973
    139  CA        31.9160   76.8970    1.2910 C.3    51  TYR51       0.1639
    140  C         30.8580   75.7970    1.2690 C.2    51  TYR51       0.2290
    141  O         31.1430   74.6430    1.6050 O.2    51  TYR51      -0.2864
    142  CB        32.6020   77.0030   -0.0790 C.3    51  TYR51       0.0560
    143  CG        33.4970   78.2210   -0.2700 C.ar   51  TYR51      -0.0198
    144  CD1       34.8140   78.2200    0.1730 C.ar   51  TYR51      -0.0009
    145  CD2       33.0150   79.3770   -0.9110 C.ar   51  TYR51      -0.0009
    146  CE1       35.6250   79.3400    0.0050 C.ar   51  TYR51       0.0417
    147  CE2       33.8180   80.4940   -1.0900 C.ar   51  TYR51       0.0417
    148  CZ        35.1200   80.4680   -0.6310 C.ar   51  TYR51       0.1957
    149  OH        35.9290   81.5710   -0.8050 O.3    51  TYR51      -0.2866
    150  N         31.2420   71.7600    0.0890 N.3    54  HIS54      -0.1241
    151  CA        32.6290   71.2850    0.1800 C.3    54  HIS54       0.1621
    152  C         32.6850   70.0250    1.0500 C.2    54  HIS54       0.2264
    153  O         31.8710   69.8580    1.9510 O.2    54  HIS54      -0.2867
    154  CB        33.5550   72.3900    0.6750 C.3    54  HIS54       0.0745
    155  CG        33.8270   73.4300   -0.3620 C.ar   54  HIS54       0.0817
    156  ND1       34.9220   74.2670   -0.3170 N.ar   54  HIS54      -0.2268
    157  CD2       33.1560   73.7460   -1.4980 C.ar   54  HIS54       0.1154
    158  CE1       34.9160   75.0480   -1.3810 C.ar   54  HIS54       0.1986
    159  NE2       33.8430   74.7620   -2.1040 N.ar   54  HIS54      -0.2212
    160  N         34.6250   67.4860    3.6100 N.3    56  TRP56      -0.1241
    161  CA        35.7240   67.3320    4.5620 C.3    56  TRP56       0.1605
    162  C         35.7220   65.9960    5.2880 C.2    56  TRP56       0.2264
    163  O         34.6660   65.4470    5.6420 O.2    56  TRP56      -0.2867
    164  CB        35.6400   68.3990    5.6570 C.3    56  TRP56       0.0550
    165  CG        35.8870   69.8020    5.2430 C.ar   56  TRP56       0.0003
    166  CD1       34.9610   70.6870    4.7990 C.ar   56  TRP56       0.0946
    167  CD2       37.1290   70.5070    5.2910 C.ar   56  TRP56       0.0152
    168  NE1       35.5410   71.8850    4.5600 N.ar   56  TRP56      -0.2442
    169  CE2       36.8710   71.8160    4.8640 C.ar   56  TRP56       0.0810
    170  CE3       38.4430   70.1520    5.6500 C.ar   56  TRP56       0.0012
    171  CZ2       37.8540   72.7810    4.7740 C.ar   56  TRP56       0.0191
    172  CZ3       39.4340   71.1090    5.5730 C.ar   56  TRP56       0.0001
    173  CH2       39.1260   72.4270    5.1360 C.ar   56  TRP56       0.0015
@<TRIPOS>BOND
     1    25    23    1
     2    23    22    2
     3    23    24    1
     4    61    60    2
     5    22    21    1
     6     8     6   am
     7    60    59    1
     8    21    20    1
     9    62    59    1
    10    62    63    1
    11     5     6    1
    12     5     2    1
    13     6     7    2
    14     4     3    2
    15    59    58    1
    16    63    65   ar
    17    63    64   ar
    18    65    67   ar
    19    20    19    1
    20     2     3    1
    21     2     1    1
    22     3     9   am
    23    64    66   ar
    24    67    68   ar
    25    19    16    1
    26     9    10    1
    27    66    68   ar
    28    10    11    1
    29    10    13    1
    30    15    11   am
    31    15    16    1
    32    11    12    2
    33    16    17    1
    34    13    14    1
    35    17    18    2
    36    57    55   ar
    37    57    56   ar
    38    55    53   ar
    39   159   157   ar
    40   159   158   ar
    41    56    54   ar
    42   157   155   ar
    43   158   156   ar
    44   147   145   ar
    45   147   148   ar
    46    53    52   ar
    47    53    51   ar
    48   145   143   ar
    49   149   148    1
    50    54    51   ar
    51   148   146   ar
    52    52    50   ar
    53   155   156   ar
    54   155   154    1
    55    51    49   ar
    56   143   142    1
    57   143   144   ar
    58   142   139    1
    59   146   144   ar
    60   150   151    1
    61   151   154    1
    62   151   152    1
    63    47    46    2
    64    50    49   ar
    65    49    48    1
    66    46    45    1
    67   152   153    2
    68   140   139    1
    69   140   141    2
    70   139   138    1
    71    80    79    1
    72    48    45    1
    73    45    44    1
    74   138   134   am
    75   135   134    2
    76   134   133    1
    77    79    77   ar
    78    79    78   ar
    79    77    75   ar
    80   160   161    1
    81   137   136    1
    82   133   136    1
    83   133   132    1
    84    78    76   ar
    85    75    74   ar
    86   168   166   ar
    87   168   169   ar
    88   161   162    1
    89   161   164    1
    90   171   169   ar
    91   171   173   ar
    92   166   165   ar
    93   125   124    2
    94   132   124   am
    95   169   167   ar
    96   173   172   ar
    97    76    74   ar
    98   165   167   ar
    99   165   164    1
   100    74    73    1
   101   124   123    1
   102   162   163    2
   103   167   170   ar
   104   172   170   ar
   105    69    70    1
   106   126   123    1
   107   126   127    1
   108    70    73    1
   109    70    71    1
   110   123   122    1
   111    40    39    2
   112   127   129   ar
   113   127   128   ar
   114    39    38    1
   115   129   131   ar
   116   128   130   ar
   117   122   116   am
   118    87    81    1
   119    87    86    1
   120    71    72    2
   121    71    81   am
   122   121   119    1
   123   131   130   ar
   124    81    82    1
   125    38    41    1
   126    38    37    1
   127    86    85    1
   128   116   117    2
   129   116   115    1
   130    36    35   ar
   131    36    34   ar
   132    41    42    1
   133    35    33   ar
   134   119   118    1
   135    37    43    1
   136   118   115    1
   137   118   120    1
   138    34    32   ar
   139    82    85    1
   140    82    83    1
   141    42    43    1
   142   115   114    1
   143    33    31   ar
   144    83    84    2
   145    83    88   am
   146    32    31   ar
   147    88    89    1
   148    31    30    1
   149    94    92    1
   150    89    92    1
   151    89    90    1
   152    92    93    1
   153    30    27    1
   154   101   100    1
   155    26    27    1
   156    90    91    2
   157    90    95   am
   158    27    28    1
   159   106   105    2
   160   105   104    1
   161   107   108    1
   162   107   104    1
   163    95    96    1
   164   100   102    1
   165   100    99    1
   166   108   109    1
   167    28    29    2
   168   104   103    1
   169    99    96    1
   170    96    97    1
   171   109   110    1
   172   110   111    2
   173    98    97    2
   174   111   113    1
   175   111   112    1
