@<TRIPOS>MOLECULE
tmp/3ztdC00.pdb
 145 147 0 0 0
SMALL
GASTEIGER

@<TRIPOS>ATOM
      1  N        -61.3740   17.1650    7.1470 N.3     5  ASN5       -0.1240
      2  CA       -60.7160   15.8390    7.2260 C.3     5  ASN5        0.1653
      3  C        -61.7330   14.6910    7.3470 C.2     5  ASN5        0.2266
      4  O        -61.9650   14.1920    8.4330 O.2     5  ASN5       -0.2867
      5  CB       -59.6510   15.8010    8.3590 C.3     5  ASN5        0.1155
      6  CG       -58.9910   14.4340    8.5210 C.2     5  ASN5        0.2627
      7  OD1      -59.1490   13.5330    7.7110 O.2     5  ASN5       -0.2716
      8  ND2      -58.2840   14.2780    9.5890 N.am    5  ASN5       -0.0877
      9  N        -61.8440   11.7450    5.5650 N.3     7  ARG7       -0.1245
     10  CA       -61.3540   10.4310    5.2620 C.3     7  ARG7        0.1563
     11  C        -62.2700    9.6810    4.2710 C.2     7  ARG7        0.2260
     12  O        -62.3110    8.4630    4.3110 O.2     7  ARG7       -0.2867
     13  CB       -61.2330    9.6180    6.5560 C.3     7  ARG7        0.0307
     14  CG       -60.1680   10.1090    7.5140 C.3     7  ARG7        0.0489
     15  CD       -60.6120    9.9900    8.9860 C.3     7  ARG7        0.2205
     16  NE       -59.4610   10.2370    9.8590 N.pl3   7  ARG7       -0.0865
     17  CZ       -59.5020   10.5510   11.1610 C.cat   7  ARG7        0.5346
     18  NH1      -60.6750   10.6860   11.8060 N.pl3   7  ARG7        0.1354
     19  NH2      -58.3440   10.7300   11.8190 N.pl3   7  ARG7        0.1354
     20  N        -53.6000   22.2770   -2.9080 N.3    26  TRP26      -0.1241
     21  CA       -54.5310   21.6570   -1.9480 C.3    26  TRP26       0.1605
     22  C        -54.3710   22.3810   -0.6300 C.2    26  TRP26       0.2264
     23  O        -53.2380   22.5980   -0.1590 O.2    26  TRP26      -0.2867
     24  CB       -54.2350   20.1650   -1.7460 C.3    26  TRP26       0.0550
     25  CG       -55.0280   19.5130   -0.5580 C.ar   26  TRP26       0.0003
     26  CD1      -56.3870   19.3720   -0.4660 C.ar   26  TRP26       0.0946
     27  CD2      -54.4910   18.8920    0.6240 C.ar   26  TRP26       0.0152
     28  NE1      -56.7420   18.7410    0.6990 N.ar   26  TRP26      -0.2442
     29  CE2      -55.6060   18.4420    1.4020 C.ar   26  TRP26       0.0810
     30  CE3      -53.1800   18.6670    1.1030 C.ar   26  TRP26       0.0012
     31  CZ2      -55.4600   17.8150    2.6540 C.ar   26  TRP26       0.0191
     32  CZ3      -53.0180   18.0400    2.3280 C.ar   26  TRP26       0.0001
     33  CH2      -54.1640   17.6110    3.0980 C.ar   26  TRP26       0.0015
     34  N        -55.2210   20.6090    6.1680 N.3    29  PHE29      -0.1241
     35  CA       -56.1990   20.7020    7.2660 C.3    29  PHE29       0.1605
     36  C        -56.0400   21.9310    8.1650 C.2    29  PHE29       0.2264
     37  O        -57.0220   22.3620    8.7950 O.2    29  PHE29      -0.2867
     38  CB       -56.1600   19.4550    8.1400 C.3    29  PHE29       0.0534
     39  CG       -56.4410   18.1920    7.3800 C.ar   29  PHE29      -0.0203
     40  CD1      -57.6650   18.0120    6.7340 C.ar   29  PHE29      -0.0042
     41  CD2      -55.4600   17.2100    7.2470 C.ar   29  PHE29      -0.0042
     42  CE1      -57.9180   16.8700    6.0120 C.ar   29  PHE29      -0.0003
     43  CE2      -55.7170   16.1000    6.5260 C.ar   29  PHE29      -0.0003
     44  CZ       -56.9690   15.9300    5.9040 C.ar   29  PHE29      -0.0000
     45  N        -48.9920   20.4990   -5.5850 N.3    36  TYR36      -0.1228
     46  CA       -48.9850   19.1530   -6.1990 C.3    36  TYR36       0.1721
     47  C        -48.3370   19.1990   -7.5650 C.2    36  TYR36       0.2437
     48  O        -48.1050   20.2830   -8.0480 O.2    36  TYR36      -0.2733
     49  CB       -50.4190   18.6690   -6.3070 C.3    36  TYR36       0.0547
     50  CG       -50.7880   17.9310   -5.0780 C.ar   36  TYR36      -0.0200
     51  CD1      -51.2120   18.6240   -3.9620 C.ar   36  TYR36      -0.0009
     52  CD2      -50.6070   16.5360   -4.9750 C.ar   36  TYR36      -0.0009
     53  CE1      -51.5510   17.9550   -2.7610 C.ar   36  TYR36       0.0417
     54  CE2      -50.9050   15.8510   -3.7760 C.ar   36  TYR36       0.0417
     55  CZ       -51.4020   16.5770   -2.6660 C.ar   36  TYR36       0.1957
     56  OH       -51.7550   15.9850   -1.4580 O.3    36  TYR36      -0.2866
     57  N        -48.0420   18.0510   -8.2140 N.am   37  PRO37      -0.2729
     58  CA       -47.1920   18.1560   -9.4250 C.3    37  PRO37       0.1401
     59  C        -47.9330   18.8480  -10.5270 C.2    37  PRO37       0.2269
     60  O        -49.1550   18.6970  -10.6090 O.2    37  PRO37      -0.2865
     61  CB       -46.9460   16.7140   -9.8220 C.3    37  PRO37       0.0296
     62  CG       -47.3420   15.8990   -8.6410 C.3    37  PRO37       0.0237
     63  CD       -48.4250   16.6590   -7.9490 C.3    37  PRO37       0.0939
     64  N        -55.4530   14.2530  -15.7300 N.3    45  ARG45      -0.1231
     65  CA       -54.8410   13.4460  -14.6690 C.3    45  ARG45       0.1694
     66  C        -55.8710   13.0890  -13.6470 C.2    45  ARG45       0.2592
     67  O        -56.5090   13.9710  -13.0770 O.2    45  ARG45      -0.2718
     68  CB       -53.7170   14.2120  -13.9750 C.3    45  ARG45       0.0321
     69  CG       -52.9360   13.4010  -12.9730 C.3    45  ARG45       0.0489
     70  CD       -51.7410   14.0830  -12.3340 C.3    45  ARG45       0.2205
     71  NE       -50.8560   14.7130  -13.2900 N.pl3  45  ARG45      -0.0865
     72  CZ       -50.2210   15.8650  -13.0740 C.cat  45  ARG45       0.5346
     73  NH1      -50.3670   16.5380  -11.9130 N.pl3  45  ARG45       0.1354
     74  NH2      -49.4340   16.3510  -14.0350 N.pl3  45  ARG45       0.1354
     75  N        -56.0320   11.7870  -13.4240 N.am   46  ARG46      -0.1966
     76  CA       -56.9020   11.2580  -12.3790 C.3    46  ARG46       0.1729
     77  C        -56.2510   11.4940  -11.0120 C.2    46  ARG46       0.2616
     78  O        -55.0380   11.3470  -10.8530 O.2    46  ARG46      -0.2715
     79  CB       -57.0250    9.7660  -12.6320 C.3    46  ARG46       0.0348
     80  CG       -58.2950    9.1200  -12.1660 C.3    46  ARG46       0.0492
     81  CD       -58.4660    7.6930  -12.7420 C.3    46  ARG46       0.2205
     82  NE       -57.2920    6.8150  -12.5870 N.pl3  46  ARG46      -0.0865
     83  CZ       -57.2260    5.7480  -11.7820 C.cat  46  ARG46       0.5346
     84  NH1      -58.2930    5.4310  -11.0380 N.pl3  46  ARG46       0.1354
     85  NH2      -56.0980    4.9930  -11.7440 N.pl3  46  ARG46       0.1354
     86  N        -57.0480   11.8460  -10.0160 N.am   47  ILE47      -0.1963
     87  CA       -56.5380   12.2300   -8.7030 C.3    47  ILE47       0.1727
     88  C        -57.4040   11.6150   -7.6520 C.2    47  ILE47       0.2616
     89  O        -58.6320   11.7230   -7.7450 O.2    47  ILE47      -0.2715
     90  CB       -56.7000   13.7650   -8.5110 C.3    47  ILE47       0.0290
     91  CG1      -55.8090   14.5540   -9.4820 C.3    47  ILE47       0.0022
     92  CG2      -56.5640   14.2040   -7.0090 C.3    47  ILE47       0.0023
     93  CD1      -54.3670   14.0410   -9.5990 C.3    47  ILE47       0.0001
     94  N        -56.7790   11.0130   -6.6400 N.am   48  HIS48      -0.1959
     95  CA       -57.4610   10.5920   -5.3880 C.3    48  HIS48       0.1787
     96  C        -57.3330   11.6870   -4.3550 C.2    48  HIS48       0.2621
     97  O        -56.2410   12.1090   -3.9670 O.2    48  HIS48      -0.2715
     98  CB       -56.8700    9.3110   -4.7710 C.3    48  HIS48       0.0785
     99  CG       -56.9720    8.1130   -5.6600 C.ar   48  HIS48       0.0821
    100  ND1      -55.9280    7.6900   -6.4680 N.ar   48  HIS48      -0.2267
    101  CD2      -58.0080    7.2600   -5.8920 C.ar   48  HIS48       0.1154
    102  CE1      -56.3170    6.6250   -7.1520 C.ar   48  HIS48       0.1986
    103  NE2      -57.5690    6.3380   -6.8180 N.ar   48  HIS48      -0.2212
    104  N        -58.4880   12.1160   -3.9130 N.am   49  SER49      -0.1936
    105  CA       -58.6380   13.1460   -2.9570 C.3    49  SER49       0.2055
    106  C        -59.7600   12.5970   -2.0860 C.2    49  SER49       0.2643
    107  O        -59.8260   11.3990   -1.8560 O.2    49  SER49      -0.2714
    108  CB       -59.0750   14.4080   -3.6750 C.3    49  SER49       0.2130
    109  OG       -58.7870   15.5140   -2.8900 O.3    49  SER49      -0.2179
    110  N        -60.6780   13.4450   -1.6650 N.am   50  TYR50      -0.1973
    111  CA       -61.5140   13.1150   -0.5420 C.3    50  TYR50       0.1639
    112  C        -62.6550   14.1350   -0.4030 C.2    50  TYR50       0.2290
    113  O        -62.4910   15.3470   -0.7150 O.2    50  TYR50      -0.2864
    114  CB       -60.6590   13.1160    0.7540 C.3    50  TYR50       0.0560
    115  CG       -59.6270   11.9920    0.9530 C.ar   50  TYR50      -0.0198
    116  CD1      -59.9840   10.7320    1.4970 C.ar   50  TYR50      -0.0009
    117  CD2      -58.2860   12.2100    0.6530 C.ar   50  TYR50      -0.0009
    118  CE1      -59.0280    9.7370    1.7050 C.ar   50  TYR50       0.0417
    119  CE2      -57.3190   11.2310    0.8640 C.ar   50  TYR50       0.0417
    120  CZ       -57.6960   10.0080    1.3830 C.ar   50  TYR50       0.1957
    121  OH       -56.6920    9.0820    1.5620 O.3    50  TYR50      -0.2866
    122  N        -62.5300   18.3240    0.5720 N.3    53  HIS53      -0.1241
    123  CA       -61.2030   18.9290    0.4710 C.3    53  HIS53       0.1621
    124  C        -61.2250   20.1390   -0.4520 C.2    53  HIS53       0.2264
    125  O        -62.0050   20.1870   -1.4220 O.2    53  HIS53      -0.2867
    126  CB       -60.1700   17.8950    0.0140 C.3    53  HIS53       0.0745
    127  CG       -59.7310   16.9590    1.1020 C.ar   53  HIS53       0.0817
    128  ND1      -58.4550   16.4420    1.1730 N.ar   53  HIS53      -0.2268
    129  CD2      -60.3960   16.4610    2.1720 C.ar   53  HIS53       0.1154
    130  CE1      -58.3550   15.6740    2.2390 C.ar   53  HIS53       0.1986
    131  NE2      -59.5150   15.6810    2.8670 N.ar   53  HIS53      -0.2212
    132  N        -59.4810   22.7430   -3.2210 N.3    55  TRP55      -0.1241
    133  CA       -58.3820   22.9980   -4.1740 C.3    55  TRP55       0.1605
    134  C        -58.5940   24.3030   -4.9120 C.2    55  TRP55       0.2264
    135  O        -59.7440   24.7790   -5.0590 O.2    55  TRP55      -0.2867
    136  CB       -58.3560   21.9370   -5.2380 C.3    55  TRP55       0.0550
    137  CG       -58.2500   20.6200   -4.7180 C.ar   55  TRP55       0.0003
    138  CD1      -59.2530   19.8550   -4.1380 C.ar   55  TRP55       0.0946
    139  CD2      -57.0820   19.7930   -4.7350 C.ar   55  TRP55       0.0152
    140  NE1      -58.7570   18.6110   -3.7910 N.ar   55  TRP55      -0.2442
    141  CE2      -57.4360   18.5480   -4.1560 C.ar   55  TRP55       0.0810
    142  CE3      -55.7630   19.9840   -5.1740 C.ar   55  TRP55       0.0012
    143  CZ2      -56.5280   17.5290   -4.0100 C.ar   55  TRP55       0.0191
    144  CZ3      -54.8540   18.9500   -5.0310 C.ar   55  TRP55       0.0001
    145  CH2      -55.2400   17.7460   -4.4550 C.ar   55  TRP55       0.0015
@<TRIPOS>BOND
     1    64    65    1
     2    65    68    1
     3    65    66    1
     4    74    72    1
     5    68    69    1
     6    66    75   am
     7    66    67    2
     8    75    76    1
     9    71    72    2
    10    71    70    1
    11    72    73    1
    12    69    70    1
    13    81    82    1
    14    81    80    1
    15    79    76    1
    16    79    80    1
    17    82    83    2
    18    76    77    1
    19    83    85    1
    20    83    84    1
    21    77    78    2
    22    77    86   am
    23    60    59    2
    24    59    58    1
    25    86    87    1
    26    61    58    1
    27    61    62    1
    28    93    91    1
    29    91    90    1
    30    58    57    1
    31    87    90    1
    32    87    88    1
    33    62    63    1
    34    90    92    1
    35    57    63    1
    36    57    47   am
    37    48    47    2
    38    89    88    2
    39    88    94   am
    40    47    46    1
    41   102   103   ar
    42   102   100   ar
    43   103   101   ar
    44    94    95    1
    45   100    99   ar
    46    49    46    1
    47    49    50    1
    48    46    45    1
    49   101    99   ar
    50    99    98    1
    51    95    98    1
    52    95    96    1
    53   136   137    1
    54   136   133    1
    55   142   144   ar
    56   142   139   ar
    57    50    52   ar
    58    50    51   ar
    59   135   134    2
    60   144   145   ar
    61    52    54   ar
    62   134   133    1
    63   139   137   ar
    64   139   141   ar
    65   137   138   ar
    66   145   143   ar
    67    96    97    2
    68    96   104   am
    69   133   132    1
    70   141   143   ar
    71   141   140   ar
    72   138   140   ar
    73    51    53   ar
    74   104   105    1
    75    54    55   ar
    76   108   105    1
    77   108   109    1
    78   105   106    1
    79    20    21    1
    80    53    55   ar
    81    55    56    1
    82   106   107    2
    83   106   110   am
    84    21    24    1
    85    21    22    1
    86    24    25    1
    87   110   111    1
    88   125   124    2
    89   113   112    2
    90    22    23    2
    91    25    26   ar
    92    25    27   ar
    93   111   112    1
    94   111   114    1
    95    26    28   ar
    96   124   123    1
    97   126   123    1
    98   126   127    1
    99   123   122    1
   100    27    30   ar
   101    27    29   ar
   102   117   119   ar
   103   117   115   ar
   104    28    29   ar
   105   114   115    1
   106   119   120   ar
   107   115   116   ar
   108   127   128   ar
   109   127   129   ar
   110    30    32   ar
   111   128   130   ar
   112   120   121    1
   113   120   118   ar
   114    29    31   ar
   115   116   118   ar
   116   129   131   ar
   117   130   131   ar
   118    32    33   ar
   119    31    33   ar
   120    11    12    2
   121    11    10    1
   122    10     9    1
   123    10    13    1
   124    44    42   ar
   125    44    43   ar
   126    42    40   ar
   127    34    35    1
   128    43    41   ar
   129    13    14    1
   130    40    39   ar
   131     1     2    1
   132     2     3    1
   133     2     5    1
   134    41    39   ar
   135    35    38    1
   136    35    36    1
   137     3     4    2
   138    39    38    1
   139    14    15    1
   140     7     6    2
   141    36    37    2
   142     5     6    1
   143     6     8   am
   144    15    16    1
   145    16    17    2
   146    17    18    1
   147    17    19    1
