@<TRIPOS>MOLECULE
tmp/3ztnA00.pdb
 90 86 0 0 0
SMALL
GASTEIGER

@<TRIPOS>ATOM
      1  N         -4.4960   24.5670   84.4080 N.3    54  LYS54      -0.1245
      2  CA        -4.2020   25.4540   85.5260 C.3    54  LYS54       0.1561
      3  C         -4.7260   24.9570   86.8940 C.2    54  LYS54       0.2260
      4  O         -4.0920   25.1750   87.9220 O.2    54  LYS54      -0.2867
      5  CB        -4.6820   26.8780   85.2110 C.3    54  LYS54       0.0271
      6  CG        -4.3960   27.8990   86.2790 C.3    54  LYS54       0.0035
      7  CD        -2.9350   28.0840   86.5480 C.3    54  LYS54       0.0206
      8  CE        -2.6590   29.3720   87.2730 C.3    54  LYS54       0.1093
      9  NZ        -1.9110   29.0540   88.4770 N.3    54  LYS54      -0.1314
     10  N        -13.5520   25.6060   91.0120 N.3    64  ASN64      -0.1226
     11  CA       -12.7890   26.8130   91.2360 C.3    64  ASN64       0.1770
     12  C        -12.9880   27.7360   90.0510 C.2    64  ASN64       0.2439
     13  O        -12.7930   27.3270   88.9180 O.2    64  ASN64      -0.2733
     14  CB       -11.3110   26.4750   91.4320 C.3    64  ASN64       0.1168
     15  CG       -10.5910   27.4970   92.2790 C.2    64  ASN64       0.2627
     16  OD1       -9.9570   28.4230   91.7680 O.2    64  ASN64      -0.2716
     17  ND2      -10.6970   27.3440   93.5900 N.am   64  ASN64      -0.0877
     18  N        -13.4000   28.9830   90.3080 N.am   65  PRO65      -0.2718
     19  CA       -13.6620   29.9860   89.2680 C.3    65  PRO65       0.1535
     20  C        -12.7030   29.9060   88.0860 C.2    65  PRO65       0.2598
     21  O        -13.1300   30.1680   86.9690 O.2    65  PRO65      -0.2715
     22  CB       -13.4530   31.3020   90.0100 C.3    65  PRO65       0.0310
     23  CG       -13.8840   30.9950   91.4120 C.3    65  PRO65       0.0237
     24  CD       -13.6280   29.5240   91.6590 C.3    65  PRO65       0.0939
     25  N        -11.4400   29.5530   88.3210 N.am   66  GLU66      -0.1978
     26  CA       -10.4400   29.5430   87.2510 C.3    66  GLU66       0.1602
     27  C        -10.5050   28.2800   86.3860 C.2    66  GLU66       0.2287
     28  O        -10.2250   28.3320   85.1880 O.2    66  GLU66      -0.2864
     29  CB        -9.0260   29.7380   87.8140 C.3    66  GLU66       0.0415
     30  CG        -8.8350   30.9890   88.6850 C.3    66  GLU66       0.1163
     31  CD        -8.7480   32.2920   87.8890 C.2    66  GLU66       0.3649
     32  OE1       -9.0640   32.2720   86.6800 O.co2  66  GLU66      -0.2457
     33  OE2       -8.3650   33.3400   88.4740 O.co2  66  GLU66      -0.2457
     34  N          2.2960   22.9450   87.6270 N.3    84  SER84      -0.1217
     35  CA         1.7930   24.2970   87.8350 C.3    84  SER84       0.1889
     36  C          0.3730   24.3030   88.4140 C.2    84  SER84       0.2288
     37  O         -0.0400   25.2780   89.0430 O.2    84  SER84      -0.2866
     38  CB         1.8120   25.0550   86.5080 C.3    84  SER84       0.2089
     39  OG         2.9070   24.6330   85.7090 O.3    84  SER84      -0.2183
     40  N         -1.8290   24.6190   90.5660 N.3    86  ASP86      -0.1225
     41  CA        -1.8720   25.0410   91.9650 C.3    86  ASP86       0.1805
     42  C         -3.2660   25.5400   92.3200 C.2    86  ASP86       0.2597
     43  O         -3.5910   25.7500   93.4840 O.2    86  ASP86      -0.2718
     44  CB        -0.8370   26.1410   92.2250 C.3    86  ASP86       0.1424
     45  CG         0.5430   25.6640   92.5150 C.2    86  ASP86       0.3668
     46  OD1        0.7810   24.4810   92.6340 O.co2  86  ASP86      -0.2456
     47  OD2        1.4230   26.6020   92.6830 O.co2  86  ASP86      -0.2456
     48  N         -4.0890   25.7150   91.2980 N.am   87  ASN87      -0.1974
     49  CA        -5.4220   26.2650   91.4550 C.3    87  ASN87       0.1688
     50  C         -6.4220   25.3070   92.0570 C.2    87  ASN87       0.2292
     51  O         -7.2450   24.7400   91.3480 O.2    87  ASN87      -0.2864
     52  CB        -5.9440   26.6800   90.0980 C.3    87  ASN87       0.1181
     53  CG        -6.2930   28.1160   90.0510 C.2    87  ASN87       0.2629
     54  OD1       -6.0320   28.7880   89.0630 O.2    87  ASN87      -0.2716
     55  ND2       -6.8720   28.6180   91.1330 N.am   87  ASN87      -0.0877
     56  N         -9.5460   27.3790   96.7220 N.3    90  CYS90      -0.1235
     57  CA        -9.1940   28.7900   96.8700 C.3    90  CYS90       0.1677
     58  C         -9.3240   29.3070   98.3220 C.2    90  CYS90       0.2270
     59  O         -8.4410   30.0160   98.8110 O.2    90  CYS90      -0.2867
     60  CB        -9.9930   29.6500   95.8740 C.3    90  CYS90       0.0956
     61  SG       -11.7620   29.9270   96.2520 S.3    90  CYS90      -0.0801
     62  N        -11.0020   35.3930   98.5740 N.3   135  ALA135     -0.1231
     63  CA       -10.0440   34.3150   98.4070 C.3   135  ALA135      0.1694
     64  C        -10.2520   33.6470   97.0460 C.2   135  ALA135      0.2592
     65  O         -9.3090   33.1100   96.4510 O.2   135  ALA135     -0.2718
     66  CB       -10.1840   33.3020   99.5290 C.3   135  ALA135      0.0304
     67  N        -11.4870   33.7060   96.5530 N.am  136  CYS136     -0.1957
     68  CA       -11.8830   32.9740   95.3490 C.3   136  CYS136      0.1828
     69  C        -12.3670   33.9140   94.2290 C.2   136  CYS136      0.2467
     70  O        -13.4900   33.7870   93.7460 O.2   136  CYS136     -0.2730
     71  CB       -12.9620   31.9290   95.7030 C.3   136  CYS136      0.0996
     72  SG       -12.9370   30.4490   94.6790 S.3   136  CYS136     -0.0798
     73  N        -11.5030   34.8450   93.7970 N.am  137  PRO137     -0.2726
     74  CA       -11.9250   35.9340   92.9180 C.3   137  PRO137      0.1402
     75  C        -12.0640   35.5050   91.4820 C.2   137  PRO137      0.2269
     76  O        -11.3260   34.6540   91.0020 O.2   137  PRO137     -0.2865
     77  CB       -10.7740   36.9390   93.0380 C.3   137  PRO137      0.0296
     78  CG        -9.5950   36.1030   93.2580 C.3   137  PRO137      0.0237
     79  CD       -10.0560   34.8970   94.0550 C.3   137  PRO137      0.0939
     80  N         -4.6120   33.4000  102.1530 N.3   221  ARG221     -0.1245
     81  CA        -5.3510   34.1500  101.1400 C.3   221  ARG221      0.1563
     82  C         -6.2030   35.2430  101.8200 C.2   221  ARG221      0.2260
     83  O         -7.3460   35.5050  101.4310 O.2   221  ARG221     -0.2867
     84  CB        -6.1700   33.2180  100.2380 C.3   221  ARG221      0.0307
     85  CG        -5.2710   32.2920   99.4680 C.3   221  ARG221      0.0489
     86  CD        -5.8760   31.7150   98.2170 C.3   221  ARG221      0.2205
     87  NE        -6.6140   32.6290   97.3170 N.pl3 221  ARG221     -0.0865
     88  CZ        -6.1800   32.9730   96.1030 C.cat 221  ARG221      0.5346
     89  NH1       -4.9380   32.6030   95.6750 N.pl3 221  ARG221      0.1354
     90  NH2       -6.9890   33.7390   95.3210 N.pl3 221  ARG221      0.1354
@<TRIPOS>BOND
     1     1     2    1
     2    28    27    2
     3     5     2    1
     4     5     6    1
     5     2     3    1
     6    39    38    1
     7     6     7    1
     8    27    26    1
     9    38    35    1
    10     7     8    1
    11    32    31   ar
    12     3     4    2
    13    21    20    2
    14    26    29    1
    15    26    25    1
    16     8     9    1
    17    34    35    1
    18    29    30    1
    19    35    36    1
    20    31    33   ar
    21    31    30    1
    22    20    25   am
    23    20    19    1
    24    36    37    2
    25    13    12    2
    26    54    53    2
    27    19    22    1
    28    19    18    1
    29    22    23    1
    30    12    18   am
    31    12    11    1
    32    53    52    1
    33    53    55   am
    34    52    49    1
    35    18    24    1
    36    40    41    1
    37    76    75    2
    38    10    11    1
    39    11    14    1
    40    48    49    1
    41    48    42   am
    42    51    50    2
    43    23    24    1
    44    14    15    1
    45    49    50    1
    46    75    74    1
    47    16    15    2
    48    41    44    1
    49    41    42    1
    50    44    45    1
    51    15    17   am
    52    42    43    2
    53    45    46   ar
    54    45    47   ar
    55    74    77    1
    56    74    73    1
    57    77    78    1
    58    78    79    1
    59    70    69    2
    60    73    79    1
    61    73    69   am
    62    69    68    1
    63    72    71    1
    64    72    61    1
    65    90    88    1
    66    68    71    1
    67    68    67    1
    68    89    88    1
    69    60    61    1
    70    60    57    1
    71    88    87    2
    72    65    64    2
    73    67    64   am
    74    56    57    1
    75    57    58    1
    76    64    63    1
    77    87    86    1
    78    86    85    1
    79    58    59    2
    80    63    62    1
    81    63    66    1
    82    85    84    1
    83    84    81    1
    84    81    82    1
    85    81    80    1
    86    83    82    2
