@<TRIPOS>MOLECULE
tmp/3ztnC00.pdb
 96 93 0 0 0
SMALL
GASTEIGER

@<TRIPOS>ATOM
      1  N          2.8670    5.6610   44.3870 N.3    19  ARG19      -0.1245
      2  CA         3.0770    5.2790   45.7790 C.3    19  ARG19       0.1563
      3  C          1.8010    4.7560   46.4270 C.2    19  ARG19       0.2260
      4  O          0.8310    5.4840   46.6480 O.2    19  ARG19      -0.2867
      5  CB         3.6790    6.4220   46.5950 C.3    19  ARG19       0.0307
      6  CG         3.4570    6.2970   48.0840 C.3    19  ARG19       0.0489
      7  CD         4.0750    7.4580   48.8210 C.3    19  ARG19       0.2205
      8  NE         5.4960    7.2130   49.0670 N.pl3  19  ARG19      -0.0865
      9  CZ         6.0010    6.8210   50.2380 C.cat  19  ARG19       0.5346
     10  NH1        5.2050    6.6310   51.2900 N.pl3  19  ARG19       0.1354
     11  NH2        7.3060    6.6260   50.3660 N.pl3  19  ARG19       0.1354
     12  N          3.7810   -3.7810   64.1550 N.3    30  SER30      -0.1217
     13  CA         5.2310   -3.6520   64.3220 C.3    30  SER30       0.1889
     14  C          5.9750   -4.9430   64.6510 C.2    30  SER30       0.2288
     15  O          7.1540   -4.8910   65.0020 O.2    30  SER30      -0.2866
     16  CB         5.5450   -2.6020   65.3950 C.3    30  SER30       0.2089
     17  OG         5.1320   -3.0230   66.6900 O.3    30  SER30      -0.2183
     18  N          9.8420   -6.9140   59.8350 N.3    53  TYR53      -0.1227
     19  CA         9.1700   -6.0900   60.8490 C.3    53  TYR53       0.1736
     20  C          9.9240   -4.8090   61.3240 C.2    53  TYR53       0.2595
     21  O          9.3430   -3.7340   61.3920 O.2    53  TYR53      -0.2718
     22  CB         8.7410   -6.9540   62.0310 C.3    53  TYR53       0.0548
     23  CG         9.8750   -7.3560   62.9420 C.ar   53  TYR53      -0.0200
     24  CD1       10.3450   -6.4930   63.9160 C.ar   53  TYR53      -0.0009
     25  CD2       10.4710   -8.6080   62.8410 C.ar   53  TYR53      -0.0009
     26  CE1       11.3690   -6.8620   64.7670 C.ar   53  TYR53       0.0417
     27  CE2       11.5090   -8.9820   63.6960 C.ar   53  TYR53       0.0417
     28  CZ        11.9460   -8.1010   64.6530 C.ar   53  TYR53       0.1957
     29  OH        12.9630   -8.4450   65.5060 O.3    53  TYR53      -0.2866
     30  N         11.2050   -4.9360   61.6540 N.am   54  ASP54      -0.1960
     31  CA        12.0740   -3.8070   62.0220 C.3    54  ASP54       0.1840
     32  C         12.4140   -2.8870   60.8400 C.2    54  ASP54       0.2621
     33  O         12.8680   -1.7540   61.0210 O.2    54  ASP54      -0.2715
     34  CB        13.3800   -4.3330   62.6450 C.3    54  ASP54       0.1450
     35  CG        13.9230   -5.5830   61.9310 C.2    54  ASP54       0.3671
     36  OD1       13.6280   -5.7650   60.7280 O.co2  54  ASP54      -0.2456
     37  OD2       14.6430   -6.3880   62.5690 O.co2  54  ASP54      -0.2456
     38  N         12.2280   -3.4060   59.6320 N.am   55  ALA55      -0.1977
     39  CA        12.3760   -2.6430   58.4050 C.3    55  ALA55       0.1597
     40  C         13.8000   -2.5580   57.8970 C.2    55  ALA55       0.2287
     41  O         14.0880   -1.7730   56.9860 O.2    55  ALA55      -0.2864
     42  CB        11.7860   -1.2710   58.5560 C.3    55  ALA55       0.0319
     43  N          7.8440    1.0350   55.4220 N.3    72  ARG72      -0.1231
     44  CA         6.7680    1.0940   56.4090 C.3    72  ARG72       0.1694
     45  C          6.9250    2.2260   57.3950 C.2    72  ARG72       0.2592
     46  O          7.9380    2.9180   57.4200 O.2    72  ARG72      -0.2718
     47  CB         6.6570   -0.2190   57.1750 C.3    72  ARG72       0.0321
     48  CG         7.8050   -0.4660   58.1040 C.3    72  ARG72       0.0489
     49  CD         7.9390   -1.9320   58.4070 C.3    72  ARG72       0.2205
     50  NE         6.8130   -2.4460   59.1710 N.pl3  72  ARG72      -0.0865
     51  CZ         6.5200   -3.7360   59.2530 C.cat  72  ARG72       0.5346
     52  NH1        7.2750   -4.6180   58.6290 N.pl3  72  ARG72       0.1354
     53  NH2        5.4810   -4.1470   59.9460 N.pl3  72  ARG72       0.1354
     54  N          5.8880    2.4090   58.1970 N.am   73  ASP73      -0.1960
     55  CA         5.9250    3.3220   59.3230 C.3    73  ASP73       0.1840
     56  C          5.0860    2.6990   60.4100 C.2    73  ASP73       0.2622
     57  O          3.8610    2.7050   60.3260 O.2    73  ASP73      -0.2715
     58  CB         5.3410    4.6770   58.9480 C.3    73  ASP73       0.1450
     59  CG         5.5080    5.6980   60.0510 C.2    73  ASP73       0.3671
     60  OD1        5.5620    5.2760   61.2310 O.co2  73  ASP73      -0.2456
     61  OD2        5.5960    6.9110   59.7380 O.co2  73  ASP73      -0.2456
     62  N          5.7370    2.1360   61.4190 N.am   74  ASN74      -0.1958
     63  CA         5.0110    1.4630   62.4830 C.3    74  ASN74       0.1819
     64  C          4.2400    2.4600   63.3360 C.2    74  ASN74       0.2622
     65  O          3.1900    2.1420   63.8950 O.2    74  ASN74      -0.2715
     66  CB         5.9630    0.6300   63.3270 C.3    74  ASN74       0.1195
     67  CG         6.5630   -0.5060   62.5460 C.2    74  ASN74       0.2630
     68  OD1        6.1040   -0.8350   61.4550 O.2    74  ASN74      -0.2716
     69  ND2        7.5850   -1.1230   63.1020 N.am   74  ASN74      -0.0877
     70  N          4.7710    3.6750   63.4000 N.am   75  SER75      -0.1936
     71  CA         4.1240    4.7800   64.0770 C.3    75  SER75       0.2055
     72  C          2.7010    4.9980   63.5780 C.2    75  SER75       0.2642
     73  O          1.7940    5.2560   64.3720 O.2    75  SER75      -0.2714
     74  CB         4.9390    6.0460   63.8670 C.3    75  SER75       0.2130
     75  OG         4.1350    7.1960   64.0380 O.3    75  SER75      -0.2179
     76  N          2.5140    4.9040   62.2620 N.am   76  LYS76      -0.1977
     77  CA         1.2000    5.0830   61.6380 C.3    76  LYS76       0.1596
     78  C          0.5340    3.7500   61.2900 C.2    76  LYS76       0.2287
     79  O         -0.6080    3.7270   60.8440 O.2    76  LYS76      -0.2864
     80  CB         1.3180    5.9260   60.3650 C.3    76  LYS76       0.0298
     81  CG         1.7180    7.3730   60.5660 C.3    76  LYS76       0.0038
     82  CD         2.5720    7.8580   59.4100 C.3    76  LYS76       0.0206
     83  CE         2.3370    9.3330   59.1050 C.3    76  LYS76       0.1093
     84  NZ         1.0460    9.6050   58.3840 N.3    76  LYS76      -0.1314
     85  N          4.0200    0.9040   52.6610 N.3    80  TYR80      -0.1241
     86  CA         4.0410    1.5600   51.3630 C.3    80  TYR80       0.1605
     87  C          4.7200    0.7490   50.2780 C.2    80  TYR80       0.2264
     88  O          5.6260   -0.0420   50.5350 O.2    80  TYR80      -0.2867
     89  CB         4.7080    2.9210   51.4500 C.3    80  TYR80       0.0534
     90  CG         4.2700    3.7500   52.6180 C.ar   80  TYR80      -0.0201
     91  CD1        3.0320    4.3700   52.6370 C.ar   80  TYR80      -0.0009
     92  CD2        5.1090    3.9330   53.6970 C.ar   80  TYR80      -0.0009
     93  CE1        2.6380    5.1380   53.7210 C.ar   80  TYR80       0.0417
     94  CE2        4.7310    4.6970   54.7770 C.ar   80  TYR80       0.0417
     95  CZ         3.4980    5.2980   54.7910 C.ar   80  TYR80       0.1957
     96  OH         3.1520    6.0570   55.8860 O.3    80  TYR80      -0.2866
@<TRIPOS>BOND
     1     1     2    1
     2     2     3    1
     3     2     5    1
     4     3     4    2
     5     5     6    1
     6     6     7    1
     7     7     8    1
     8     8     9    2
     9     9    11    1
    10     9    10    1
    11    87    88    2
    12    87    86    1
    13    86    89    1
    14    86    85    1
    15    89    90    1
    16    90    91   ar
    17    90    92   ar
    18    91    93   ar
    19    92    94   ar
    20    93    95   ar
    21    94    95   ar
    22    95    96    1
    23    43    44    1
    24    44    47    1
    25    44    45    1
    26    41    40    2
    27    47    48    1
    28    45    46    2
    29    45    54   am
    30    40    39    1
    31    48    49    1
    32    54    55    1
    33    84    83    1
    34    39    42    1
    35    39    38    1
    36    49    50    1
    37    52    51    1
    38    58    55    1
    39    58    59    1
    40    83    82    1
    41    50    51    2
    42    51    53    1
    43    55    56    1
    44    82    81    1
    45    38    32   am
    46    61    59   ar
    47    18    19    1
    48    59    60   ar
    49    57    56    2
    50    80    81    1
    51    80    77    1
    52    56    62   am
    53    36    35   ar
    54    32    33    2
    55    32    31    1
    56    79    78    2
    57    19    20    1
    58    19    22    1
    59    78    77    1
    60    20    21    2
    61    20    30   am
    62    62    63    1
    63    68    67    2
    64    77    76    1
    65    30    31    1
    66    35    37   ar
    67    35    34    1
    68    31    34    1
    69    22    23    1
    70    76    72   am
    71    63    66    1
    72    63    64    1
    73    67    69   am
    74    67    66    1
    75    25    23   ar
    76    25    27   ar
    77    23    24   ar
    78    64    70   am
    79    64    65    2
    80    70    71    1
    81    72    71    1
    82    72    73    2
    83    27    28   ar
    84    74    75    1
    85    74    71    1
    86    24    26   ar
    87    12    13    1
    88    13    14    1
    89    13    16    1
    90    14    15    2
    91    28    26   ar
    92    28    29    1
    93    16    17    1
