@<TRIPOS>MOLECULE
tmp/3ztvA00.pdb
 93 85 0 0 0
SMALL
GASTEIGER

@<TRIPOS>ATOM
      1  N         20.2130   26.1130   92.9720 N.3   366  ARG366     -0.1245
      2  CA        19.7570   26.0090   91.5860 C.3   366  ARG366      0.1563
      3  C         20.1470   27.2060   90.7300 C.2   366  ARG366      0.2260
      4  O         20.5380   27.0410   89.5720 O.2   366  ARG366     -0.2867
      5  CB        18.2470   25.7920   91.5220 C.3   366  ARG366      0.0307
      6  CG        17.8200   24.3890   91.9040 C.3   366  ARG366      0.0489
      7  CD        16.3120   24.2990   92.0230 C.3   366  ARG366      0.2205
      8  NE        15.8630   22.9340   92.2740 N.pl3 366  ARG366     -0.0865
      9  CZ        14.5880   22.5970   92.4350 C.cat 366  ARG366      0.5346
     10  NH1       13.6460   23.5270   92.3630 N.pl3 366  ARG366      0.1354
     11  NH2       14.2540   21.3330   92.6630 N.pl3 366  ARG366      0.1354
     12  N         22.1310   20.2620   81.2250 N.3   400  GLN400     -0.1231
     13  CA        21.4260   19.5660   82.3100 C.3   400  GLN400      0.1698
     14  C         20.6770   20.5930   83.1550 C.2   400  GLN400      0.2592
     15  O         21.1890   21.6830   83.4240 O.2   400  GLN400     -0.2718
     16  CB        22.4210   18.7710   83.1770 C.3   400  GLN400      0.0381
     17  CG        21.8250   18.0900   84.4190 C.3   400  GLN400      0.0905
     18  CD        20.9580   16.8750   84.0990 C.2   400  GLN400      0.2608
     19  OE1       20.7980   16.4880   82.9490 O.2   400  GLN400     -0.2717
     20  NE2       20.3960   16.2700   85.1380 N.am  400  GLN400     -0.0878
     21  N         19.4600   20.2570   83.5710 N.am  401  ASN401     -0.1974
     22  CA        18.6720   21.1380   84.4350 C.3   401  ASN401      0.1688
     23  C         19.0320   20.9500   85.9130 C.2   401  ASN401      0.2292
     24  O         19.2190   19.8230   86.3740 O.2   401  ASN401     -0.2864
     25  CB        17.1700   20.9060   84.2210 C.3   401  ASN401      0.1181
     26  CG        16.7300   19.5090   84.6210 C.2   401  ASN401      0.2629
     27  OD1       17.2490   18.5110   84.1210 O.2   401  ASN401     -0.2716
     28  ND2       15.7760   19.4360   85.5430 N.am  401  ASN401     -0.0877
     29  N         17.3760   21.0480   88.6030 N.3   403  GLY403     -0.1210
     30  CA        16.4500   20.2500   89.3880 C.3   403  GLY403      0.1956
     31  C         16.7340   18.7620   89.3100 C.2   403  GLY403      0.2612
     32  O         16.1530   17.9700   90.0560 O.2   403  GLY403     -0.2717
     33  N         17.6250   18.3750   88.4030 N.am  404  GLY404     -0.1956
     34  CA        17.9740   16.9780   88.2280 C.3   404  GLY404      0.1869
     35  C         19.0450   16.5270   89.2010 C.2   404  GLY404      0.2309
     36  O         19.4670   15.3700   89.1820 O.2   404  GLY404     -0.2863
     37  N         16.1780    9.7430   89.0020 N.3   425  PHE425     -0.1241
     38  CA        15.0510    9.9130   88.0830 C.3   425  PHE425      0.1605
     39  C         14.9910    8.9150   86.9240 C.2   425  PHE425      0.2264
     40  O         13.9590    8.7930   86.2570 O.2   425  PHE425     -0.2867
     41  CB        15.0160   11.3410   87.5420 C.3   425  PHE425      0.0534
     42  CG        14.6670   12.3700   88.5770 C.ar  425  PHE425     -0.0203
     43  CD1       13.4100   12.3850   89.1610 C.ar  425  PHE425     -0.0042
     44  CD2       15.5900   13.3270   88.9580 C.ar  425  PHE425     -0.0042
     45  CE1       13.0840   13.3390   90.1130 C.ar  425  PHE425     -0.0003
     46  CE2       15.2720   14.2830   89.9060 C.ar  425  PHE425     -0.0003
     47  CZ        14.0180   14.2870   90.4860 C.ar  425  PHE425     -0.0000
     48  N         16.7470    8.9540   84.0200 N.3   427  ASN427     -0.1240
     49  CA        16.8750    9.5180   82.6780 C.3   427  ASN427      0.1653
     50  C         17.9190    8.7920   81.8510 C.2   427  ASN427      0.2266
     51  O         18.8470    8.1940   82.3950 O.2   427  ASN427     -0.2867
     52  CB        17.2820   10.9910   82.7380 C.3   427  ASN427      0.1155
     53  CG        16.2470   11.8620   83.4040 C.2   427  ASN427      0.2627
     54  OD1       15.0420   11.6620   83.2460 O.2   427  ASN427     -0.2716
     55  ND2       16.7170   12.8500   84.1570 N.am  427  ASN427     -0.0877
     56  N          9.3220   26.2110   87.8070 N.3   455  SER455     -0.1217
     57  CA        10.2410   25.6850   88.8110 C.3   455  SER455      0.1889
     58  C         11.6800   26.1440   88.5980 C.2   455  SER455      0.2288
     59  O         12.1830   26.1330   87.4750 O.2   455  SER455     -0.2866
     60  CB        10.1840   24.1520   88.8070 C.3   455  SER455      0.2089
     61  OG        11.2630   23.5770   89.5250 O.3   455  SER455     -0.2183
     62  N         14.0930   24.5530   89.2060 N.3   457  GLY457     -0.1225
     63  CA        14.8370   23.3800   88.7780 C.3   457  GLY457      0.1811
     64  C         15.1550   23.3570   87.2920 C.2   457  GLY457      0.2280
     65  O         15.9510   22.5320   86.8390 O.2   457  GLY457     -0.2866
     66  N         19.1600   15.3580   78.9900 N.3   506  ASN506     -0.1240
     67  CA        18.4670   14.2050   79.5520 C.3   506  ASN506      0.1653
     68  C         17.0990   14.0380   78.8850 C.2   506  ASN506      0.2266
     69  O         16.5460   14.9870   78.3360 O.2   506  ASN506     -0.2867
     70  CB        18.3640   14.2720   81.0850 C.3   506  ASN506      0.1155
     71  CG        17.4630   15.3800   81.5620 C.2   506  ASN506      0.2627
     72  OD1       16.2680   15.3820   81.2800 O.2   506  ASN506     -0.2716
     73  ND2       18.0300   16.3290   82.3030 N.am  506  ASN506     -0.0877
     74  N         14.1500   13.7070   80.0140 N.3   508  TYR508     -0.1241
     75  CA        13.0740   14.4970   80.6070 C.3   508  TYR508      0.1605
     76  C         12.9330   15.8620   79.9300 C.2   508  TYR508      0.2264
     77  O         11.8840   16.1840   79.3850 O.2   508  TYR508     -0.2867
     78  CB        13.3160   14.6230   82.1190 C.3   508  TYR508      0.0534
     79  CG        12.4040   15.5510   82.9000 C.ar  508  TYR508     -0.0201
     80  CD1       11.1440   15.1400   83.3280 C.ar  508  TYR508     -0.0009
     81  CD2       12.8310   16.8240   83.2570 C.ar  508  TYR508     -0.0009
     82  CE1       10.3300   15.9930   84.0670 C.ar  508  TYR508      0.0417
     83  CE2       12.0300   17.6750   83.9880 C.ar  508  TYR508      0.0417
     84  CZ        10.7820   17.2600   84.3910 C.ar  508  TYR508      0.1957
     85  OH         9.9900   18.1190   85.1230 O.3   508  TYR508     -0.2866
     86  N          9.9330   21.0500   82.0510 N.3   514  ASP514     -0.1239
     87  CA        10.6280   22.1430   82.7330 C.3   514  ASP514      0.1674
     88  C         10.7830   23.3850   81.8500 C.2   514  ASP514      0.2266
     89  O         11.7430   24.1440   81.9900 O.2   514  ASP514     -0.2867
     90  CB        11.9930   21.6790   83.2540 C.3   514  ASP514      0.1410
     91  CG        12.0570   21.6340   84.7760 C.2   514  ASP514      0.3668
     92  OD1       10.9920   21.7530   85.4260 O.co2 514  ASP514     -0.2456
     93  OD2       13.1640   21.4760   85.3300 O.co2 514  ASP514     -0.2456
@<TRIPOS>BOND
     1    69    68    2
     2    68    67    1
     3    66    67    1
     4    77    76    2
     5    67    70    1
     6    76    75    1
     7    74    75    1
     8    75    78    1
     9    70    71    1
    10    12    13    1
    11    72    71    2
    12    71    73   am
    13    88    89    2
    14    88    87    1
    15    50    51    2
    16    50    49    1
    17    86    87    1
    18    78    79    1
    19    13    14    1
    20    13    16    1
    21    49    52    1
    22    49    48    1
    23    87    90    1
    24    52    53    1
    25    79    81   ar
    26    79    80   ar
    27    19    18    2
    28    14    15    2
    29    14    21   am
    30    16    17    1
    31    54    53    2
    32    90    91    1
    33    81    83   ar
    34    80    82   ar
    35    53    55   am
    36    21    22    1
    37    83    84   ar
    38    82    84   ar
    39    18    17    1
    40    18    20   am
    41    27    26    2
    42    25    22    1
    43    25    26    1
    44    84    85    1
    45    22    23    1
    46    26    28   am
    47    91    93   ar
    48    91    92   ar
    49    23    24    2
    50    40    39    2
    51    65    64    2
    52    39    38    1
    53    64    63    1
    54    59    58    2
    55    41    38    1
    56    41    42    1
    57    56    57    1
    58    38    37    1
    59    34    33    1
    60    34    35    1
    61    33    31   am
    62    42    44   ar
    63    42    43   ar
    64    58    57    1
    65    29    30    1
    66    63    62    1
    67    60    57    1
    68    60    61    1
    69    44    46   ar
    70    43    45   ar
    71    36    35    2
    72    31    30    1
    73    31    32    2
    74     4     3    2
    75    46    47   ar
    76    45    47   ar
    77     3     2    1
    78     5     2    1
    79     5     6    1
    80     2     1    1
    81     6     7    1
    82     7     8    1
    83     8     9    2
    84    10     9    1
    85     9    11    1
