@<TRIPOS>MOLECULE
tmp/3ztxA00.pdb
 163 154 0 0 0
SMALL
GASTEIGER

@<TRIPOS>ATOM
      1  N         16.1120    4.9660   -4.8580 N.3    11  ARG11      -0.1245
      2  CA        15.3940    3.7970   -5.3220 C.3    11  ARG11       0.1563
      3  C         14.0840    3.6730   -4.5490 C.2    11  ARG11       0.2260
      4  O         13.9870    4.1850   -3.4440 O.2    11  ARG11      -0.2867
      5  CB        16.2560    2.5360   -5.1090 C.3    11  ARG11       0.0307
      6  CG        16.5430    2.2310   -3.6360 C.3    11  ARG11       0.0489
      7  CD        17.9380    1.6660   -3.3800 C.3    11  ARG11       0.2205
      8  NE        18.1970    0.3020   -3.8600 N.pl3  11  ARG11      -0.0865
      9  CZ        17.2890   -0.6200   -4.1850 C.cat  11  ARG11       0.5346
     10  NH1       15.9760   -0.3770   -4.1000 N.pl3  11  ARG11       0.1354
     11  NH2       17.7030   -1.8160   -4.6040 N.pl3  11  ARG11       0.1354
     12  N         11.3760    2.0460   -2.0760 N.3    13  LEU13      -0.1231
     13  CA        11.4530    1.1510   -0.9160 C.3    13  LEU13       0.1693
     14  C         10.1720    0.3770   -0.6460 C.2    13  LEU13       0.2592
     15  O         10.1850   -0.6680    0.0060 O.2    13  LEU13      -0.2718
     16  CB        11.8300    1.9280    0.3500 C.3    13  LEU13       0.0284
     17  CG        13.2450    2.4570    0.4230 C.3    13  LEU13       0.0019
     18  CD1       13.4170    3.3240    1.6680 C.3    13  LEU13       0.0001
     19  CD2       14.2790    1.3360    0.3750 C.3    13  LEU13       0.0001
     20  N          9.0610    0.8990   -1.1320 N.am   14  GLY14      -0.1957
     21  CA         7.7610    0.2910   -0.8900 C.3    14  GLY14       0.1869
     22  C          6.7220    1.0740   -1.6590 C.2    14  GLY14       0.2309
     23  O          6.7630    2.3120   -1.6790 O.2    14  GLY14      -0.2863
     24  N          7.1640    5.1250   -1.0380 N.3    21  VAL21      -0.1245
     25  CA         8.3420    5.5170   -0.2370 C.3    21  VAL21       0.1561
     26  C          9.6360    5.3050   -1.0320 C.2    21  VAL21       0.2260
     27  O          9.8220    4.2470   -1.6260 O.2    21  VAL21      -0.2867
     28  CB         8.4800    4.7080    1.1080 C.3    21  VAL21       0.0252
     29  CG1        9.5620    5.3300    1.9930 C.3    21  VAL21       0.0019
     30  CG2        7.1470    4.6100    1.8880 C.3    21  VAL21       0.0019
     31  N         14.1510    8.5020    4.1670 N.3    34  ALA34      -0.1245
     32  CA        13.1690    8.0160    3.2320 C.3    34  ALA34       0.1562
     33  C         12.1960    9.1490    3.0160 C.2    34  ALA34       0.2260
     34  O         11.9820    9.9810    3.9040 O.2    34  ALA34      -0.2867
     35  CB        12.4630    6.7740    3.7850 C.3    34  ALA34       0.0290
     36  N          8.2810    9.6090    1.8730 N.3    36  LYS36      -0.1245
     37  CA         6.9890    9.1210    1.5240 C.3    36  LYS36       0.1561
     38  C          6.2880   10.1720    0.6850 C.2    36  LYS36       0.2260
     39  O          6.0930   11.2980    1.1510 O.2    36  LYS36      -0.2867
     40  CB         6.1460    8.9180    2.7800 C.3    36  LYS36       0.0271
     41  CG         4.8180    8.2370    2.4800 C.3    36  LYS36       0.0035
     42  CD         4.2070    7.6440    3.7490 C.3    36  LYS36       0.0206
     43  CE         3.7960    6.2040    3.4880 C.3    36  LYS36       0.1093
     44  NZ         3.6940    5.4160    4.7570 N.3    36  LYS36      -0.1314
     45  N          9.7020    5.4190   14.4850 N.3    68  LEU68      -0.1245
     46  CA        10.2440    5.9610   13.2320 C.3    68  LEU68       0.1561
     47  C         10.0750    7.4770   13.1890 C.2    68  LEU68       0.2260
     48  O          8.9570    8.0140   13.3190 O.2    68  LEU68      -0.2867
     49  CB         9.5510    5.2720   12.0590 C.3    68  LEU68       0.0270
     50  CG        10.3790    5.4070   10.7630 C.3    68  LEU68       0.0019
     51  CD1       11.6100    4.4840   10.7890 C.3    68  LEU68       0.0001
     52  CD2        9.4700    5.1610    9.5450 C.3    68  LEU68       0.0001
     53  N         11.0820   11.0010    6.4160 N.3    84  LEU84      -0.1231
     54  CA        11.1190    9.9910    7.4710 C.3    84  LEU84       0.1693
     55  C         12.4850    9.3140    7.6610 C.2    84  LEU84       0.2592
     56  O         13.2630    9.1130    6.7240 O.2    84  LEU84      -0.2718
     57  CB        10.1230    8.8860    7.1140 C.3    84  LEU84       0.0284
     58  CG         8.6900    9.4610    7.0040 C.3    84  LEU84       0.0019
     59  CD1        7.8570    8.4810    6.2450 C.3    84  LEU84       0.0001
     60  CD2        8.1450    9.7410    8.4030 C.3    84  LEU84       0.0001
     61  N         12.7100    8.8560    8.8820 N.am   85  GLU85      -0.1966
     62  CA        13.8390    7.9740    9.1660 C.3    85  GLU85       0.1733
     63  C         13.8500    6.7350    8.2720 C.2    85  GLU85       0.2616
     64  O         12.7980    6.1020    8.0320 O.2    85  GLU85      -0.2715
     65  CB        13.7670    7.5810   10.6570 C.3    85  GLU85       0.0429
     66  CG        14.9330    6.7470   11.1600 C.3    85  GLU85       0.1163
     67  CD        14.6830    6.2680   12.5930 C.2    85  GLU85       0.3649
     68  OE1       13.6980    6.7820   13.2280 O.co2  85  GLU85      -0.2457
     69  OE2       15.5100    5.4450   13.0820 O.co2  85  GLU85      -0.2457
     70  N         15.0350    6.4220    7.7170 N.am   86  PHE86      -0.1960
     71  CA        15.2330    5.2370    6.9370 C.3    86  PHE86       0.1771
     72  C         15.4720    4.0530    7.9160 C.2    86  PHE86       0.2619
     73  O         16.3300    4.1560    8.7600 O.2    86  PHE86      -0.2715
     74  CB        16.4540    5.4040    5.9710 C.3    86  PHE86       0.0574
     75  CG        16.7840    4.1400    5.1750 C.ar   86  PHE86      -0.0200
     76  CD1       15.7810    3.4260    4.5220 C.ar   86  PHE86      -0.0042
     77  CD2       18.0960    3.6490    5.1220 C.ar   86  PHE86      -0.0042
     78  CE1       16.0350    2.2490    3.8220 C.ar   86  PHE86      -0.0003
     79  CE2       18.3810    2.4430    4.4320 C.ar   86  PHE86      -0.0003
     80  CZ        17.3630    1.7660    3.7630 C.ar   86  PHE86      -0.0000
     81  N         14.7300    2.9690    7.7790 N.am   87  ALA87      -0.1964
     82  CA        14.9230    1.7870    8.6420 C.3    87  ALA87       0.1714
     83  C         15.6540    0.7840    7.7930 C.2    87  ALA87       0.2463
     84  O         15.0600    0.1480    6.9290 O.2    87  ALA87      -0.2730
     85  CB        13.5680    1.2530    9.1050 C.3    87  ALA87       0.0333
     86  N         16.9700    0.6590    7.9750 N.am   88  PRO88      -0.2641
     87  CA        17.7560   -0.1040    6.9670 C.3    88  PRO88       0.1762
     88  C         17.5190   -1.5940    6.9210 C.2    88  PRO88       0.2642
     89  O         17.7620   -2.2490    5.8690 O.2    88  PRO88      -0.2712
     90  CB        19.2350    0.1880    7.3540 C.2    88  PRO88      -0.0003
     91  CG        19.2090    0.9960    8.5470 C.2    88  PRO88      -0.0071
     92  CD        17.8160    1.3580    8.9530 C.3    88  PRO88       0.1204
     93  N         17.0040   -2.1790    7.9940 N.am   89  ARG89      -0.1961
     94  CA        16.6900   -3.6060    7.8480 C.3    89  ARG89       0.1729
     95  C         15.2430   -3.8860    7.4520 C.2    89  ARG89       0.2617
     96  O         14.8130   -5.0440    7.4100 O.2    89  ARG89      -0.2715
     97  CB        17.0350   -4.3740    9.1130 C.3    89  ARG89       0.0348
     98  CG        18.5250   -4.3900    9.4400 C.3    89  ARG89       0.0492
     99  CD        18.7660   -5.5400   10.4280 C.3    89  ARG89       0.2205
    100  NE        20.1210   -5.5180   10.9550 N.pl3  89  ARG89      -0.0865
    101  CZ        20.5860   -6.3730   11.8610 C.cat  89  ARG89       0.5346
    102  NH1       19.8010   -7.3310   12.3660 N.pl3  89  ARG89       0.1354
    103  NH2       21.8430   -6.2630   12.2700 N.pl3  89  ARG89       0.1354
    104  N         14.4690   -2.8470    7.1820 N.am   90  GLY90      -0.1940
    105  CA        13.1800   -3.0720    6.5070 C.3    90  GLY90       0.2014
    106  C         12.0440   -3.5640    7.3800 C.2    90  GLY90       0.2638
    107  O         12.0050   -3.2930    8.5930 O.2    90  GLY90      -0.2714
    108  N         11.1220   -4.2770    6.7420 N.am   91  GLU91      -0.1977
    109  CA         9.8260   -4.6360    7.3260 C.3    91  GLU91       0.1602
    110  C          9.9620   -5.7840    8.2940 C.2    91  GLU91       0.2287
    111  O         10.4790   -6.8300    7.9370 O.2    91  GLU91      -0.2864
    112  CB         8.8640   -5.0540    6.2320 C.3    91  GLU91       0.0415
    113  CG         8.6440   -3.9920    5.2040 C.3    91  GLU91       0.1163
    114  CD         7.4540   -3.1250    5.4990 C.2    91  GLU91       0.3649
    115  OE1        6.8470   -3.2410    6.6120 O.co2  91  GLU91      -0.2457
    116  OE2        7.1130   -2.3400    4.5880 O.co2  91  GLU91      -0.2457
    117  N          8.1290   -9.0460    7.1530 N.3    94  LYS94      -0.1245
    118  CA         8.9030   -9.8350    6.1590 C.3    94  LYS94       0.1561
    119  C          9.8980  -10.7580    6.8000 C.2    94  LYS94       0.2260
    120  O         10.0390  -11.9010    6.3810 O.2    94  LYS94      -0.2867
    121  CB         9.6750   -8.9420    5.1980 C.3    94  LYS94       0.0271
    122  CG         8.8310   -8.4220    4.0420 C.3    94  LYS94       0.0035
    123  CD         9.6810   -7.5380    3.1390 C.3    94  LYS94       0.0206
    124  CE         8.8520   -6.7180    2.1660 C.3    94  LYS94       0.1093
    125  NZ         9.7690   -5.7930    1.3890 N.3    94  LYS94      -0.1314
    126  N          3.3070   -5.8450   10.7490 N.3   134  GLU134     -0.1231
    127  CA         3.2140   -5.0810    9.5340 C.3   134  GLU134      0.1699
    128  C          3.4290   -3.5890    9.7670 C.2   134  GLU134      0.2592
    129  O          3.7490   -2.8490    8.8420 O.2   134  GLU134     -0.2718
    130  CB         1.8250   -5.2880    8.8910 C.3   134  GLU134      0.0402
    131  CG         1.7020   -6.6030    8.1540 C.3   134  GLU134      0.1161
    132  CD         1.3970   -7.7600    9.0590 C.2   134  GLU134      0.3649
    133  OE1        1.2190   -7.5770   10.2980 O.co2 134  GLU134     -0.2457
    134  OE2        1.4100   -8.8970    8.5250 O.co2 134  GLU134     -0.2457
    135  N          3.2680   -3.1460   11.0020 N.am  135  ASN135     -0.1974
    136  CA         3.4550   -1.7090   11.2780 C.3   135  ASN135      0.1688
    137  C          4.7730   -1.3760   11.9530 C.2   135  ASN135      0.2292
    138  O          4.9780   -0.2640   12.4420 O.2   135  ASN135     -0.2864
    139  CB         2.2840   -1.1870   12.0980 C.3   135  ASN135      0.1181
    140  CG         1.0170   -1.0430   11.2360 C.2   135  ASN135      0.2629
    141  OD1        1.1060   -0.9930   10.0010 O.2   135  ASN135     -0.2716
    142  ND2       -0.1390   -1.0610   11.8700 N.am  135  ASN135     -0.0877
    143  N          9.1210   -1.5240   11.7640 N.3   137  LEU137     -0.1245
    144  CA        10.3050   -1.6450   10.8750 C.3   137  LEU137      0.1561
    145  C         11.5130   -1.9590   11.7530 C.2   137  LEU137      0.2260
    146  O         11.3720   -2.0440   12.9880 O.2   137  LEU137     -0.2867
    147  CB        10.5200   -0.3510   10.0630 C.3   137  LEU137      0.0270
    148  CG         9.4300    0.0920    9.0850 C.3   137  LEU137      0.0019
    149  CD1        9.8080    1.4720    8.4280 C.3   137  LEU137      0.0001
    150  CD2        9.1480   -0.9170    8.0500 C.3   137  LEU137      0.0001
    151  N          6.1660    2.3570   13.0400 N.3   147  ALA147     -0.1231
    152  CA         6.3390    3.0490   11.7540 C.3   147  ALA147      0.1694
    153  C          5.1030    3.7090   11.1940 C.2   147  ALA147      0.2592
    154  O          5.2470    4.5970   10.3420 O.2   147  ALA147     -0.2718
    155  CB         6.8970    2.0870   10.7100 C.3   147  ALA147      0.0304
    156  N          3.9160    3.2710   11.6350 N.am  148  ASP148     -0.1974
    157  CA         2.6380    3.7170   11.0330 C.3   148  ASP148      0.1709
    158  C          1.7210    4.0800   12.1830 C.2   148  ASP148      0.2293
    159  O          1.6550    3.3220   13.1550 O.2   148  ASP148     -0.2864
    160  CB         2.0290    2.5520   10.2770 C.3   148  ASP148      0.1436
    161  CG         0.7270    2.9000    9.6180 C.2   148  ASP148      0.3671
    162  OD1       -0.3120    2.9950   10.3140 O.co2 148  ASP148     -0.2456
    163  OD2        0.7370    3.0510    8.3710 O.co2 148  ASP148     -0.2456
@<TRIPOS>BOND
     1     2     5    1
     2     2     1    1
     3     2     3    1
     4     5     6    1
     5    11     9    1
     6     3     4    2
     7     9    10    1
     8     9     8    2
     9     8     7    1
    10     6     7    1
    11    12    13    1
    12    23    22    2
    13    22    21    1
    14    27    26    2
    15    20    21    1
    16    20    14   am
    17    24    25    1
    18    26    25    1
    19    13    14    1
    20    13    16    1
    21    14    15    2
    22    25    28    1
    23    16    17    1
    24    19    17    1
    25    17    18    1
    26    38    39    2
    27    38    37    1
    28    28    30    1
    29    28    29    1
    30   125   124    1
    31    37    36    1
    32    37    40    1
    33   124   123    1
    34    41    40    1
    35    41    42    1
    36    33    32    1
    37    33    34    2
    38   123   122    1
    39    32    35    1
    40    32    31    1
    41    43    42    1
    42    43    44    1
    43    80    78   ar
    44    80    79   ar
    45    78    76   ar
    46   122   121    1
    47    79    77   ar
    48    76    75   ar
    49   116   114   ar
    50    77    75   ar
    51    75    74    1
    52   121   118    1
    53   113   114    1
    54   113   112    1
    55   114   115   ar
    56    89    88    2
    57    74    71    1
    58   118   119    1
    59   118   117    1
    60   112   109    1
    61    59    58    1
    62   120   119    2
    63    53    54    1
    64   105   104    1
    65   105   106    1
    66    56    55    2
    67   108   109    1
    68   108   106   am
    69    88    87    1
    70    88    93   am
    71    84    83    2
    72    71    70    1
    73    71    72    1
    74    87    90    1
    75    87    86    1
    76    58    57    1
    77    58    60    1
    78    57    54    1
    79   104    95   am
    80   109   110    1
    81    90    91    2
    82   106   107    2
    83    96    95    2
    84    95    94    1
    85    54    55    1
    86    55    61   am
    87    70    63   am
    88    81    72   am
    89    81    82    1
    90    83    86   am
    91    83    82    1
    92    94    93    1
    93    94    97    1
    94    72    73    2
    95   111   110    2
    96    86    92    1
    97    64    63    2
    98   150   148    1
    99   131   130    1
   100   131   132    1
   101    63    62    1
   102   163   161   ar
   103   149   148    1
   104   134   132   ar
   105    91    92    1
   106    82    85    1
   107   129   128    2
   108    61    62    1
   109   130   127    1
   110   132   133   ar
   111   148   147    1
   112    97    98    1
   113    62    65    1
   114    98    99    1
   115   127   128    1
   116   127   126    1
   117    52    50    1
   118   161   160    1
   119   161   162   ar
   120   128   135   am
   121   141   140    2
   122   147   144    1
   123   160   157    1
   124   154   153    2
   125    99   100    1
   126    65    66    1
   127   155   152    1
   128    50    51    1
   129    50    49    1
   130   144   145    1
   131   144   143    1
   132   100   101    2
   133   135   136    1
   134   157   156    1
   135   157   158    1
   136    66    67    1
   137   153   156   am
   138   153   152    1
   139   140   142   am
   140   140   139    1
   141   136   137    1
   142   136   139    1
   143   145   146    2
   144   152   151    1
   145   101   103    1
   146   101   102    1
   147   137   138    2
   148    49    46    1
   149   158   159    2
   150    67    69   ar
   151    67    68   ar
   152    47    46    1
   153    47    48    2
   154    46    45    1
