@<TRIPOS>MOLECULE
tmp/3zu0B00.pdb
 85 79 0 0 0
SMALL
GASTEIGER

@<TRIPOS>ATOM
      1  N        -36.6970   36.9350   27.8130 N.3   371  GLN371     -0.1231
      2  CA       -37.3460   36.8260   29.1110 C.3   371  GLN371      0.1698
      3  C        -37.5120   35.3440   29.4670 C.2   371  GLN371      0.2592
      4  O        -37.9520   34.5460   28.6380 O.2   371  GLN371     -0.2718
      5  CB       -38.7030   37.5420   29.0860 C.3   371  GLN371      0.0381
      6  CG       -39.5510   37.3250   30.3390 C.3   371  GLN371      0.0905
      7  CD       -39.0700   38.1330   31.5400 C.2   371  GLN371      0.2608
      8  OE1      -38.4450   39.1880   31.3980 O.2   371  GLN371     -0.2717
      9  NE2      -39.3560   37.6300   32.7320 N.am  371  GLN371     -0.0878
     10  N        -37.1320   34.9820   30.6900 N.am  372  ASN372     -0.1974
     11  CA       -37.2050   33.6070   31.1610 C.3   372  ASN372      0.1688
     12  C        -38.6220   33.2000   31.5300 C.2   372  ASN372      0.2292
     13  O        -39.4260   34.0390   31.9500 O.2   372  ASN372     -0.2864
     14  CB       -36.2660   33.4020   32.3580 C.3   372  ASN372      0.1181
     15  CG       -36.6370   34.2720   33.5600 C.2   372  ASN372      0.2629
     16  OD1      -36.7940   35.4890   33.4410 O.2   372  ASN372     -0.2716
     17  ND2      -36.7850   33.6400   34.7240 N.am  372  ASN372     -0.0877
     18  N        -39.9270   31.5540   34.0430 N.3   374  GLY374     -0.1225
     19  CA       -40.2880   31.8890   35.4140 C.3   374  GLY374      0.1811
     20  C        -40.6340   33.3550   35.6230 C.2   374  GLY374      0.2280
     21  O        -39.8630   34.2490   35.2590 O.2   374  GLY374     -0.2866
     22  N        -41.9560   40.1500   40.8960 N.3   386  PHE386     -0.1241
     23  CA       -40.5420   40.1370   41.2360 C.3   386  PHE386      0.1605
     24  C        -39.9450   41.5460   41.2780 C.2   386  PHE386      0.2264
     25  O        -38.8990   41.7700   41.8880 O.2   386  PHE386     -0.2867
     26  CB       -39.7630   39.2460   40.2610 C.3   386  PHE386      0.0534
     27  CG       -39.9220   37.7680   40.5210 C.ar  386  PHE386     -0.0203
     28  CD1      -40.0930   37.2900   41.8140 C.ar  386  PHE386     -0.0042
     29  CD2      -39.8970   36.8610   39.4740 C.ar  386  PHE386     -0.0042
     30  CE1      -40.2390   35.9410   42.0610 C.ar  386  PHE386     -0.0003
     31  CE2      -40.0400   35.5020   39.7150 C.ar  386  PHE386     -0.0003
     32  CZ       -40.2090   35.0430   41.0110 C.ar  386  PHE386     -0.0000
     33  N        -38.6710   43.3060   38.7140 N.3   388  ASN388     -0.1240
     34  CA       -37.5020   43.4480   37.8580 C.3   388  ASN388      0.1653
     35  C        -37.5050   44.8160   37.1850 C.2   388  ASN388      0.2266
     36  O        -38.5620   45.4460   37.0260 O.2   388  ASN388     -0.2867
     37  CB       -37.4780   42.3670   36.7800 C.3   388  ASN388      0.1155
     38  CG       -37.3240   40.9690   37.3530 C.2   388  ASN388      0.2627
     39  OD1      -36.6580   40.7630   38.3640 O.2   388  ASN388     -0.2716
     40  ND2      -37.9290   39.9940   36.6880 N.am  388  ASN388     -0.0877
     41  N        -34.1430   23.3750   36.8240 N.3   416  SER416     -0.1202
     42  CA       -34.9500   24.5970   36.8950 C.3   416  SER416      0.2020
     43  C        -35.5110   25.0210   35.5360 C.2   416  SER416      0.2619
     44  O        -34.7920   25.5910   34.7090 O.2   416  SER416     -0.2717
     45  CB       -34.1210   25.7370   37.4960 C.3   416  SER416      0.2103
     46  OG       -34.8640   26.9440   37.5410 O.3   416  SER416     -0.2182
     47  N        -36.7970   24.7540   35.3170 N.am  417  THR417     -0.1938
     48  CA       -37.4130   25.0050   34.0220 C.3   417  THR417      0.2028
     49  C        -37.8820   26.4450   33.8800 C.2   417  THR417      0.2642
     50  O        -38.3610   26.8410   32.8190 O.2   417  THR417     -0.2714
     51  CB       -38.6180   24.0720   33.7510 C.3   417  THR417      0.1808
     52  OG1      -39.6440   24.3130   34.7250 O.3   417  THR417     -0.2208
     53  CG2      -38.1930   22.5990   33.7920 C.3   417  THR417      0.0379
     54  N        -37.7550   27.2270   34.9430 N.am  418  GLY418     -0.1954
     55  CA       -38.0880   28.6390   34.8640 C.3   418  GLY418      0.1869
     56  C        -37.1400   29.3880   33.9390 C.2   418  GLY418      0.2309
     57  O        -37.3660   30.5470   33.5970 O.2   418  GLY418     -0.2863
     58  N        -34.5200   41.1390   31.8670 N.3   456  ASN456     -0.1240
     59  CA       -34.8120   41.5840   33.2250 C.3   456  ASN456      0.1653
     60  C        -33.5300   41.5700   34.0570 C.2   456  ASN456      0.2266
     61  O        -32.5710   40.8800   33.7060 O.2   456  ASN456     -0.2867
     62  CB       -35.9200   40.7470   33.8760 C.3   456  ASN456      0.1155
     63  CG       -35.5090   39.2980   34.0900 C.2   456  ASN456      0.2627
     64  OD1      -34.5960   39.0120   34.8640 O.2   456  ASN456     -0.2716
     65  ND2      -36.1850   38.3780   33.4050 N.am  456  ASN456     -0.0877
     66  N        -32.7440   40.3460   36.9150 N.3   458  TYR458     -0.1241
     67  CA       -32.4500   39.0590   37.5330 C.3   458  TYR458      0.1605
     68  C        -31.5980   38.1940   36.6180 C.2   458  TYR458      0.2264
     69  O        -30.5400   37.6940   37.0070 O.2   458  TYR458     -0.2867
     70  CB       -33.7710   38.3610   37.8530 C.3   458  TYR458      0.0534
     71  CG       -33.6700   36.9170   38.2900 C.ar  458  TYR458     -0.0201
     72  CD1      -33.3090   36.5840   39.5900 C.ar  458  TYR458     -0.0009
     73  CD2      -33.9910   35.8870   37.4150 C.ar  458  TYR458     -0.0009
     74  CE1      -33.2320   35.2530   39.9970 C.ar  458  TYR458      0.0417
     75  CE2      -33.9250   34.5620   37.8120 C.ar  458  TYR458      0.0417
     76  CZ       -33.5480   34.2500   39.1030 C.ar  458  TYR458      0.1957
     77  OH       -33.4830   32.9330   39.4920 O.3   458  TYR458     -0.2866
     78  N        -30.8440   31.6530   36.7150 N.3   464  ASP464     -0.1239
     79  CA       -31.6280   30.7430   35.8860 C.3   464  ASP464      0.1674
     80  C        -30.7180   30.1110   34.8430 C.2   464  ASP464      0.2266
     81  O        -31.1640   29.6740   33.7910 O.2   464  ASP464     -0.2867
     82  CB       -32.8070   31.4600   35.2290 C.3   464  ASP464      0.1410
     83  CG       -34.1230   31.0940   35.8580 C.2   464  ASP464      0.3668
     84  OD1      -34.0960   30.5340   36.9690 O.co2 464  ASP464     -0.2456
     85  OD2      -35.1800   31.3610   35.2510 O.co2 464  ASP464     -0.2456
@<TRIPOS>BOND
     1     1     2    1
     2     4     3    2
     3     5     2    1
     4     5     6    1
     5     2     3    1
     6     3    10   am
     7     6     7    1
     8    10    11    1
     9    11    12    1
    10    11    14    1
    11     8     7    2
    12    12    13    2
    13     7     9   am
    14    58    59    1
    15    14    15    1
    16    50    49    2
    17    59    62    1
    18    59    60    1
    19    65    63   am
    20    16    15    2
    21    15    17   am
    22    57    56    2
    23    61    60    2
    24    51    53    1
    25    51    48    1
    26    51    52    1
    27    81    80    2
    28    62    63    1
    29    49    48    1
    30    49    54   am
    31    56    55    1
    32    48    47    1
    33    18    19    1
    34    63    64    2
    35    44    43    2
    36    80    79    1
    37    55    54    1
    38    82    83    1
    39    82    79    1
    40    85    83   ar
    41    21    20    2
    42    47    43   am
    43    19    20    1
    44    43    42    1
    45    83    84   ar
    46    79    78    1
    47    68    69    2
    48    68    67    1
    49    40    38   am
    50    37    38    1
    51    37    34    1
    52    41    42    1
    53    42    45    1
    54    66    67    1
    55    36    35    2
    56    35    34    1
    57    38    39    2
    58    73    75   ar
    59    73    71   ar
    60    45    46    1
    61    67    70    1
    62    75    76   ar
    63    70    71    1
    64    34    33    1
    65    71    72   ar
    66    76    77    1
    67    76    74   ar
    68    29    31   ar
    69    29    27   ar
    70    72    74   ar
    71    31    32   ar
    72    26    27    1
    73    26    23    1
    74    27    28   ar
    75    22    23    1
    76    32    30   ar
    77    23    24    1
    78    24    25    2
    79    28    30   ar
