@<TRIPOS>MOLECULE
tmp/3zu0A00.pdb
 206 192 0 0 0
SMALL
GASTEIGER

@<TRIPOS>ATOM
      1  N          2.9390   86.5730   13.9230 N.3    15  HIS15      -0.1241
      2  CA         4.0600   85.6480   13.8820 C.3    15  HIS15       0.1621
      3  C          5.4420   86.3420   13.8550 C.2    15  HIS15       0.2264
      4  O          6.3010   85.9550   13.0750 O.2    15  HIS15      -0.2867
      5  CB         3.9400   84.7320   12.6600 C.3    15  HIS15       0.0745
      6  CG         2.9770   83.6000   12.8370 C.ar   15  HIS15       0.0817
      7  ND1        3.2970   82.4510   13.5290 N.ar   15  HIS15      -0.2268
      8  CD2        1.7010   83.4410   12.4140 C.ar   15  HIS15       0.1154
      9  CE1        2.2580   81.6350   13.5300 C.ar   15  HIS15       0.1986
     10  NE2        1.2830   82.2060   12.8480 N.ar   15  HIS15      -0.2212
     11  N          6.7200   83.5440   17.0160 N.3    66  THR66      -0.1203
     12  CA         7.3510   82.5070   16.2030 C.3    66  THR66       0.1994
     13  C          7.1240   82.7470   14.7330 C.2    66  THR66       0.2618
     14  O          6.0160   83.0950   14.3120 O.2    66  THR66      -0.2717
     15  CB         6.9520   81.0560   16.5740 C.3    66  THR66       0.1784
     16  OG1        5.6500   80.7640   16.0550 O.3    66  THR66      -0.2211
     17  CG2        6.9970   80.8410   18.1090 C.3    66  THR66       0.0376
     18  N          8.1720   82.5380   13.9460 N.am   67  GLY67      -0.1956
     19  CA         8.0530   82.6240   12.5030 C.3    67  GLY67       0.1869
     20  C          9.1380   83.4360   11.8380 C.2    67  GLY67       0.2309
     21  O          9.3020   83.3610   10.6160 O.2    67  GLY67      -0.2863
     22  N         -1.7720   78.5200   18.8410 N.3    95  ASN95      -0.1225
     23  CA        -1.0360   77.2710   18.9720 C.3    95  ASN95       0.1785
     24  C          0.4800   77.4930   19.0630 C.2    95  ASN95       0.2597
     25  O          1.1620   76.8370   19.8370 O.2    95  ASN95      -0.2718
     26  CB        -1.3790   76.2900   17.8420 C.3    95  ASN95       0.1169
     27  CG        -1.2880   76.9250   16.4740 C.2    95  ASN95       0.2627
     28  OD1       -1.6630   78.0740   16.2940 O.2    95  ASN95      -0.2716
     29  ND2       -0.7640   76.1810   15.5000 N.am   95  ASN95      -0.0877
     30  N          1.0070   78.4170   18.2670 N.am   96  HIS96      -0.1975
     31  CA         2.4650   78.6670   18.2610 C.3    96  HIS96       0.1656
     32  C          2.9990   79.3580   19.4990 C.2    96  HIS96       0.2291
     33  O          4.1940   79.4190   19.7100 O.2    96  HIS96      -0.2864
     34  CB         2.8960   79.3870   16.9830 C.3    96  HIS96       0.0771
     35  CG         2.7180   78.5490   15.7560 C.ar   96  HIS96       0.0820
     36  ND1        3.6600   77.6340   15.3390 N.ar   96  HIS96      -0.2267
     37  CD2        1.6770   78.4350   14.8970 C.ar   96  HIS96       0.1154
     38  CE1        3.2170   77.0080   14.2610 C.ar   96  HIS96       0.1986
     39  NE2        2.0210   77.4810   13.9680 N.ar   96  HIS96      -0.2212
     40  N          5.2230   76.8350   21.2270 N.3    99  ASP99      -0.1239
     41  CA         6.2680   76.2050   20.4250 C.3    99  ASP99       0.1674
     42  C          7.5850   76.0440   21.1840 C.2    99  ASP99       0.2266
     43  O          8.3830   75.1640   20.8750 O.2    99  ASP99      -0.2867
     44  CB         6.5200   77.0180   19.1560 C.3    99  ASP99       0.1410
     45  CG         5.6030   76.6180   18.0210 C.2    99  ASP99       0.3668
     46  OD1        4.6370   75.8590   18.2760 O.co2  99  ASP99      -0.2456
     47  OD2        5.8290   77.0640   16.8740 O.co2  99  ASP99      -0.2456
     48  N         -3.9240   70.9020   17.1480 N.3   156  LYS156     -0.1245
     49  CA        -2.6580   71.3910   16.5820 C.3   156  LYS156      0.1561
     50  C         -1.6880   71.8110   17.6710 C.2   156  LYS156      0.2260
     51  O         -0.4860   71.6720   17.5150 O.2   156  LYS156     -0.2867
     52  CB        -2.8840   72.5620   15.6180 C.3   156  LYS156      0.0271
     53  CG        -3.4380   72.1480   14.2610 C.3   156  LYS156      0.0035
     54  CD        -3.9120   73.3550   13.4470 C.3   156  LYS156      0.0206
     55  CE        -2.7650   74.2100   12.9920 C.3   156  LYS156      0.1093
     56  NZ        -3.2810   75.2600   12.0560 N.3   156  LYS156     -0.1314
     57  N          1.3010   69.2020   17.8450 N.3   160  SER160     -0.1202
     58  CA         2.4090   69.7460   17.0690 C.3   160  SER160      0.2020
     59  C          3.1370   70.9420   17.6870 C.2   160  SER160      0.2619
     60  O          4.1420   71.4010   17.1370 O.2   160  SER160     -0.2717
     61  CB         1.9500   70.0730   15.6460 C.3   160  SER160      0.2103
     62  OG         1.6420   68.8710   14.9440 O.3   160  SER160     -0.2182
     63  N          2.6390   71.4530   18.8070 N.am  161  SER161     -0.1937
     64  CA         3.3760   72.4560   19.5860 C.3   161  SER161      0.2055
     65  C          3.8500   71.7620   20.8610 C.2   161  SER161      0.2643
     66  O          3.6960   70.5520   20.9810 O.2   161  SER161     -0.2714
     67  CB         2.4900   73.6690   19.9040 C.3   161  SER161      0.2130
     68  OG         3.2420   74.7860   20.3780 O.3   161  SER161     -0.2179
     69  N          4.4110   72.5010   21.8110 N.am  162  SER162     -0.1949
     70  CA         4.9810   71.8930   23.0190 C.3   162  SER162      0.1924
     71  C          4.4670   72.4390   24.3610 C.2   162  SER162      0.2314
     72  O          5.2630   72.8140   25.2230 O.2   162  SER162     -0.2863
     73  CB         6.5180   72.0290   23.0030 C.3   162  SER162      0.2116
     74  OG         7.0520   71.3910   21.8660 O.3   162  SER162     -0.2180
     75  N         -5.1630   82.1840    8.9720 N.3   221  HIS221     -0.1241
     76  CA        -4.4230   83.1030    8.1120 C.3   221  HIS221      0.1621
     77  C         -5.2060   83.5260    6.8610 C.2   221  HIS221      0.2264
     78  O         -4.6010   83.9670    5.8820 O.2   221  HIS221     -0.2867
     79  CB        -3.0720   82.5070    7.6780 C.3   221  HIS221      0.0745
     80  CG        -2.1090   82.2610    8.8040 C.ar  221  HIS221      0.0817
     81  ND1       -0.7570   82.0800    8.5940 N.ar  221  HIS221     -0.2268
     82  CD2       -2.2980   82.1440   10.1400 C.ar  221  HIS221      0.1154
     83  CE1       -0.1560   81.8650    9.7510 C.ar  221  HIS221      0.1986
     84  NE2       -1.0690   81.9010   10.7070 N.ar  221  HIS221     -0.2212
     85  N          0.5670   87.9630    9.3500 N.3   260  TYR260     -0.1241
     86  CA         1.8880   88.6010    9.1750 C.3   260  TYR260      0.1605
     87  C          1.8330   90.1350    9.1840 C.2   260  TYR260      0.2264
     88  O          2.4980   90.8050    8.3790 O.2   260  TYR260     -0.2867
     89  CB         2.5720   88.0830    7.9120 C.3   260  TYR260      0.0534
     90  CG         2.6590   86.5690    7.8210 C.ar  260  TYR260     -0.0201
     91  CD1        2.7980   85.7860    8.9630 C.ar  260  TYR260     -0.0009
     92  CD2        2.5690   85.9210    6.5950 C.ar  260  TYR260     -0.0009
     93  CE1        2.8550   84.3970    8.8870 C.ar  260  TYR260      0.0417
     94  CE2        2.6220   84.5320    6.5080 C.ar  260  TYR260      0.0417
     95  CZ         2.7680   83.7810    7.6620 C.ar  260  TYR260      0.1957
     96  OH         2.8290   82.4060    7.5900 O.3   260  TYR260     -0.2866
     97  N          8.4340   74.9660    3.5200 N.3   363  SER363     -0.1217
     98  CA         7.1070   74.3720    3.4340 C.3   363  SER363      0.1889
     99  C          6.7900   73.7150    2.1050 C.2   363  SER363      0.2288
    100  O          6.2710   72.6100    2.0690 O.2   363  SER363     -0.2866
    101  CB         6.0320   75.4200    3.7460 C.3   363  SER363      0.2089
    102  OG         6.1940   75.8980    5.0680 O.3   363  SER363     -0.2183
    103  N          8.2980   70.0900    1.5320 N.3   366  ARG366     -0.1245
    104  CA         8.2260   69.0940    2.5940 C.3   366  ARG366      0.1563
    105  C          8.0100   67.6730    2.0760 C.2   366  ARG366      0.2260
    106  O          8.6230   66.7310    2.5750 O.2   366  ARG366     -0.2867
    107  CB         7.1380   69.4600    3.5980 C.3   366  ARG366      0.0307
    108  CG         7.5410   70.6230    4.5020 C.3   366  ARG366      0.0489
    109  CD         6.3680   71.0830    5.3760 C.3   366  ARG366      0.2205
    110  NE         6.8030   72.1150    6.3110 N.pl3 366  ARG366     -0.0865
    111  CZ         6.0420   72.6400    7.2660 C.cat 366  ARG366      0.5346
    112  NH1        4.7890   72.2390    7.4080 N.pl3 366  ARG366      0.1354
    113  NH2        6.5400   73.5810    8.0700 N.pl3 366  ARG366      0.1354
    114  N         14.8990   63.3540   10.8890 N.3   400  GLN400     -0.1231
    115  CA        14.5260   64.7380   11.1390 C.3   400  GLN400      0.1698
    116  C         13.2410   65.0140   10.3880 C.2   400  GLN400      0.2592
    117  O         13.0800   64.5810    9.2470 O.2   400  GLN400     -0.2718
    118  CB        15.6360   65.6940   10.6580 C.3   400  GLN400      0.0381
    119  CG        15.2810   67.1920   10.7010 C.3   400  GLN400      0.0905
    120  CD        15.3100   67.7460   12.1050 C.2   400  GLN400      0.2608
    121  OE1       15.6460   67.0380   13.0470 O.2   400  GLN400     -0.2717
    122  NE2       14.9690   69.0170   12.2560 N.am  400  GLN400     -0.0878
    123  N         12.3050   65.6960   11.0420 N.am  401  ASN401     -0.1974
    124  CA        11.0550   66.0780   10.3970 C.3   401  ASN401      0.1688
    125  C         11.2610   67.2970    9.5050 C.2   401  ASN401      0.2292
    126  O         11.9560   68.2390    9.8750 O.2   401  ASN401     -0.2864
    127  CB         9.9460   66.3270   11.4310 C.3   401  ASN401      0.1181
    128  CG        10.2680   67.4680   12.3900 C.2   401  ASN401      0.2629
    129  OD1        9.4490   68.3830   12.5810 O.2   401  ASN401     -0.2716
    130  ND2       11.4400   67.4260   12.9970 N.am  401  ASN401     -0.0877
    131  N          9.3290   69.7220    8.8260 N.3   403  GLY403     -0.1210
    132  CA         8.8710   70.9640    9.4450 C.3   403  GLY403      0.1956
    133  C          9.9280   71.5620   10.3620 C.2   403  GLY403      0.2612
    134  O          9.8500   72.7200   10.7340 O.2   403  GLY403     -0.2717
    135  N         10.9150   70.7540   10.7320 N.am  404  GLY404     -0.1956
    136  CA        11.9830   71.2080   11.5930 C.3   404  GLY404      0.1869
    137  C         13.0630   71.9930   10.8670 C.2   404  GLY404      0.2309
    138  O         14.0010   72.4830   11.4970 O.2   404  GLY404     -0.2863
    139  N         13.3980   75.1020    8.0990 N.3   406  ARG406     -0.1245
    140  CA        12.4430   76.1500    7.6730 C.3   406  ARG406      0.1563
    141  C         12.6970   76.8860    6.3500 C.2   406  ARG406      0.2260
    142  O         11.9220   77.7700    5.9910 O.2   406  ARG406     -0.2867
    143  CB        12.2680   77.1870    8.7810 C.3   406  ARG406      0.0307
    144  CG        12.0800   76.5750   10.1760 C.3   406  ARG406      0.0489
    145  CD        10.7580   75.8070   10.3130 C.3   406  ARG406      0.2205
    146  NE         9.5960   76.6650   10.0800 N.pl3 406  ARG406     -0.0865
    147  CZ         8.3320   76.2550   10.1510 C.cat 406  ARG406      0.5346
    148  NH1        8.0430   74.9900   10.4670 N.pl3 406  ARG406      0.1354
    149  NH2        7.3510   77.1110    9.9100 N.pl3 406  ARG406      0.1354
    150  N         13.9720   76.2690   16.5990 N.3   425  PHE425     -0.1241
    151  CA        13.1370   75.7470   17.6790 C.3   425  PHE425      0.1605
    152  C         13.8660   75.4860   18.9880 C.2   425  PHE425      0.2264
    153  O         13.2340   75.3140   20.0260 O.2   425  PHE425     -0.2867
    154  CB        12.4150   74.4820   17.2270 C.3   425  PHE425      0.0534
    155  CG        11.3830   74.7290   16.1670 C.ar  425  PHE425     -0.0203
    156  CD1       10.2730   75.4980   16.4400 C.ar  425  PHE425     -0.0042
    157  CD2       11.5280   74.1990   14.9040 C.ar  425  PHE425     -0.0042
    158  CE1        9.3070   75.7320   15.4680 C.ar  425  PHE425     -0.0003
    159  CE2       10.5680   74.4120   13.9330 C.ar  425  PHE425     -0.0003
    160  CZ         9.4560   75.1860   14.2120 C.ar  425  PHE425     -0.0000
    161  N         15.5870   72.8530   19.8860 N.3   427  ASN427     -0.1240
    162  CA        15.5780   71.4710   20.3400 C.3   427  ASN427      0.1653
    163  C         16.9820   71.0450   20.7040 C.2   427  ASN427      0.2266
    164  O         17.9370   71.5620   20.1620 O.2   427  ASN427     -0.2867
    165  CB        15.1250   70.5190   19.2250 C.3   427  ASN427      0.1155
    166  CG        13.7440   70.8220   18.7110 C.2   427  ASN427      0.2627
    167  OD1       13.5100   70.7860   17.4900 O.2   427  ASN427     -0.2716
    168  ND2       12.8170   71.1280   19.6260 N.am  427  ASN427     -0.0877
    169  N         -0.0230   67.6660   10.1050 N.3   455  SER455     -0.1217
    170  CA         0.8350   68.6340    9.4220 C.3   455  SER455      0.1889
    171  C          1.8690   68.0210    8.4810 C.2   455  SER455      0.2288
    172  O          2.5320   67.0270    8.8080 O.2   455  SER455     -0.2866
    173  CB         1.5830   69.4770   10.4580 C.3   455  SER455      0.2089
    174  OG         2.6720   70.1940    9.8710 O.3   455  SER455     -0.2183
    175  N          4.6430   69.1000    8.0480 N.3   457  GLY457     -0.1225
    176  CA         5.9460   69.2310    8.6820 C.3   457  GLY457      0.1811
    177  C          6.4470   67.9240    9.2720 C.2   457  GLY457      0.2280
    178  O          7.6100   67.8150    9.6470 O.2   457  GLY457     -0.2866
    179  N         15.6000   64.7290   16.8880 N.3   506  ASN506     -0.1240
    180  CA        15.4820   65.8970   17.7590 C.3   506  ASN506      0.1653
    181  C         14.4940   65.6160   18.8960 C.2   506  ASN506      0.2266
    182  O         13.6300   64.7370   18.7800 O.2   506  ASN506     -0.2867
    183  CB        15.0820   67.1510   16.9640 C.3   506  ASN506      0.1155
    184  CG        13.6750   67.0650   16.4070 C.2   506  ASN506      0.2627
    185  OD1       12.7110   67.0350   17.1580 O.2   506  ASN506     -0.2716
    186  ND2       13.5520   67.0230   15.0920 N.am  506  ASN506     -0.0877
    187  N         11.9370   67.1350   20.0020 N.3   508  TYR508     -0.1241
    188  CA        10.5260   67.3510   19.6560 C.3   508  TYR508      0.1605
    189  C          9.8220   66.0630   19.2010 C.2   508  TYR508      0.2264
    190  O          8.8860   65.5770   19.8720 O.2   508  TYR508     -0.2867
    191  CB        10.4310   68.4730   18.6140 C.3   508  TYR508      0.0534
    192  CG         9.0930   68.7280   17.9680 C.ar  508  TYR508     -0.0201
    193  CD1        8.0860   69.4580   18.6260 C.ar  508  TYR508     -0.0009
    194  CD2        8.8570   68.3180   16.6710 C.ar  508  TYR508     -0.0009
    195  CE1        6.8610   69.7200   17.9980 C.ar  508  TYR508      0.0417
    196  CE2        7.6470   68.5730   16.0450 C.ar  508  TYR508      0.0417
    197  CZ         6.6560   69.2650   16.7090 C.ar  508  TYR508      0.1957
    198  OH         5.4830   69.5230   16.0520 O.3   508  TYR508     -0.2866
    199  N          4.1230   65.7020   16.3510 N.3   514  ASP514     -0.1239
    200  CA         4.0230   65.6210   14.9000 C.3   514  ASP514      0.1674
    201  C          3.6670   64.1850   14.4910 C.2   514  ASP514      0.2266
    202  O          4.0250   63.7160   13.4060 O.2   514  ASP514     -0.2867
    203  CB         5.3320   66.0970   14.2400 C.3   514  ASP514      0.1410
    204  CG         5.1410   67.3230   13.3650 C.2   514  ASP514      0.3668
    205  OD1        4.0500   67.9420   13.3740 O.co2 514  ASP514     -0.2456
    206  OD2        6.1050   67.6930   12.6700 O.co2 514  ASP514     -0.2456
@<TRIPOS>BOND
     1   103   104    1
     2   100    99    2
     3   105   106    2
     4   105   104    1
     5    99    98    1
     6   104   107    1
     7    98    97    1
     8    98   101    1
     9   107   108    1
    10   101   102    1
    11   108   109    1
    12   109   110    1
    13    78    77    2
    14   142   141    2
    15   110   111    2
    16   141   140    1
    17    94    92   ar
    18    94    95   ar
    19    92    90   ar
    20    77    76    1
    21   111   112    1
    22   111   113    1
    23    96    95    1
    24    95    93   ar
    25   140   139    1
    26   140   143    1
    27    79    76    1
    28    79    80    1
    29    90    89    1
    30    90    91   ar
    31    89    86    1
    32   175   176    1
    33    76    75    1
    34    88    87    2
    35   171   172    2
    36   171   170    1
    37    81    80   ar
    38    81    83   ar
    39   176   177    1
    40   143   144    1
    41    80    82   ar
    42   131   132    1
    43    93    91   ar
    44    86    87    1
    45    86    85    1
    46   117   116    2
    47   177   178    2
    48   170   169    1
    49   170   173    1
    50   132   133    1
    51   125   126    2
    52   125   124    1
    53    83    84   ar
    54   174   173    1
    55   149   147    1
    56   146   147    2
    57   146   145    1
    58    82    84   ar
    59   147   148    1
    60   144   145    1
    61   133   135   am
    62   133   134    2
    63   116   123   am
    64   116   115    1
    65   124   123    1
    66   124   127    1
    67    21    20    2
    68   118   119    1
    69   118   115    1
    70   119   120    1
    71   135   136    1
    72   137   138    2
    73   137   136    1
    74   114   115    1
    75   127   128    1
    76    20    19    1
    77    56    55    1
    78   120   122   am
    79   120   121    2
    80   128   129    2
    81   128   130   am
    82     8     6   ar
    83     8    10   ar
    84    19    18    1
    85     5     6    1
    86     5     2    1
    87   206   204   ar
    88     6     7   ar
    89    10     9   ar
    90    55    54    1
    91     4     3    2
    92   204   205   ar
    93   204   203    1
    94   202   201    2
    95    54    53    1
    96     7     9   ar
    97     3     2    1
    98     2     1    1
    99   159   160   ar
   100   159   157   ar
   101    18    13   am
   102    39    38   ar
   103    39    37   ar
   104   160   158   ar
   105   203   200    1
   106    38    36   ar
   107    53    52    1
   108    14    13    2
   109   201   200    1
   110    13    12    1
   111    37    35   ar
   112   200   199    1
   113   157   155   ar
   114    62    61    1
   115   186   184   am
   116    36    35   ar
   117   158   156   ar
   118    29    27   am
   119    52    49    1
   120    61    58    1
   121    35    34    1
   122   196   194   ar
   123   196   197   ar
   124   198   197    1
   125    16    15    1
   126   155   156   ar
   127   155   154    1
   128    12    15    1
   129    12    11    1
   130    28    27    2
   131   184   183    1
   132   184   185    2
   133    27    26    1
   134    15    17    1
   135    49    48    1
   136    49    50    1
   137   150   151    1
   138   194   192   ar
   139   197   195   ar
   140    47    45   ar
   141   179   180    1
   142   183   180    1
   143    34    31    1
   144    58    59    1
   145    58    57    1
   146    60    59    2
   147   154   151    1
   148   167   166    2
   149    51    50    2
   150   151   152    1
   151    59    63   am
   152   180   181    1
   153    26    23    1
   154   192   191    1
   155   192   193   ar
   156   195   193   ar
   157    45    46   ar
   158    45    44    1
   159    31    30    1
   160    31    32    1
   161    30    24   am
   162   191   188    1
   163   166   165    1
   164   166   168   am
   165   182   181    2
   166    63    64    1
   167    22    23    1
   168    23    24    1
   169   152   153    2
   170    24    25    2
   171    44    41    1
   172   189   188    1
   173   189   190    2
   174   165   162    1
   175    32    33    2
   176    64    67    1
   177    64    65    1
   178   188   187    1
   179   161   162    1
   180    67    68    1
   181   164   163    2
   182   162   163    1
   183    41    42    1
   184    41    40    1
   185    65    66    2
   186    65    69   am
   187    43    42    2
   188    69    70    1
   189    74    73    1
   190    73    70    1
   191    70    71    1
   192    71    72    2
