@<TRIPOS>MOLECULE
tmp/3zu4A01.pdb
 172 161 0 0 0
SMALL
GASTEIGER

@<TRIPOS>ATOM
      1  N         30.5570  -12.8720    7.8980 N.3   145  ALA145     -0.1231
      2  CA        30.1910  -14.2970    7.8580 C.3   145  ALA145      0.1694
      3  C         29.2880  -14.4730    9.0460 C.2   145  ALA145      0.2592
      4  O         29.7070  -14.2590   10.1750 O.2   145  ALA145     -0.2718
      5  CB        31.4420  -15.2150    7.9710 C.3   145  ALA145      0.0304
      6  N         28.0470  -14.8540    8.8010 N.am  146  SER146     -0.1952
      7  CA        27.1060  -14.9630    9.8790 C.3   146  SER146      0.1924
      8  C         26.1390  -16.1320    9.6460 C.2   146  SER146      0.2314
      9  O         25.7690  -16.4140    8.5040 O.2   146  SER146     -0.2863
     10  CB        26.3510  -13.6260   10.0180 C.3   146  SER146      0.2116
     11  OG        25.3480  -13.7500   11.0070 O.3   146  SER146     -0.2180
     12  N         20.8360  -19.1440    7.9840 N.3   160  SER160     -0.1202
     13  CA        21.4650  -19.7120    6.7950 C.3   160  SER160      0.2020
     14  C         21.6740  -21.2240    6.9630 C.2   160  SER160      0.2619
     15  O         21.7770  -21.7190    8.0940 O.2   160  SER160     -0.2717
     16  CB        22.7590  -18.9800    6.4400 C.3   160  SER160      0.2103
     17  OG        23.7930  -19.4060    7.2720 O.3   160  SER160     -0.2182
     18  N         21.6990  -21.9500    5.8450 N.am  161  ALA161     -0.1965
     19  CA        21.9250  -23.4100    5.8450 C.3   161  ALA161      0.1728
     20  C         23.1530  -23.7910    5.0060 C.2   161  ALA161      0.2616
     21  O         23.4780  -23.1070    4.0450 O.2   161  ALA161     -0.2715
     22  CB        20.6910  -24.1400    5.3280 C.3   161  ALA161      0.0334
     23  N         23.8220  -24.8810    5.3790 N.am  162  LEU162     -0.1977
     24  CA        24.9780  -25.3880    4.6320 C.3   162  LEU162      0.1596
     25  C         24.6270  -26.7770    4.0800 C.2   162  LEU162      0.2287
     26  O         25.0540  -27.8230    4.5990 O.2   162  LEU162     -0.2864
     27  CB        26.2490  -25.3900    5.5020 C.3   162  LEU162      0.0297
     28  CG        27.5380  -25.9260    4.8600 C.3   162  LEU162      0.0022
     29  CD1       27.9070  -25.1470    3.5830 C.3   162  LEU162      0.0001
     30  CD2       28.7160  -25.9150    5.8420 C.3   162  LEU162      0.0001
     31  N         23.5430  -14.4320    3.6540 N.3   201  MET201     -0.1245
     32  CA        24.8680  -14.3590    3.0470 C.3   201  MET201      0.1570
     33  C         24.8660  -13.8580    1.6080 C.2   201  MET201      0.2261
     34  O         25.9360  -13.7370    0.9930 O.2   201  MET201     -0.2867
     35  CB        25.5810  -15.7070    3.1680 C.3   201  MET201      0.0387
     36  CG        25.9510  -16.0820    4.6100 C.3   201  MET201      0.0595
     37  SD        27.2660  -15.0340    5.2890 S.3   201  MET201     -0.1393
     38  CE        28.6590  -15.4600    4.2160 C.3   201  MET201      0.0692
     39  N         33.7900  -17.1930   -2.3940 N.3   230  TYR230     -0.1241
     40  CA        34.5700  -18.4060   -2.6310 C.3   230  TYR230      0.1605
     41  C         33.9120  -19.2000   -3.7390 C.2   230  TYR230      0.2264
     42  O         32.7200  -19.3800   -3.7080 O.2   230  TYR230     -0.2867
     43  CB        34.6170  -19.2580   -1.3610 C.3   230  TYR230      0.0534
     44  CG        35.3970  -20.5390   -1.5130 C.ar  230  TYR230     -0.0201
     45  CD1       36.8170  -20.5250   -1.5750 C.ar  230  TYR230     -0.0009
     46  CD2       34.7430  -21.7820   -1.5550 C.ar  230  TYR230     -0.0009
     47  CE1       37.5600  -21.7160   -1.7230 C.ar  230  TYR230      0.0417
     48  CE2       35.4750  -22.9720   -1.6870 C.ar  230  TYR230      0.0417
     49  CZ        36.8790  -22.9260   -1.7630 C.ar  230  TYR230      0.1957
     50  OH        37.6140  -24.0790   -1.8830 O.3   230  TYR230     -0.2866
     51  N         34.5220  -29.1720   -4.0120 N.3   236  THR236     -0.1218
     52  CA        33.6750  -28.4590   -3.0530 C.3   236  THR236      0.1862
     53  C         32.3140  -28.0550   -3.6700 C.2   236  THR236      0.2287
     54  O         31.4230  -27.5490   -2.9790 O.2   236  THR236     -0.2866
     55  CB        34.3750  -27.1480   -2.5170 C.3   236  THR236      0.1770
     56  OG1       34.5790  -26.2530   -3.5970 O.3   236  THR236     -0.2211
     57  CG2       35.7450  -27.4270   -1.9240 C.3   236  THR236      0.0375
     58  N         28.5600  -29.1570   -2.2910 N.3   239  ILE239     -0.1231
     59  CA        28.1810  -28.5450   -1.0030 C.3   239  ILE239      0.1692
     60  C         28.2670  -27.0240   -0.9890 C.2   239  ILE239      0.2592
     61  O         27.4830  -26.3780   -0.2980 O.2   239  ILE239     -0.2718
     62  CB        28.9470  -29.1700    0.2170 C.3   239  ILE239      0.0266
     63  CG1       28.3060  -28.7250    1.5370 C.3   239  ILE239      0.0019
     64  CG2       30.4560  -28.8920    0.1710 C.3   239  ILE239      0.0020
     65  CD1       26.7870  -29.1080    1.6180 C.3   239  ILE239      0.0001
     66  N         29.2050  -26.4420   -1.7380 N.am  240  TYR240     -0.1976
     67  CA        29.4230  -24.9980   -1.6190 C.3   240  TYR240      0.1639
     68  C         28.7770  -24.2620   -2.7950 C.2   240  TYR240      0.2290
     69  O         27.6140  -23.8550   -2.7060 O.2   240  TYR240     -0.2864
     70  CB        30.9130  -24.6330   -1.4530 C.3   240  TYR240      0.0560
     71  CG        31.0790  -23.2090   -0.9610 C.ar  240  TYR240     -0.0198
     72  CD1       30.9790  -22.1370   -1.8470 C.ar  240  TYR240     -0.0009
     73  CD2       31.2510  -22.9310    0.3910 C.ar  240  TYR240     -0.0009
     74  CE1       31.0640  -20.8320   -1.4030 C.ar  240  TYR240      0.0417
     75  CE2       31.3550  -21.6130    0.8470 C.ar  240  TYR240      0.0417
     76  CZ        31.2550  -20.5650   -0.0650 C.ar  240  TYR240      0.1957
     77  OH        31.3560  -19.2390    0.3400 O.3   240  TYR240     -0.2866
     78  N         24.6570  -22.2080    0.3210 N.3   245  ILE245     -0.1245
     79  CA        25.6760  -21.1340    0.4600 C.3   245  ILE245      0.1561
     80  C         26.0720  -20.5730   -0.9080 C.2   245  ILE245      0.2260
     81  O         26.1480  -19.3540   -1.0610 O.2   245  ILE245     -0.2867
     82  CB        26.9070  -21.5030    1.3490 C.3   245  ILE245      0.0252
     83  CG1       27.7690  -20.2500    1.6970 C.3   245  ILE245      0.0019
     84  CG2       27.8160  -22.4880    0.6670 C.3   245  ILE245      0.0019
     85  CD1       27.0730  -19.2030    2.5460 C.3   245  ILE245      0.0001
     86  N         26.1560  -16.7950   -2.5410 N.3   249  LYS249     -0.1245
     87  CA        27.3180  -16.1730   -3.2040 C.3   249  LYS249      0.1561
     88  C         27.0000  -15.6850   -4.6420 C.2   249  LYS249      0.2260
     89  O         27.5410  -14.6590   -5.1340 O.2   249  LYS249     -0.2867
     90  CB        28.5480  -17.1040   -3.1690 C.3   249  LYS249      0.0271
     91  CG        29.1280  -17.3280   -1.7460 C.3   249  LYS249      0.0035
     92  CD        29.3900  -15.9890   -1.0180 C.3   249  LYS249      0.0206
     93  CE        30.2280  -16.1640    0.2730 C.3   249  LYS249      0.1093
     94  NZ        30.5760  -14.8450    0.8930 N.3   249  LYS249     -0.1314
     95  N         40.3630  -20.8750    0.1390 N.3   278  ALA278     -0.1231
     96  CA        39.9670  -21.4690    1.4090 C.3   278  ALA278      0.1694
     97  C         41.0680  -21.3400    2.4510 C.2   278  ALA278      0.2591
     98  O         42.2590  -21.5910    2.1440 O.2   278  ALA278     -0.2718
     99  CB        39.6130  -22.9530    1.2050 C.3   278  ALA278      0.0304
    100  N         40.6910  -20.9550    3.6690 N.am  279  VAL279     -0.1980
    101  CA        41.6390  -20.8740    4.7890 C.3   279  VAL279      0.1595
    102  C         40.9880  -21.4090    6.0460 C.2   279  VAL279      0.2287
    103  O         39.7780  -21.5520    6.1140 O.2   279  VAL279     -0.2864
    104  CB        42.1620  -19.4070    5.0770 C.3   279  VAL279      0.0276
    105  CG1       42.9920  -18.8600    3.8970 C.3   279  VAL279      0.0022
    106  CG2       40.9910  -18.4270    5.3830 C.3   279  VAL279      0.0022
    107  N         39.3530  -20.9680    9.4290 N.3   281  SER281     -0.1217
    108  CA        38.6090  -19.8720   10.0560 C.3   281  SER281      0.1889
    109  C         37.9100  -20.4760   11.2370 C.2   281  SER281      0.2288
    110  O         37.9650  -21.6880   11.4480 O.2   281  SER281     -0.2866
    111  CB        37.5540  -19.3020    9.0860 C.3   281  SER281      0.2089
    112  OG        36.4400  -20.1870    9.0170 O.3   281  SER281     -0.2183
    113  N         34.8580  -21.1370   11.8120 N.3   283  ALA283     -0.1231
    114  CA        33.8370  -22.0760   11.3890 C.3   283  ALA283      0.1694
    115  C         34.3750  -23.3430   10.6980 C.2   283  ALA283      0.2592
    116  O         33.5670  -24.1650   10.2580 O.2   283  ALA283     -0.2718
    117  CB        32.8840  -21.3820   10.4200 C.3   283  ALA283      0.0304
    118  N         35.6910  -23.5110   10.5710 N.am  284  SER284     -0.1952
    119  CA        36.2070  -24.5770    9.6880 C.3   284  SER284      0.1924
    120  C         35.7150  -25.9530   10.0480 C.2   284  SER284      0.2314
    121  O         35.6180  -26.8330    9.2040 O.2   284  SER284     -0.2863
    122  CB        37.7170  -24.5570    9.5980 C.3   284  SER284      0.2116
    123  OG        38.0940  -23.4680    8.7860 O.3   284  SER284     -0.2180
    124  N         32.6260  -26.4480   10.6960 N.3   286  ALA286     -0.1231
    125  CA        31.1850  -26.3550   10.5900 C.3   286  ALA286      0.1694
    126  C         30.7940  -27.7150   10.0900 C.2   286  ALA286      0.2591
    127  O         29.9230  -28.3760   10.6620 O.2   286  ALA286     -0.2718
    128  CB        30.7580  -25.2720    9.5980 C.3   286  ALA286      0.0304
    129  N         31.4690  -28.1230    9.0160 N.am  287  ILE287     -0.1980
    130  CA        31.2330  -29.4160    8.4130 C.3   287  ILE287      0.1595
    131  C         32.5930  -30.0730    8.3010 C.2   287  ILE287      0.2287
    132  O         33.5610  -29.4220    7.8670 O.2   287  ILE287     -0.2864
    133  CB        30.4360  -29.2750    7.0530 C.3   287  ILE287      0.0276
    134  CG1       29.4650  -30.4510    6.8540 C.3   287  ILE287      0.0022
    135  CG2       31.3420  -28.9340    5.8460 C.3   287  ILE287      0.0022
    136  CD1       28.1600  -30.3530    7.6970 C.3   287  ILE287      0.0001
    137  N         33.9580  -31.8920    6.2900 N.3   289  MET289     -0.1230
    138  CA        34.6350  -31.8250    4.9740 C.3   289  MET289      0.1702
    139  C         35.7300  -30.7660    4.9440 C.2   289  MET289      0.2592
    140  O         36.7660  -30.9880    4.3390 O.2   289  MET289     -0.2718
    141  CB        33.6800  -31.5730    3.8100 C.3   289  MET289      0.0401
    142  CG        34.3860  -31.6770    2.4460 C.3   289  MET289      0.0596
    143  SD        33.3420  -31.5310    0.9470 S.3   289  MET289     -0.1393
    144  CE        34.5690  -31.5330   -0.3920 C.3   289  MET289      0.0692
    145  N         35.4910  -29.6190    5.5790 N.am  290  MET290     -0.1979
    146  CA        36.4380  -28.4960    5.5190 C.3   290  MET290      0.1605
    147  C         37.7940  -28.8090    6.1690 C.2   290  MET290      0.2287
    148  O         38.8050  -28.5960    5.5450 O.2   290  MET290     -0.2864
    149  CB        35.8150  -27.1560    6.0350 C.3   290  MET290      0.0413
    150  CG        34.3900  -26.8330    5.4680 C.3   290  MET290      0.0598
    151  SD        33.4790  -25.3450    6.1130 S.3   290  MET290     -0.1393
    152  CE        32.1870  -26.0670    7.1140 C.3   290  MET290      0.0692
    153  N         39.5900  -31.1690    3.6130 N.3   293  TYR293     -0.1227
    154  CA        39.9630  -30.4410    2.4080 C.3   293  TYR293      0.1736
    155  C         41.1640  -29.4950    2.6790 C.2   293  TYR293      0.2595
    156  O         42.1580  -29.5020    1.9240 O.2   293  TYR293     -0.2718
    157  CB        38.7530  -29.6700    1.8560 C.3   293  TYR293      0.0548
    158  CG        39.0830  -28.8490    0.6560 C.ar  293  TYR293     -0.0200
    159  CD1       39.3490  -29.4560   -0.5680 C.ar  293  TYR293     -0.0009
    160  CD2       39.1730  -27.4470    0.7550 C.ar  293  TYR293     -0.0009
    161  CE1       39.6700  -28.6990   -1.6810 C.ar  293  TYR293      0.0417
    162  CE2       39.5060  -26.6630   -0.3660 C.ar  293  TYR293      0.0417
    163  CZ        39.7580  -27.2890   -1.5660 C.ar  293  TYR293      0.1957
    164  OH        40.1040  -26.5120   -2.6670 O.3   293  TYR293     -0.2866
    165  N         41.0850  -28.7320    3.7830 N.am  294  LEU294     -0.1980
    166  CA        42.1560  -27.8090    4.1620 C.3   294  LEU294      0.1596
    167  C         43.4220  -28.5880    4.4580 C.2   294  LEU294      0.2287
    168  O         44.5010  -28.1810    4.0200 O.2   294  LEU294     -0.2864
    169  CB        41.7530  -26.9090    5.3660 C.3   294  LEU294      0.0297
    170  CG        40.6350  -25.8800    5.0450 C.3   294  LEU294      0.0022
    171  CD1       40.0330  -25.2070    6.3050 C.3   294  LEU294      0.0001
    172  CD2       41.1270  -24.7820    4.1020 C.3   294  LEU294      0.0001
@<TRIPOS>BOND
     1    89    88    2
     2    88    87    1
     3    51    52    1
     4    41    42    2
     5    41    40    1
     6    53    52    1
     7    53    54    2
     8    56    55    1
     9    87    90    1
    10    87    86    1
    11    90    91    1
    12    52    55    1
    13    68    69    2
    14    68    67    1
    15   164   163    1
    16    40    39    1
    17    40    43    1
    18    55    57    1
    19    58    59    1
    20    50    49    1
    21    72    74   ar
    22    72    71   ar
    23    49    47   ar
    24    49    48   ar
    25    91    92    1
    26    66    67    1
    27    66    60   am
    28    47    45   ar
    29    48    46   ar
    30   161   163   ar
    31   161   159   ar
    32    67    70    1
    33    45    44   ar
    34   163   162   ar
    35    46    44   ar
    36    44    43    1
    37    70    71    1
    38    74    76   ar
    39    81    80    2
    40    92    93    1
    41    59    60    1
    42    59    62    1
    43    60    61    2
    44    71    73   ar
    45    80    79    1
    46   159   158   ar
    47   144   143    1
    48   162   160   ar
    49    76    77    1
    50    76    75   ar
    51    95    96    1
    52    64    62    1
    53    62    63    1
    54    93    94    1
    55    78    79    1
    56    73    75   ar
    57    79    82    1
    58   158   160   ar
    59   158   157    1
    60    84    82    1
    61   143   142    1
    62    34    33    2
    63    99    96    1
    64    82    83    1
    65    96    97    1
    66    63    65    1
    67    33    32    1
    68    83    85    1
    69   157   154    1
    70   156   155    2
    71    98    97    2
    72   154   155    1
    73   154   153    1
    74   142   141    1
    75    97   100   am
    76   155   165   am
    77    32    35    1
    78    32    31    1
    79    35    36    1
    80    29    28    1
    81   100   101    1
    82   165   166    1
    83   141   138    1
    84   105   104    1
    85   168   167    2
    86    21    20    2
    87    25    26    2
    88    25    24    1
    89   172   170    1
    90   166   167    1
    91   166   169    1
    92    38    37    1
    93   140   139    2
    94    36    37    1
    95    24    23    1
    96    24    27    1
    97   101   104    1
    98   101   102    1
    99    28    27    1
   100    28    30    1
   101   139   138    1
   102   139   145   am
   103   138   137    1
   104    20    23   am
   105    20    19    1
   106   170   169    1
   107   170   171    1
   108   104   106    1
   109    22    19    1
   110   150   149    1
   111   150   151    1
   112   146   145    1
   113   146   149    1
   114   146   147    1
   115   148   147    2
   116    19    18    1
   117    18    14   am
   118   135   133    1
   119   102   103    2
   120   151   152    1
   121    16    13    1
   122    16    17    1
   123    13    14    1
   124    13    12    1
   125   134   133    1
   126   134   136    1
   127    14    15    2
   128   133   130    1
   129     2     1    1
   130     2     5    1
   131     2     3    1
   132   132   131    2
   133   131   130    1
   134   130   129    1
   135     9     8    2
   136   123   122    1
   137     6     3   am
   138     6     7    1
   139   129   126   am
   140   112   111    1
   141     3     4    2
   142   111   108    1
   143   121   120    2
   144   107   108    1
   145   122   119    1
   146   128   125    1
   147     8     7    1
   148   119   120    1
   149   119   118    1
   150     7    10    1
   151    10    11    1
   152   108   109    1
   153   126   125    1
   154   126   127    2
   155   116   115    2
   156   117   114    1
   157   118   115   am
   158   125   124    1
   159   115   114    1
   160   109   110    2
   161   114   113    1
