@<TRIPOS>MOLECULE
tmp/3zucA00.pdb
 89 83 0 0 0
SMALL
GASTEIGER

@<TRIPOS>ATOM
      1  N         -7.0260   37.7970   -5.8220 N.3    40  ASP40      -0.1239
      2  CA        -8.2120   38.6140   -6.0280 C.3    40  ASP40       0.1674
      3  C         -9.4650   38.0410   -5.3900 C.2    40  ASP40       0.2266
      4  O        -10.5210   38.6570   -5.4870 O.2    40  ASP40      -0.2867
      5  CB        -8.4410   38.8040   -7.5140 C.3    40  ASP40       0.1410
      6  CG        -7.3590   39.6120   -8.1390 C.2    40  ASP40       0.3668
      7  OD1       -7.0230   40.6770   -7.5730 O.co2  40  ASP40      -0.2456
      8  OD2       -6.8070   39.1640   -9.1490 O.co2  40  ASP40      -0.2456
      9  N        -11.9350   36.9670   -2.3150 N.3    42  LYS42      -0.1245
     10  CA       -12.2720   37.2070   -0.9150 C.3    42  LYS42       0.1561
     11  C        -13.5200   36.4210   -0.5240 C.2    42  LYS42       0.2260
     12  O        -14.4200   36.2130   -1.3510 O.2    42  LYS42      -0.2867
     13  CB       -12.5170   38.6960   -0.6420 C.3    42  LYS42       0.0271
     14  CG       -11.2810   39.5810   -0.7620 C.3    42  LYS42       0.0035
     15  CD       -11.5670   40.9720   -0.2190 C.3    42  LYS42       0.0206
     16  CE       -10.5780   42.0030   -0.7210 C.3    42  LYS42       0.1093
     17  NZ       -10.6240   42.1270   -2.2160 N.3    42  LYS42      -0.1314
     18  N        -16.6160   35.9100    2.6090 N.3    44  HIS44      -0.1241
     19  CA       -17.2830   36.4700    3.7830 C.3    44  HIS44       0.1621
     20  C        -18.0570   35.4120    4.5740 C.2    44  HIS44       0.2264
     21  O        -18.7430   34.5590    3.9990 O.2    44  HIS44      -0.2867
     22  CB       -18.3100   37.5530    3.4270 C.3    44  HIS44       0.0745
     23  CG       -17.7300   38.8130    2.8980 C.ar   44  HIS44       0.0817
     24  ND1      -18.5230   39.8580    2.4740 N.ar   44  HIS44      -0.2268
     25  CD2      -16.4530   39.2100    2.7390 C.ar   44  HIS44       0.1154
     26  CE1      -17.7510   40.8490    2.0580 C.ar   44  HIS44       0.1986
     27  NE2      -16.4880   40.4810    2.2090 N.ar   44  HIS44      -0.2212
     28  N        -10.0260   39.7890    8.3680 N.3    72  THR72      -0.1218
     29  CA       -10.3710   41.0160    9.0570 C.3    72  THR72       0.1862
     30  C        -11.8710   41.0220    9.3220 C.2    72  THR72       0.2287
     31  O        -12.6150   40.2250    8.7490 O.2    72  THR72      -0.2866
     32  CB        -9.9720   42.2520    8.2520 C.3    72  THR72       0.1770
     33  OG1      -10.5970   42.1710    6.9800 O.3    72  THR72      -0.2211
     34  CG2       -8.4720   42.3860    8.1030 C.3    72  THR72       0.0375
     35  N        -15.4580   43.3580    9.7550 N.3    74  VAL74      -0.1245
     36  CA       -16.1150   44.5660    9.2850 C.3    74  VAL74       0.1561
     37  C        -17.5250   44.5900    9.8590 C.2    74  VAL74       0.2260
     38  O        -18.1670   43.5520    9.9600 O.2    74  VAL74      -0.2867
     39  CB       -16.1720   44.5840    7.7290 C.3    74  VAL74       0.0252
     40  CG1      -16.7620   45.9050    7.2360 C.3    74  VAL74       0.0019
     41  CG2      -14.7960   44.3470    7.1490 C.3    74  VAL74       0.0019
     42  N        -19.1370   40.9040    9.5320 N.3    86  TYR86      -0.1241
     43  CA       -18.6100   39.8090    8.7490 C.3    86  TYR86       0.1605
     44  C        -17.1090   39.6980    8.9110 C.2    86  TYR86       0.2264
     45  O        -16.3960   40.6820    9.0920 O.2    86  TYR86      -0.2867
     46  CB       -19.0000   39.8960    7.2680 C.3    86  TYR86       0.0534
     47  CG       -18.5880   41.1380    6.5070 C.ar   86  TYR86      -0.0201
     48  CD1      -19.4200   42.2380    6.4710 C.ar   86  TYR86      -0.0009
     49  CD2      -17.4190   41.1930    5.7610 C.ar   86  TYR86      -0.0009
     50  CE1      -19.1120   43.3640    5.6950 C.ar   86  TYR86       0.0417
     51  CE2      -17.0950   42.3210    5.0010 C.ar   86  TYR86       0.0417
     52  CZ       -17.9490   43.3990    4.9710 C.ar   86  TYR86       0.1957
     53  OH       -17.6510   44.5110    4.1910 O.3    86  TYR86      -0.2866
     54  N        -13.9500   38.8510    6.6770 N.3    88  GLU88      -0.1245
     55  CA       -13.4980   38.8550    5.2960 C.3    88  GLU88       0.1567
     56  C        -12.1290   38.1820    5.2330 C.2    88  GLU88       0.2260
     57  O        -11.1750   38.6430    5.8700 O.2    88  GLU88      -0.2867
     58  CB       -13.4040   40.2810    4.7370 C.3    88  GLU88       0.0388
     59  CG       -12.9280   40.3200    3.2980 C.3    88  GLU88       0.1160
     60  CD       -13.1360   41.6860    2.6800 C.2    88  GLU88       0.3649
     61  OE1      -14.2670   42.0200    2.2770 O.co2  88  GLU88      -0.2457
     62  OE2      -12.1610   42.4540    2.6190 O.co2  88  GLU88      -0.2457
     63  N        -15.9820   36.6370   -3.6260 N.3   142  TYR142     -0.1227
     64  CA       -15.7510   37.7860   -4.4890 C.3   142  TYR142      0.1736
     65  C        -14.5040   37.5600   -5.3060 C.2   142  TYR142      0.2596
     66  O        -13.5580   36.9140   -4.8330 O.2   142  TYR142     -0.2718
     67  CB       -15.5390   39.0700   -3.6460 C.3   142  TYR142      0.0548
     68  CG       -16.6840   39.3120   -2.7060 C.ar  142  TYR142     -0.0200
     69  CD1      -16.7700   38.6090   -1.5110 C.ar  142  TYR142     -0.0009
     70  CD2      -17.7260   40.1700   -3.0320 C.ar  142  TYR142     -0.0009
     71  CE1      -17.8640   38.7180   -0.6920 C.ar  142  TYR142      0.0417
     72  CE2      -18.8220   40.3140   -2.2000 C.ar  142  TYR142      0.0417
     73  CZ       -18.9020   39.5570   -1.0370 C.ar  142  TYR142      0.1957
     74  OH       -19.9880   39.6050   -0.2200 O.3   142  TYR142     -0.2866
     75  N        -14.4850   38.1390   -6.5070 N.am  143  SER143     -0.1938
     76  CA       -13.2860   38.2990   -7.2980 C.3   143  SER143      0.2055
     77  C        -12.9960   39.7900   -7.4070 C.2   143  SER143      0.2642
     78  O        -13.6390   40.6000   -6.7410 O.2   143  SER143     -0.2714
     79  CB       -13.4900   37.7220   -8.6930 C.3   143  SER143      0.2130
     80  OG       -14.3810   38.5320   -9.3920 O.3   143  SER143     -0.2179
     81  N        -12.0730   40.1770   -8.2820 N.am  144  ALA144     -0.1977
     82  CA       -11.9020   41.5930   -8.5860 C.3   144  ALA144      0.1597
     83  C        -13.1730   42.2090   -9.1630 C.2   144  ALA144      0.2287
     84  O        -13.3140   43.4360   -9.1380 O.2   144  ALA144     -0.2864
     85  CB       -10.7360   41.7960   -9.5460 C.3   144  ALA144      0.0319
     86  N        -16.1370   41.7290   -8.0110 N.3   146  GLY146     -0.1225
     87  CA       -17.1950   41.8230   -7.0290 C.3   146  GLY146      0.1811
     88  C        -17.7500   40.4570   -6.7030 C.2   146  GLY146      0.2280
     89  O        -17.0510   39.4470   -6.7770 O.2   146  GLY146     -0.2866
@<TRIPOS>BOND
     1    85    82    1
     2    80    79    1
     3    83    84    2
     4    83    82    1
     5     8     6   ar
     6    79    76    1
     7    82    81    1
     8    81    77   am
     9     6     7   ar
    10     6     5    1
    11    86    87    1
    12     5     2    1
    13    77    76    1
    14    77    78    2
    15    76    75    1
    16    87    88    1
    17    89    88    2
    18    75    65   am
    19     2     1    1
    20     2     3    1
    21     4     3    2
    22    65    66    2
    23    65    64    1
    24    64    67    1
    25    64    63    1
    26    67    68    1
    27    70    68   ar
    28    70    72   ar
    29    68    69   ar
    30     9    10    1
    31    17    16    1
    32    72    73   ar
    33    69    71   ar
    34    12    11    2
    35    73    71   ar
    36    73    74    1
    37    10    13    1
    38    10    11    1
    39    14    13    1
    40    14    15    1
    41    16    15    1
    42    26    27   ar
    43    26    24   ar
    44    27    25   ar
    45    61    60   ar
    46    24    23   ar
    47    18    19    1
    48    62    60   ar
    49    60    59    1
    50    25    23   ar
    51    23    22    1
    52    59    58    1
    53    22    19    1
    54    19    20    1
    55    21    20    2
    56    53    52    1
    57    58    55    1
    58    52    51   ar
    59    52    50   ar
    60    51    49   ar
    61    56    55    1
    62    56    57    2
    63    55    54    1
    64    50    48   ar
    65    49    47   ar
    66    48    47   ar
    67    47    46    1
    68    33    32    1
    69    41    39    1
    70    40    39    1
    71    46    43    1
    72    39    36    1
    73    34    32    1
    74    32    29    1
    75    28    29    1
    76    43    44    1
    77    43    42    1
    78    31    30    2
    79    44    45    2
    80    29    30    1
    81    36    35    1
    82    36    37    1
    83    37    38    2
