@<TRIPOS>MOLECULE
tmp/3zuhF00.pdb
 107 99 0 0 0
SMALL
GASTEIGER

@<TRIPOS>ATOM
      1  N        170.1730  190.9200  188.9450 N.3   225  TYR225     -0.1241
      2  CA       170.8440  192.0980  189.4760 C.3   225  TYR225      0.1605
      3  C        172.3560  191.9780  189.3460 C.2   225  TYR225      0.2264
      4  O        173.0070  192.8610  188.7830 O.2   225  TYR225     -0.2867
      5  CB       170.4630  192.3260  190.9490 C.3   225  TYR225      0.0534
      6  CG       171.1330  193.5400  191.5470 C.ar  225  TYR225     -0.0201
      7  CD1      172.4500  193.4810  191.9990 C.ar  225  TYR225     -0.0009
      8  CD2      170.4610  194.7550  191.6310 C.ar  225  TYR225     -0.0009
      9  CE1      173.0750  194.5960  192.5270 C.ar  225  TYR225      0.0417
     10  CE2      171.0760  195.8760  192.1640 C.ar  225  TYR225      0.0417
     11  CZ       172.3830  195.7900  192.6080 C.ar  225  TYR225      0.1957
     12  OH       173.0040  196.8970  193.1350 O.3   225  TYR225     -0.2866
     13  N        174.9290  194.2960  187.4310 N.3   229  ARG229     -0.1245
     14  CA       175.8350  195.1170  188.2430 C.3   229  ARG229      0.1563
     15  C        177.3040  194.9560  187.8590 C.2   229  ARG229      0.2260
     16  O        178.0510  195.9360  187.8550 O.2   229  ARG229     -0.2867
     17  CB       175.6300  194.8670  189.7440 C.3   229  ARG229      0.0307
     18  CG       176.4960  195.7310  190.6570 C.3   229  ARG229      0.0489
     19  CD       176.1900  197.2330  190.5150 C.3   229  ARG229      0.2205
     20  NE       177.2050  198.0550  191.1750 N.pl3 229  ARG229     -0.0865
     21  CZ       178.3110  198.5070  190.5860 C.cat 229  ARG229      0.5346
     22  NH1      178.5550  198.2350  189.3090 N.pl3 229  ARG229      0.1354
     23  NH2      179.1780  199.2390  191.2730 N.pl3 229  ARG229      0.1354
     24  N        182.9200  200.5280  188.4240 N.3   234  HIS234     -0.1241
     25  CA       183.2630  200.4500  189.8470 C.3   234  HIS234      0.1621
     26  C        182.5260  199.3240  190.5720 C.2   234  HIS234      0.2264
     27  O        181.9480  199.5240  191.6400 O.2   234  HIS234     -0.2867
     28  CB       183.0150  201.7970  190.5470 C.3   234  HIS234      0.0745
     29  CG       183.5710  202.9780  189.8110 C.ar  234  HIS234      0.0817
     30  ND1      184.8790  203.0350  189.3720 N.ar  234  HIS234     -0.2268
     31  CD2      183.0000  204.1490  189.4460 C.ar  234  HIS234      0.1154
     32  CE1      185.0870  204.1890  188.7620 C.ar  234  HIS234      0.1986
     33  NE2      183.9620  204.8850  188.7940 N.ar  234  HIS234     -0.2212
     34  N        182.4690  196.4020  192.9120 N.3   236  ALA236     -0.1245
     35  CA       183.3350  196.1450  194.0570 C.3   236  ALA236      0.1562
     36  C        183.0680  194.7870  194.6950 C.2   236  ALA236      0.2260
     37  O        183.3440  194.5880  195.8860 O.2   236  ALA236     -0.2867
     38  CB       183.2120  197.2700  195.0810 C.3   236  ALA236      0.0290
     39  N        179.6480  195.6970  196.6780 N.3   240  SER240     -0.1217
     40  CA       178.4740  195.9580  195.8640 C.3   240  SER240      0.1889
     41  C        177.2920  195.0920  196.3130 C.2   240  SER240      0.2288
     42  O        176.1370  195.5250  196.2710 O.2   240  SER240     -0.2866
     43  CB       178.7990  195.7210  194.3920 C.3   240  SER240      0.2089
     44  OG       179.8560  196.5740  193.9770 O.3   240  SER240     -0.2183
     45  N        176.0750  196.4560  199.6790 N.3   243  ASN243     -0.1240
     46  CA       175.3860  197.6800  199.2970 C.3   243  ASN243      0.1653
     47  C        174.0010  197.4580  198.7020 C.2   243  ASN243      0.2266
     48  O        173.0780  198.2140  198.9880 O.2   243  ASN243     -0.2867
     49  CB       176.2480  198.5110  198.3430 C.3   243  ASN243      0.1155
     50  CG       177.4550  199.1400  199.0280 C.2   243  ASN243      0.2627
     51  OD1      177.4330  199.4160  200.2260 O.2   243  ASN243     -0.2716
     52  ND2      178.5170  199.3720  198.2610 N.am  243  ASN243     -0.0877
     53  N        170.4070  198.3340  200.5960 N.3   247  ARG247     -0.1245
     54  CA       169.3670  199.1210  199.9440 C.3   247  ARG247      0.1563
     55  C        168.0820  198.3210  199.8050 C.2   247  ARG247      0.2260
     56  O        166.9880  198.8760  199.8870 O.2   247  ARG247     -0.2867
     57  CB       169.8560  199.6610  198.6000 C.3   247  ARG247      0.0307
     58  CG       170.8840  200.7910  198.7580 C.3   247  ARG247      0.0489
     59  CD       171.3500  201.3850  197.4230 C.3   247  ARG247      0.2205
     60  NE       172.4480  200.6190  196.8420 N.pl3 247  ARG247     -0.0865
     61  CZ       173.6760  201.0860  196.6330 C.cat 247  ARG247      0.5346
     62  NH1      173.9800  202.3430  196.9400 N.pl3 247  ARG247      0.1354
     63  NH2      174.5980  200.2920  196.0960 N.pl3 247  ARG247      0.1354
     64  N        164.5270  199.2110  201.4180 N.3   251  ARG251     -0.1245
     65  CA       163.3080  199.1260  200.6180 C.3   251  ARG251      0.1563
     66  C        162.2840  198.1730  201.2370 C.2   251  ARG251      0.2260
     67  O        161.0820  198.4430  201.2170 O.2   251  ARG251     -0.2867
     68  CB       163.6260  198.6960  199.1860 C.3   251  ARG251      0.0307
     69  CG       164.3990  199.7220  198.3950 C.3   251  ARG251      0.0489
     70  CD       164.2920  199.4660  196.9020 C.3   251  ARG251      0.2205
     71  NE       165.3800  200.1130  196.1700 N.pl3 251  ARG251     -0.0865
     72  CZ       166.5290  199.5180  195.8510 C.cat 251  ARG251      0.5346
     73  NH1      166.7410  198.2480  196.1920 N.pl3 251  ARG251      0.1354
     74  NH2      167.4630  200.1920  195.1930 N.pl3 251  ARG251      0.1354
     75  N        163.3260  197.2190  192.2980 N.3   279  ALA279     -0.1231
     76  CA       163.1480  198.6760  192.3750 C.3   279  ALA279      0.1694
     77  C        164.4490  199.4530  192.1430 C.2   279  ALA279      0.2593
     78  O        164.4370  200.6770  192.0710 O.2   279  ALA279     -0.2718
     79  CB       162.5280  199.0660  193.7190 C.3   279  ALA279      0.0304
     80  N        165.5600  198.7330  192.0260 N.am  280  SER280     -0.1938
     81  CA       166.8720  199.3470  191.8430 C.3   280  SER280      0.2055
     82  C        167.0650  199.9420  190.4430 C.2   280  SER280      0.2643
     83  O        166.6550  199.3460  189.4420 O.2   280  SER280     -0.2714
     84  CB       167.9750  198.3320  192.1330 C.3   280  SER280      0.2130
     85  OG       169.2150  198.7780  191.6250 O.3   280  SER280     -0.2179
     86  N        167.7040  201.1150  190.3940 N.am  281  ARG281     -0.1963
     87  CA       168.0170  201.8040  189.1420 C.3   281  ARG281      0.1729
     88  C        169.0280  201.0010  188.3230 C.2   281  ARG281      0.2616
     89  O        169.2420  201.2780  187.1400 O.2   281  ARG281     -0.2715
     90  CB       168.6110  203.1770  189.4410 C.3   281  ARG281      0.0348
     91  CG       168.8190  203.9380  188.1360 C.3   281  ARG281      0.0492
     92  CD       169.5270  205.2560  188.4240 C.3   281  ARG281      0.2205
     93  NE       170.9380  205.0310  188.8050 N.pl3 281  ARG281     -0.0865
     94  CZ       171.7950  206.0230  189.0330 C.cat 281  ARG281      0.5346
     95  NH1      171.4380  207.3000  188.9280 N.pl3 281  ARG281      0.1354
     96  NH2      173.0420  205.7070  189.3710 N.pl3 281  ARG281      0.1354
     97  N        169.6360  199.9980  188.9530 N.am  282  VAL282     -0.1977
     98  CA       170.4460  199.0150  188.2360 C.3   282  VAL282      0.1596
     99  C        169.6240  198.3420  187.1240 C.2   282  VAL282      0.2287
    100  O        170.1700  197.9410  186.1000 O.2   282  VAL282     -0.2864
    101  CB       171.0540  197.9680  189.2050 C.3   282  VAL282      0.0276
    102  CG1      171.5930  196.7610  188.4600 C.3   282  VAL282      0.0022
    103  CG2      172.1540  198.6010  190.0530 C.3   282  VAL282      0.0022
    104  N        171.2420  202.3210  185.3990 N.3   286  GLY286     -0.1225
    105  CA       172.3070  202.8460  186.2650 C.3   286  GLY286      0.1811
    106  C        172.1550  202.4350  187.7220 C.2   286  GLY286      0.2280
    107  O        172.9830  202.7830  188.5730 O.2   286  GLY286     -0.2866
@<TRIPOS>BOND
     1   104   105    1
     2   100    99    2
     3   105   106    1
     4    99    98    1
     5    89    88    2
     6    13    14    1
     7   106   107    2
     8    16    15    2
     9    15    14    1
    10    91    92    1
    11    91    90    1
    12    98    97    1
    13    98   101    1
    14    14    17    1
    15    88    97   am
    16    88    87    1
    17    24    25    1
    18    92    93    1
    19   102   101    1
    20    32    33   ar
    21    32    30   ar
    22     4     3    2
    23    33    31   ar
    24    93    94    2
    25    95    94    1
    26     1     2    1
    27    94    96    1
    28    87    90    1
    29    87    86    1
    30   101   103    1
    31    22    21    1
    32     3     2    1
    33    30    29   ar
    34    83    82    2
    35    31    29   ar
    36     2     5    1
    37    17    18    1
    38    29    28    1
    39    25    28    1
    40    25    26    1
    41    86    82   am
    42    82    81    1
    43    19    18    1
    44    19    20    1
    45    26    27    2
    46    21    20    2
    47    21    23    1
    48     5     6    1
    49     6     8   ar
    50     6     7   ar
    51    85    84    1
    52     8    10   ar
    53    81    80    1
    54    81    84    1
    55     7     9   ar
    56    80    77   am
    57    78    77    2
    58    77    76    1
    59    10    11   ar
    60    75    76    1
    61    76    79    1
    62     9    11   ar
    63    11    12    1
    64    34    35    1
    65    44    43    1
    66    35    36    1
    67    35    38    1
    68    43    40    1
    69    36    37    2
    70    74    72    1
    71    72    71    2
    72    72    73    1
    73    40    41    1
    74    40    39    1
    75    63    61    1
    76    71    70    1
    77    42    41    2
    78    61    60    2
    79    61    62    1
    80    60    59    1
    81    70    69    1
    82    59    58    1
    83    52    50   am
    84    49    50    1
    85    49    46    1
    86    69    68    1
    87    57    58    1
    88    57    54    1
    89    47    48    2
    90    47    46    1
    91    50    51    2
    92    68    65    1
    93    46    45    1
    94    55    56    2
    95    55    54    1
    96    54    53    1
    97    65    66    1
    98    65    64    1
    99    67    66    2
