@<TRIPOS>MOLECULE
tmp/3zuhF01.pdb
 131 129 0 0 0
SMALL
GASTEIGER

@<TRIPOS>ATOM
      1  N        178.0800  174.7670  210.8920 N.3    25  GLU25      -0.1231
      2  CA       178.2470  176.1900  211.1830 C.3    25  GLU25       0.1699
      3  C        178.9520  177.0000  210.0930 C.2    25  GLU25       0.2592
      4  O        179.4550  178.0980  210.3570 O.2    25  GLU25      -0.2718
      5  CB       178.9380  176.3820  212.5280 C.3    25  GLU25       0.0402
      6  CG       178.0370  176.0590  213.7090 C.3    25  GLU25       0.1161
      7  CD       178.8040  175.5530  214.9150 C.2    25  GLU25       0.3649
      8  OE1      179.8280  176.1770  215.2820 O.co2  25  GLU25      -0.2457
      9  OE2      178.3760  174.5290  215.4950 O.co2  25  GLU25      -0.2457
     10  N        178.9850  176.4710  208.8750 N.am   26  LEU26      -0.1966
     11  CA       179.5500  177.1900  207.7360 C.3    26  LEU26       0.1728
     12  C        178.7220  176.8470  206.5080 C.2    26  LEU26       0.2616
     13  O        178.7560  175.7040  206.0460 O.2    26  LEU26      -0.2715
     14  CB       180.9980  176.7530  207.5080 C.3    26  LEU26       0.0311
     15  CG       182.1490  177.7150  207.1840 C.3    26  LEU26       0.0022
     16  CD1      183.1550  176.9630  206.3230 C.3    26  LEU26       0.0001
     17  CD2      181.7280  179.0110  206.4980 C.3    26  LEU26       0.0001
     18  N        177.9640  177.8150  205.9920 N.am   27  ILE27      -0.1976
     19  CA       177.1420  177.5620  204.8050 C.3    27  ILE27       0.1628
     20  C        178.0560  177.0000  203.7300 C.2    27  ILE27       0.2288
     21  O        179.0750  177.6070  203.3890 O.2    27  ILE27      -0.2864
     22  CB       176.5020  178.8620  204.3300 C.3    27  ILE27       0.0629
     23  CG1      175.2440  179.1380  205.1450 C.3    27  ILE27       0.0055
     24  CG2      176.1350  178.7390  202.8540 C.3    27  ILE27       0.0458
     25  CD1      175.5650  180.1240  206.2610 C.3    27  ILE27       0.0002
     26  N        180.8680  175.3960  202.0420 N.3    29  LEU29      -0.1245
     27  CA       182.0500  175.6880  201.2420 C.3    29  LEU29       0.1561
     28  C        182.9070  174.4220  201.2810 C.2    29  LEU29       0.2260
     29  O        184.0240  174.4120  201.8090 O.2    29  LEU29      -0.2867
     30  CB       182.8060  176.9080  201.7740 C.3    29  LEU29       0.0270
     31  CG       182.2040  178.3070  201.6000 C.3    29  LEU29       0.0019
     32  CD1      182.5900  179.1820  202.7780 C.3    29  LEU29       0.0001
     33  CD2      182.6360  178.9620  200.3000 C.3    29  LEU29       0.0001
     34  N        189.4340  185.9500  200.2750 N.3    65  ASN65      -0.1226
     35  CA       188.6560  187.1780  200.3710 C.3    65  ASN65       0.1770
     36  C        187.8290  187.2640  201.6380 C.2    65  ASN65       0.2439
     37  O        187.6320  186.2610  202.3170 O.2    65  ASN65      -0.2733
     38  CB       187.7310  187.3010  199.1690 C.3    65  ASN65       0.1168
     39  CG       188.4740  187.5750  197.8900 C.2    65  ASN65       0.2627
     40  OD1      189.5170  188.2200  197.8830 O.2    65  ASN65      -0.2716
     41  ND2      187.9350  187.0790  196.7870 N.am   65  ASN65      -0.0877
     42  N        187.3340  188.4680  201.9640 N.am   66  PRO66      -0.2718
     43  CA       186.3200  188.5600  203.0040 C.3    66  PRO66       0.1535
     44  C        185.1280  187.6420  202.7010 C.2    66  PRO66       0.2599
     45  O        184.6250  187.6170  201.5720 O.2    66  PRO66      -0.2715
     46  CB       185.8830  190.0280  202.9320 C.3    66  PRO66       0.0310
     47  CG       187.0500  190.7390  202.4010 C.3    66  PRO66       0.0237
     48  CD       187.6760  189.7930  201.4200 C.3    66  PRO66       0.0939
     49  N        184.7080  186.8750  203.7010 N.am   67  GLY67      -0.1941
     50  CA       183.4710  186.1150  203.6170 C.3    67  GLY67       0.2014
     51  C        183.6560  184.7340  203.0520 C.2    67  GLY67       0.2640
     52  O        182.8040  184.2500  202.3100 O.2    67  GLY67      -0.2714
     53  N        184.7630  184.0920  203.4060 N.am   68  THR68      -0.1936
     54  CA       185.0610  182.7540  202.9030 C.3    68  THR68       0.2028
     55  C        185.2350  181.7570  204.0330 C.2    68  THR68       0.2643
     56  O        185.5400  180.6010  203.7920 O.2    68  THR68      -0.2714
     57  CB       186.3280  182.7370  202.0250 C.3    68  THR68       0.1808
     58  OG1      187.4400  183.2080  202.7930 O.3    68  THR68      -0.2208
     59  CG2      186.1460  183.6110  200.7750 C.3    68  THR68       0.0379
     60  N        185.0450  182.2120  205.2640 N.am   69  GLY69      -0.1939
     61  CA       185.0700  181.3260  206.4250 C.3    69  GLY69       0.2014
     62  C        186.3730  181.2910  207.2080 C.2    69  GLY69       0.2639
     63  O        186.5650  180.4010  208.0340 O.2    69  GLY69      -0.2714
     64  N        187.2570  182.2580  206.9670 N.am   70  LYS70      -0.1963
     65  CA       188.5560  182.3060  207.6380 C.3    70  LYS70       0.1728
     66  C        188.4240  182.2830  209.1510 C.2    70  LYS70       0.2617
     67  O        189.0390  181.4500  209.8160 O.2    70  LYS70      -0.2715
     68  CB       189.3460  183.5430  207.2300 C.3    70  LYS70       0.0311
     69  CG       189.8950  183.5340  205.8240 C.3    70  LYS70       0.0038
     70  CD       190.4480  184.9030  205.5300 C.3    70  LYS70       0.0206
     71  CE       189.8750  185.4340  204.2550 C.3    70  LYS70       0.1093
     72  NZ       189.2320  186.7470  204.4930 N.3    70  LYS70      -0.1314
     73  N        187.6200  183.1940  209.6910 N.am   71  THR71      -0.1937
     74  CA       187.4500  183.3160  211.1380 C.3    71  THR71       0.2028
     75  C        186.7370  182.0940  211.7160 C.2    71  THR71       0.2642
     76  O        187.2330  181.4560  212.6440 O.2    71  THR71      -0.2714
     77  CB       186.7040  184.6110  211.5330 C.3    71  THR71       0.1808
     78  OG1      185.3370  184.5360  211.1020 O.3    71  THR71      -0.2208
     79  CG2      187.3750  185.8270  210.8980 C.3    71  THR71       0.0379
     80  N        185.5920  181.7490  211.1460 N.am   72  THR72      -0.1950
     81  CA       184.8220  180.6250  211.6620 C.3    72  THR72       0.1897
     82  C        185.5240  179.2590  211.5170 C.2    72  THR72       0.2313
     83  O        185.2430  178.3360  212.2830 O.2    72  THR72      -0.2863
     84  CB       183.3540  180.6200  211.1390 C.3    72  THR72       0.1794
     85  OG1      182.9320  179.2760  210.8730 O.3    72  THR72      -0.2208
     86  CG2      183.2130  181.4710  209.8730 C.3    72  THR72       0.0378
     87  N        195.2000  184.9050  216.3660 N.3   125  PHE125     -0.1241
     88  CA       194.7060  185.0440  215.0050 C.3   125  PHE125      0.1605
     89  C        194.8730  186.4640  214.4990 C.2   125  PHE125      0.2264
     90  O        194.0680  187.3400  214.8070 O.2   125  PHE125     -0.2867
     91  CB       193.2390  184.6260  214.9410 C.3   125  PHE125      0.0534
     92  CG       192.6250  184.7430  213.5750 C.ar  125  PHE125     -0.0203
     93  CD1      192.7740  183.7290  212.6460 C.ar  125  PHE125     -0.0042
     94  CD2      191.8670  185.8520  213.2330 C.ar  125  PHE125     -0.0042
     95  CE1      192.1940  183.8270  211.3920 C.ar  125  PHE125     -0.0003
     96  CE2      191.2870  185.9600  211.9840 C.ar  125  PHE125     -0.0003
     97  CZ       191.4490  184.9430  211.0610 C.ar  125  PHE125     -0.0000
     98  N        194.4450  188.9310  211.8450 N.3   127  ASP127     -0.1239
     99  CA       193.7200  189.2980  210.6350 C.3   127  ASP127      0.1674
    100  C        194.5150  190.3450  209.8520 C.2   127  ASP127      0.2266
    101  O        195.0710  191.2630  210.4430 O.2   127  ASP127     -0.2867
    102  CB       192.3410  189.8400  211.0210 C.3   127  ASP127      0.1410
    103  CG       191.5230  190.2840  209.8250 C.2   127  ASP127      0.3668
    104  OD1      191.5560  189.6130  208.7720 O.co2 127  ASP127     -0.2456
    105  OD2      190.8400  191.3220  209.9430 O.co2 127  ASP127     -0.2456
    106  N        174.9430  184.2060  202.3320 N.3   205  HIS205     -0.1227
    107  CA       175.5550  184.1550  203.6460 C.3   205  HIS205      0.1750
    108  C        175.3190  185.4470  204.4140 C.2   205  HIS205      0.2595
    109  O        174.9010  185.4050  205.5760 O.2   205  HIS205     -0.2718
    110  CB       177.0390  183.8350  203.5510 C.3   205  HIS205      0.0726
    111  CG       177.3180  182.4270  203.1340 C.2   205  HIS205      0.0628
    112  ND1      176.6200  181.3480  203.6380 N.pl3 205  HIS205     -0.2240
    113  CD2      178.2240  181.9180  202.2640 C.2   205  HIS205      0.0936
    114  CE1      177.0780  180.2370  203.0910 C.3   205  HIS205      0.1519
    115  NE2      178.0530  180.5540  202.2560 N.pl3 205  HIS205     -0.2188
    116  N        175.5530  186.5850  203.7590 N.am  206  MET206     -0.1979
    117  CA       175.2700  187.8900  204.3460 C.3   206  MET206      0.1605
    118  C        173.8590  187.9320  204.9200 C.2   206  MET206      0.2287
    119  O        173.6600  188.3600  206.0570 O.2   206  MET206     -0.2864
    120  CB       175.4600  189.0050  203.3250 C.3   206  MET206      0.0413
    121  CG       176.9040  189.2030  202.9060 C.3   206  MET206      0.0598
    122  SD       177.1460  190.6130  201.8130 S.3   206  MET206     -0.1393
    123  CE       178.9240  190.6590  201.7050 C.3   206  MET206      0.0692
    124  N        173.4930  185.7090  208.0860 N.3   209  ASP209     -0.1239
    125  CA       174.1100  186.3890  209.2220 C.3   209  ASP209      0.1674
    126  C        173.2330  187.4920  209.8160 C.2   209  ASP209      0.2266
    127  O        173.3630  187.8160  210.9910 O.2   209  ASP209     -0.2867
    128  CB       175.4840  186.9440  208.8230 C.3   209  ASP209      0.1410
    129  CG       176.4630  185.8440  208.4080 C.2   209  ASP209      0.3668
    130  OD1      176.0250  184.6790  208.2400 O.co2 209  ASP209     -0.2456
    131  OD2      177.6670  186.1460  208.2520 O.co2 209  ASP209     -0.2456
@<TRIPOS>BOND
     1    41    39   am
     2    40    39    2
     3    39    38    1
     4    38    35    1
     5    34    35    1
     6    33    31    1
     7    35    36    1
     8    59    57    1
     9    27    28    1
    10    27    30    1
    11    27    26    1
    12    28    29    2
    13    48    42    1
    14    48    47    1
    15    45    44    2
    16    31    30    1
    17    31    32    1
    18    36    42   am
    19    36    37    2
    20   123   122    1
    21   122   121    1
    22    42    43    1
    23    57    58    1
    24    57    54    1
    25   115   113    1
    26   115   114    1
    27   113   111    2
    28    52    51    2
    29   106   107    1
    30    47    46    1
    31    44    43    1
    32    44    49   am
    33    24   114    1
    34    24    22    1
    35    54    53    1
    36    54    55    1
    37   121   120    1
    38    46    43    1
    39    51    53   am
    40    51    50    1
    41   114   112    1
    42   114    22    1
    43   111   110    1
    44   111   112    1
    45   120   117    1
    46    21    20    2
    47   110   107    1
    48    50    49    1
    49   107   108    1
    50    20    19    1
    51   116   117    1
    52   116   108   am
    53    56    55    2
    54    55    60   am
    55    71    72    1
    56    71    70    1
    57    22    19    1
    58    22    23    1
    59   117   118    1
    60   108   109    2
    61    19    18    1
    62   118   119    2
    63    23    25    1
    64    60    61    1
    65    70    69    1
    66    69    68    1
    67    18    12   am
    68    13    12    2
    69    16    15    1
    70    61    62    1
    71    17    15    1
    72    12    11    1
    73    64    62   am
    74    64    65    1
    75    15    14    1
    76    62    63    2
    77    68    65    1
    78    14    11    1
    79    65    66    1
    80    11    10    1
    81   124   125    1
    82   130   129   ar
    83   131   129   ar
    84   129   128    1
    85   104   103   ar
    86   128   125    1
    87    10     3   am
    88    66    73   am
    89    66    67    2
    90   125   126    1
    91    73    74    1
    92   126   127    2
    93   103   105   ar
    94   103   102    1
    95   100   101    2
    96   100    99    1
    97    86    84    1
    98     3     4    2
    99     3     2    1
   100    99   102    1
   101    99    98    1
   102    85    84    1
   103     1     2    1
   104    79    77    1
   105    97    95   ar
   106    97    96   ar
   107    78    77    1
   108    74    77    1
   109    74    75    1
   110    84    81    1
   111    80    81    1
   112    80    75   am
   113     2     5    1
   114    95    93   ar
   115    82    81    1
   116    82    83    2
   117    75    76    2
   118    96    94   ar
   119     5     6    1
   120    93    92   ar
   121    94    92   ar
   122    92    91    1
   123     6     7    1
   124    89    90    2
   125    89    88    1
   126     7     8   ar
   127     7     9   ar
   128    91    88    1
   129    88    87    1
