@<TRIPOS>MOLECULE
tmp/3zuiA00.pdb
 208 195 0 0 0
SMALL
GASTEIGER

@<TRIPOS>ATOM
      1  N         -7.2070    5.1240  -10.7780 N.3    14  PHE14      -0.1241
      2  CA        -6.4420    5.5780   -9.6180 C.3    14  PHE14       0.1605
      3  C         -5.2690    6.4800  -10.0460 C.2    14  PHE14       0.2264
      4  O         -4.3370    6.6530   -9.2660 O.2    14  PHE14      -0.2867
      5  CB        -5.9280    4.3740   -8.8090 C.3    14  PHE14       0.0534
      6  CG        -6.9720    3.3760   -8.3570 C.ar   14  PHE14      -0.0203
      7  CD1       -8.2800    3.7730   -8.1040 C.ar   14  PHE14      -0.0042
      8  CD2       -6.6250    2.0600   -8.0860 C.ar   14  PHE14      -0.0042
      9  CE1       -9.2260    2.8610   -7.6500 C.ar   14  PHE14      -0.0003
     10  CE2       -7.5760    1.1520   -7.6180 C.ar   14  PHE14      -0.0003
     11  CZ        -8.8690    1.5620   -7.4050 C.ar   14  PHE14      -0.0000
     12  N         -2.0860    9.6000   -7.1430 N.3    19  GLU19      -0.1245
     13  CA        -3.0150   10.4370   -6.3910 C.3    19  GLU19       0.1567
     14  C         -3.7340    9.7110   -5.2700 C.2    19  GLU19       0.2260
     15  O         -3.8700    8.4900   -5.2960 O.2    19  GLU19      -0.2867
     16  CB        -4.1060   10.9460   -7.3500 C.3    19  GLU19       0.0388
     17  CG        -3.6170   11.8160   -8.4980 C.3    19  GLU19       0.1160
     18  CD        -3.0830   13.1750   -8.0950 C.2    19  GLU19       0.3649
     19  OE1       -3.3850   13.6330   -6.9700 O.co2  19  GLU19      -0.2457
     20  OE2       -2.3910   13.8000   -8.9280 O.co2  19  GLU19      -0.2457
     21  N         -7.5180    9.4180   -3.2840 N.3    21  TYR21      -0.1241
     22  CA        -8.9440    9.5920   -3.5720 C.3    21  TYR21       0.1605
     23  C         -9.7190    9.6050   -2.2670 C.2    21  TYR21       0.2264
     24  O         -9.3460    8.8920   -1.3360 O.2    21  TYR21      -0.2867
     25  CB        -9.4580    8.4810   -4.4980 C.3    21  TYR21       0.0534
     26  CG        -8.9990    8.6570   -5.9270 C.ar   21  TYR21      -0.0201
     27  CD1       -7.7050    8.3290   -6.3080 C.ar   21  TYR21      -0.0009
     28  CD2       -9.8340    9.2280   -6.8820 C.ar   21  TYR21      -0.0009
     29  CE1       -7.2590    8.5370   -7.6100 C.ar   21  TYR21       0.0417
     30  CE2       -9.4070    9.4240   -8.1930 C.ar   21  TYR21       0.0417
     31  CZ        -8.1130    9.0820   -8.5530 C.ar   21  TYR21       0.1957
     32  OH        -7.6510    9.2810   -9.8360 O.3    21  TYR21      -0.2866
     33  N        -16.8200    4.5290    6.5750 N.3    32  ARG32      -0.1245
     34  CA       -15.9660    5.1890    7.5590 C.3    32  ARG32       0.1563
     35  C        -15.8410    6.6850    7.3180 C.2    32  ARG32       0.2260
     36  O        -15.6570    7.1150    6.1830 O.2    32  ARG32      -0.2867
     37  CB       -14.5780    4.5300    7.6290 C.3    32  ARG32       0.0307
     38  CG       -14.6290    3.0850    8.1380 C.3    32  ARG32       0.0489
     39  CD       -13.4860    2.7500    9.0790 C.3    32  ARG32       0.2205
     40  NE       -13.5410    1.3560    9.5420 N.pl3  32  ARG32      -0.0865
     41  CZ       -14.0820    0.9190   10.6800 C.cat  32  ARG32       0.5346
     42  NH1      -14.6460    1.7710   11.5340 N.pl3  32  ARG32       0.1354
     43  NH2      -14.0600   -0.3760   10.9770 N.pl3  32  ARG32       0.1354
     44  N        -13.0580    8.8490    4.9900 N.3    35  LEU35      -0.1245
     45  CA       -12.2480    7.8320    4.3280 C.3    35  LEU35       0.1561
     46  C        -11.5100    8.3690    3.1090 C.2    35  LEU35       0.2260
     47  O        -12.0990    9.0280    2.2530 O.2    35  LEU35      -0.2867
     48  CB       -13.0640    6.5810    3.9710 C.3    35  LEU35       0.0270
     49  CG       -12.2650    5.3560    3.4990 C.3    35  LEU35       0.0019
     50  CD1      -11.3310    4.8410    4.5870 C.3    35  LEU35       0.0001
     51  CD2      -13.1970    4.2380    3.0680 C.3    35  LEU35       0.0001
     52  N         -7.9720    7.1200    0.4970 N.3    37  GLY37      -0.1225
     53  CA        -7.0190    6.0750    0.1300 C.3    37  GLY37       0.1811
     54  C         -5.8590    6.6850   -0.6430 C.2    37  GLY37       0.2280
     55  O         -6.0950    7.4630   -1.5620 O.2    37  GLY37      -0.2866
     56  N         -1.7670    5.6360   -2.3330 N.3    39  PRO39      -0.2116
     57  CA        -0.7540    4.6020   -2.5510 C.3    39  PRO39       0.1372
     58  C          0.3870    4.7370   -1.5430 C.2    39  PRO39       0.2244
     59  O          0.7760    5.8540   -1.2060 O.2    39  PRO39      -0.2868
     60  CB        -0.2880    4.8590   -3.9840 C.3    39  PRO39       0.0268
     61  CG        -1.4500    5.4620   -4.6330 C.3    39  PRO39       0.0207
     62  CD        -2.1780    6.2530   -3.6090 C.3    39  PRO39       0.0892
     63  N         -0.7270   -3.4280   -5.4520 N.3    48  LEU48      -0.1245
     64  CA        -0.4670   -2.0440   -5.0450 C.3    48  LEU48       0.1561
     65  C         -0.7510   -1.8800   -3.5370 C.2    48  LEU48       0.2260
     66  O         -1.8780   -2.1370   -3.1210 O.2    48  LEU48      -0.2867
     67  CB        -1.3840   -1.1020   -5.8550 C.3    48  LEU48       0.0270
     68  CG        -1.2370    0.4070   -5.6160 C.3    48  LEU48       0.0019
     69  CD1       -0.0010    0.9520   -6.2920 C.3    48  LEU48       0.0001
     70  CD2       -2.4560    1.1560   -6.1260 C.3    48  LEU48       0.0001
     71  N         -1.8290    0.1930   -0.3830 N.3    50  VAL50      -0.1245
     72  CA        -2.6220    1.4110   -0.2120 C.3    50  VAL50       0.1561
     73  C         -2.8750    1.6750    1.2710 C.2    50  VAL50       0.2260
     74  O         -3.3060    0.7730    1.9890 O.2    50  VAL50      -0.2867
     75  CB        -3.9580    1.2910   -0.9930 C.3    50  VAL50       0.0252
     76  CG1       -4.8560    2.5080   -0.7660 C.3    50  VAL50       0.0019
     77  CG2       -3.7000    1.0860   -2.4820 C.3    50  VAL50       0.0019
     78  N         -5.1930    3.4970    3.9090 N.3    52  MET52      -0.1245
     79  CA        -6.5130    4.0880    4.0740 C.3    52  MET52       0.1570
     80  C         -6.4800    4.9110    5.3550 C.2    52  MET52       0.2261
     81  O         -6.0780    4.3800    6.3860 O.2    52  MET52      -0.2867
     82  CB        -7.5950    2.9990    4.1840 C.3    52  MET52       0.0387
     83  CG        -7.6490    2.0490    2.9990 C.3    52  MET52       0.0595
     84  SD        -7.8760    2.8350    1.3850 S.3    52  MET52      -0.1393
     85  CE        -9.4000    3.6730    1.6290 C.3    52  MET52       0.0692
     86  N         -8.7840    7.6200    7.9310 N.3    54  PHE54      -0.1241
     87  CA       -10.1680    7.9320    8.2940 C.3    54  PHE54       0.1605
     88  C        -10.2320    8.3210    9.7650 C.2    54  PHE54       0.2264
     89  O         -9.2320    8.1810   10.4750 O.2    54  PHE54      -0.2867
     90  CB       -11.0580    6.6900    8.0600 C.3    54  PHE54       0.0534
     91  CG       -10.4950    5.4240    8.6550 C.ar   54  PHE54      -0.0203
     92  CD1      -10.7750    5.0690    9.9650 C.ar   54  PHE54      -0.0042
     93  CD2       -9.6430    4.6140    7.9210 C.ar   54  PHE54      -0.0042
     94  CE1      -10.2200    3.9220   10.5250 C.ar   54  PHE54      -0.0003
     95  CE2       -9.0930    3.4690    8.4790 C.ar   54  PHE54      -0.0003
     96  CZ        -9.3730    3.1340    9.7820 C.ar   54  PHE54      -0.0000
     97  N         -5.0430    2.2170    8.1850 N.3    63  THR63      -0.1218
     98  CA        -4.9280    0.7780    7.9480 C.3    63  THR63       0.1862
     99  C         -4.1920    0.5630    6.6280 C.2    63  THR63       0.2287
    100  O         -4.4210    1.2970    5.6660 O.2    63  THR63      -0.2866
    101  CB        -6.2930    0.0920    7.9760 C.3    63  THR63       0.1770
    102  OG1       -7.1690    0.7580    7.0650 O.3    63  THR63      -0.2211
    103  CG2       -6.8910    0.0540    9.3850 C.3    63  THR63       0.0375
    104  N         -3.6910   -1.6400    3.5060 N.3    65  TRP65      -0.1241
    105  CA        -4.3270   -2.6450    2.6530 C.3    65  TRP65       0.1605
    106  C         -3.4420   -3.0070    1.4610 C.2    65  TRP65       0.2264
    107  O         -2.5600   -2.2380    1.0760 O.2    65  TRP65      -0.2867
    108  CB        -5.6810   -2.1290    2.1380 C.3    65  TRP65       0.0550
    109  CG        -6.7400   -2.0120    3.1920 C.ar   65  TRP65       0.0003
    110  CD1       -6.8310   -1.0620    4.1650 C.ar   65  TRP65       0.0946
    111  CD2       -7.9130   -2.8230    3.3140 C.ar   65  TRP65       0.0152
    112  NE1       -7.9700   -1.2550    4.9100 N.ar   65  TRP65      -0.2442
    113  CE2       -8.6450   -2.3400    4.4180 C.ar   65  TRP65       0.0810
    114  CE3       -8.3830   -3.9560    2.6390 C.ar   65  TRP65       0.0012
    115  CZ2       -9.8370   -2.9350    4.8420 C.ar   65  TRP65       0.0191
    116  CZ3       -9.5650   -4.5420    3.0540 C.ar   65  TRP65       0.0001
    117  CH2      -10.2820   -4.0310    4.1410 C.ar   65  TRP65       0.0015
    118  N         -3.9280   -4.0400   -2.5040 N.3    67  PHE67      -0.1241
    119  CA        -4.8790   -4.0310   -3.6190 C.3    67  PHE67       0.1605
    120  C         -4.3250   -4.8850   -4.7520 C.2    67  PHE67       0.2264
    121  O         -3.1890   -4.6620   -5.1600 O.2    67  PHE67      -0.2867
    122  CB        -5.0930   -2.5980   -4.1600 C.3    67  PHE67       0.0534
    123  CG        -6.0160   -1.6600   -3.4120 C.ar   67  PHE67      -0.0203
    124  CD1       -6.1890   -1.7680   -2.0360 C.ar   67  PHE67      -0.0042
    125  CD2       -6.6500   -0.6180   -4.0720 C.ar   67  PHE67      -0.0042
    126  CE1       -7.0230   -0.8840   -1.3510 C.ar   67  PHE67      -0.0003
    127  CE2       -7.4750    0.2700   -3.3810 C.ar   67  PHE67      -0.0003
    128  CZ        -7.6600    0.1270   -2.0280 C.ar   67  PHE67      -0.0000
    129  N        -10.9290   -4.8410   -8.4630 N.3    74  VAL74      -0.1245
    130  CA        -9.9820   -4.5780   -7.3800 C.3    74  VAL74       0.1561
    131  C        -10.3290   -5.4990   -6.2100 C.2    74  VAL74       0.2260
    132  O        -11.4790   -5.5050   -5.7720 O.2    74  VAL74      -0.2867
    133  CB       -10.0440   -3.0940   -6.9300 C.3    74  VAL74       0.0252
    134  CG1       -9.0180   -2.8000   -5.8300 C.3    74  VAL74       0.0019
    135  CG2       -9.8550   -2.1550   -8.1160 C.3    74  VAL74       0.0019
    136  N         -9.2110   -5.9510   -2.4030 N.3    76  ALA76      -0.1245
    137  CA        -8.4840   -5.3160   -1.3030 C.3    76  ALA76       0.1562
    138  C         -8.4260   -6.2720   -0.1120 C.2    76  ALA76       0.2260
    139  O         -9.4640   -6.8010    0.2760 O.2    76  ALA76      -0.2867
    140  CB        -9.1850   -4.0300   -0.8980 C.3    76  ALA76       0.0290
    141  N         -6.7970   -7.0370    4.0190 N.3    78  LEU78      -0.1245
    142  CA        -6.2210   -6.5680    5.2830 C.3    78  LEU78       0.1561
    143  C         -6.4500   -7.6900    6.2920 C.2    78  LEU78       0.2260
    144  O         -7.6010   -7.9520    6.6380 O.2    78  LEU78      -0.2867
    145  CB        -6.9160   -5.2750    5.7450 C.3    78  LEU78       0.0270
    146  CG        -6.5630   -4.7560    7.1540 C.3    78  LEU78       0.0019
    147  CD1       -5.2190   -4.0680    7.1550 C.3    78  LEU78       0.0001
    148  CD2       -7.6220   -3.7970    7.6660 C.3    78  LEU78       0.0001
    149  N         -9.6300  -10.0140    6.3060 N.3    81  LEU81      -0.1245
    150  CA       -10.6980   -9.3300    5.5700 C.3    81  LEU81       0.1561
    151  C        -10.3630   -9.2690    4.0800 C.2    81  LEU81       0.2260
    152  O         -9.2170   -9.0040    3.7220 O.2    81  LEU81      -0.2867
    153  CB       -10.9170   -7.8910    6.1030 C.3    81  LEU81       0.0270
    154  CG       -12.2660   -7.6160    6.7650 C.3    81  LEU81       0.0019
    155  CD1      -12.2530   -8.0430    8.2170 C.3    81  LEU81       0.0001
    156  CD2      -12.6260   -6.1450    6.6690 C.3    81  LEU81       0.0001
    157  N        -12.2570   -7.5870    0.4560 N.3    83  GLN83      -0.1245
    158  CA       -13.3300   -6.7930   -0.1400 C.3    83  GLN83       0.1566
    159  C        -13.1310   -6.7920   -1.6490 C.2    83  GLN83       0.2260
    160  O        -12.0540   -6.4260   -2.1190 O.2    83  GLN83      -0.2867
    161  CB       -13.3230   -5.3530    0.3960 C.3    83  GLN83       0.0367
    162  CG       -13.8110   -5.2240    1.8390 C.3    83  GLN83       0.0905
    163  CD       -13.9060   -3.7890    2.3150 C.2    83  GLN83       0.2608
    164  OE1      -13.9340   -2.8370    1.5260 O.2    83  GLN83      -0.2717
    165  NE2      -14.0080   -3.6020    3.6240 N.am   83  GLN83      -0.0878
    166  N        -14.2670   -5.3080   -5.3020 N.3    85  ARG85      -0.1245
    167  CA       -14.8780   -4.1470   -5.9440 C.3    85  ARG85       0.1563
    168  C        -14.6850   -4.1930   -7.4460 C.2    85  ARG85       0.2260
    169  O        -13.7600   -4.8340   -7.9410 O.2    85  ARG85      -0.2867
    170  CB       -14.2190   -2.8470   -5.4430 C.3    85  ARG85       0.0307
    171  CG       -14.8400   -2.2510   -4.1970 C.3    85  ARG85       0.0489
    172  CD       -14.0380   -1.0410   -3.7350 C.3    85  ARG85       0.2205
    173  NE       -14.5250   -0.4740   -2.4760 N.pl3  85  ARG85      -0.0865
    174  CZ       -14.3150   -0.9900   -1.2650 C.cat  85  ARG85       0.5346
    175  NH1      -13.6260   -2.1190   -1.1220 N.pl3  85  ARG85       0.1354
    176  NH2      -14.8010   -0.3880   -0.1870 N.pl3  85  ARG85       0.1354
    177  N        -14.4640    8.4000   -9.7400 N.3    97  HIS97      -0.1241
    178  CA       -14.9510    7.1090  -10.1950 C.3    97  HIS97       0.1621
    179  C        -16.0320    6.5660   -9.2750 C.2    97  HIS97       0.2264
    180  O        -16.1700    7.0230   -8.1400 O.2    97  HIS97      -0.2867
    181  CB       -13.7970    6.1090  -10.3790 C.3    97  HIS97       0.0745
    182  CG       -12.9390    5.8900   -9.1730 C.ar   97  HIS97       0.0817
    183  ND1      -11.7580    6.5800   -8.9940 N.ar   97  HIS97      -0.2268
    184  CD2      -13.1120    5.0480   -8.1310 C.ar   97  HIS97       0.1154
    185  CE1      -11.2390    6.1250   -7.8640 C.ar   97  HIS97       0.1986
    186  NE2      -12.0140    5.1930   -7.3160 N.ar   97  HIS97      -0.2212
    187  N        -17.6410    2.9400   -7.7870 N.3    99  ASP99      -0.1239
    188  CA       -17.3520    1.5260   -7.5540 C.3    99  ASP99       0.1674
    189  C        -18.5820    0.7540   -7.1260 C.2    99  ASP99       0.2266
    190  O        -19.4260    1.2900   -6.4130 O.2    99  ASP99      -0.2867
    191  CB       -16.3170    1.3690   -6.4320 C.3    99  ASP99       0.1410
    192  CG       -14.9560    1.9470   -6.7230 C.2    99  ASP99       0.3668
    193  OD1      -14.6830    2.2530   -7.8960 O.co2  99  ASP99      -0.2456
    194  OD2      -14.1520    2.0560   -5.7820 O.co2  99  ASP99      -0.2456
    195  N        -15.8840    8.0870   -5.4550 N.3   111  TRP111     -0.1241
    196  CA       -14.5650    8.5060   -5.0090 C.3   111  TRP111      0.1605
    197  C        -14.0770    9.6220   -5.9180 C.2   111  TRP111      0.2264
    198  O        -14.3180    9.5640   -7.1210 O.2   111  TRP111     -0.2867
    199  CB       -13.5860    7.3350   -5.0910 C.3   111  TRP111      0.0550
    200  CG       -13.8570    6.2280   -4.1210 C.ar  111  TRP111      0.0003
    201  CD1      -14.6820    5.1600   -4.3090 C.ar  111  TRP111      0.0946
    202  CD2      -13.2120    6.0210   -2.8590 C.ar  111  TRP111      0.0152
    203  NE1      -14.6280    4.3230   -3.2210 N.ar  111  TRP111     -0.2442
    204  CE2      -13.7200    4.8190   -2.3220 C.ar  111  TRP111      0.0810
    205  CE3      -12.2390    6.7270   -2.1340 C.ar  111  TRP111      0.0012
    206  CZ2      -13.3230    4.3320   -1.0760 C.ar  111  TRP111      0.0191
    207  CZ3      -11.8320    6.2330   -0.9060 C.ar  111  TRP111      0.0001
    208  CH2      -12.3750    5.0520   -0.3870 C.ar  111  TRP111      0.0015
@<TRIPOS>BOND
     1     1     2    1
     2   181   178    1
     3   181   182    1
     4   178   177    1
     5   178   179    1
     6     3     2    1
     7     3     4    2
     8    32    31    1
     9     2     5    1
    10   179   180    2
    11   182   183   ar
    12   182   184   ar
    13   183   185   ar
    14    20    18   ar
    15     5     6    1
    16    31    30   ar
    17    31    29   ar
    18    17    18    1
    19    17    16    1
    20   129   130    1
    21     6     7   ar
    22     6     8   ar
    23    30    28   ar
    24   184   186   ar
    25   135   133    1
    26     7     9   ar
    27    18    19   ar
    28     8    10   ar
    29   169   168    2
    30   193   192   ar
    31   185   186   ar
    32   187   188    1
    33     9    11   ar
    34    10    11   ar
    35    29    27   ar
    36   188   189    1
    37   188   191    1
    38   168   167    1
    39   130   133    1
    40   130   131    1
    41    16    13    1
    42    12    13    1
    43   189   190    2
    44   198   197    2
    45   133   134    1
    46    28    26   ar
    47   192   191    1
    48   192   194   ar
    49    13    14    1
    50    27    26   ar
    51    69    68    1
    52   131   132    2
    53    70    68    1
    54   167   170    1
    55   167   166    1
    56    26    25    1
    57   197   196    1
    58    67    68    1
    59    67    64    1
    60   195   196    1
    61    63    64    1
    62   170   171    1
    63    15    14    2
    64   121   120    2
    65   199   196    1
    66   199   200    1
    67    64    65    1
    68   120   119    1
    69    61    60    1
    70    61    62    1
    71    25    22    1
    72   201   200   ar
    73   201   203   ar
    74   171   172    1
    75   122   119    1
    76   122   123    1
    77   200   202   ar
    78   125   123   ar
    79   125   127   ar
    80    60    57    1
    81   172   173    1
    82   119   118    1
    83    62    56    1
    84    22    21    1
    85    22    23    1
    86    65    66    2
    87   123   124   ar
    88   127   128   ar
    89   203   204   ar
    90   202   204   ar
    91   202   205   ar
    92    57    56    1
    93    57    58    1
    94    77    75    1
    95   173   174    2
    96   136   137    1
    97   204   206   ar
    98    23    24    2
    99   205   207   ar
   100   160   159    2
   101   124   126   ar
   102   128   126   ar
   103   159   158    1
   104    55    54    2
   105    58    59    2
   106   137   140    1
   107   137   138    1
   108   174   175    1
   109   174   176    1
   110   206   208   ar
   111    75    76    1
   112    75    72    1
   113   207   208   ar
   114    54    53    1
   115    71    72    1
   116    72    73    1
   117   158   161    1
   118   158   157    1
   119   138   139    2
   120    53    52    1
   121   161   162    1
   122   107   106    2
   123    73    74    2
   124    84    85    1
   125    84    83    1
   126   106   105    1
   127   164   163    2
   128   162   163    1
   129   108   105    1
   130   108   109    1
   131    47    46    2
   132   163   165   am
   133   114   116   ar
   134   114   111   ar
   135   105   104    1
   136    83    82    1
   137   116   117   ar
   138    51    49    1
   139    46    45    1
   140   109   111   ar
   141   109   110   ar
   142   111   113   ar
   143    49    48    1
   144    49    50    1
   145   152   151    2
   146    78    79    1
   147    48    45    1
   148   141   142    1
   149    79    82    1
   150    79    80    1
   151   151   150    1
   152   117   115   ar
   153   110   112   ar
   154    45    44    1
   155   113   115   ar
   156   113   112   ar
   157   142   145    1
   158   142   143    1
   159    80    81    2
   160   150   153    1
   161   150   149    1
   162   100    99    2
   163   145   146    1
   164   153   154    1
   165    36    35    2
   166   143   144    2
   167    33    34    1
   168    99    98    1
   169   156   154    1
   170   154   155    1
   171   102   101    1
   172   146   147    1
   173   146   148    1
   174    35    34    1
   175    34    37    1
   176    37    38    1
   177    93    95   ar
   178    93    91   ar
   179    86    87    1
   180    98   101    1
   181    98    97    1
   182   101   103    1
   183    90    87    1
   184    90    91    1
   185    38    39    1
   186    87    88    1
   187    95    96   ar
   188    91    92   ar
   189    39    40    1
   190    40    41    2
   191    88    89    2
   192    96    94   ar
   193    92    94   ar
   194    41    43    1
   195    41    42    1
