@<TRIPOS>MOLECULE
tmp/3zukA01.pdb
 82 79 0 0 0
SMALL
GASTEIGER

@<TRIPOS>ATOM
      1  N         71.8340   76.0050   20.3550 N.3   534  PRO534     -0.2116
      2  CA        70.6680   76.9060   20.3880 C.3   534  PRO534      0.1372
      3  C         70.9120   78.1100   21.3320 C.2   534  PRO534      0.2244
      4  O         71.4030   77.9340   22.4630 O.2   534  PRO534     -0.2868
      5  CB        69.5640   76.0010   20.9080 C.3   534  PRO534      0.0268
      6  CG        69.9540   74.6400   20.3900 C.3   534  PRO534      0.0207
      7  CD        71.4580   74.5810   20.4530 C.3   534  PRO534      0.0892
      8  N         59.8020   79.9830   15.1620 N.3   600  THR600     -0.1218
      9  CA        59.4190   78.9850   16.1460 C.3   600  THR600      0.1862
     10  C         60.3220   79.0930   17.3800 C.2   600  THR600      0.2287
     11  O         61.4960   79.4030   17.2820 O.2   600  THR600     -0.2866
     12  CB        59.4370   77.5570   15.5170 C.3   600  THR600      0.1770
     13  OG1       58.2710   77.3760   14.7070 O.3   600  THR600     -0.2211
     14  CG2       59.4430   76.4310   16.5610 C.3   600  THR600      0.0375
     15  N         61.0370   77.1450   21.4810 N.3   602  SER602     -0.1217
     16  CA        60.6810   76.0740   22.4230 C.3   602  SER602      0.1889
     17  C         61.1880   76.2740   23.8530 C.2   602  SER602      0.2288
     18  O         62.1590   77.0300   24.0850 O.2   602  SER602     -0.2866
     19  CB        61.1660   74.7470   21.8580 C.3   602  SER602      0.2089
     20  OG        60.1850   74.2720   20.9220 O.3   602  SER602     -0.2183
     21  N         63.5260   71.6860   23.8190 N.3   607  ALA607     -0.1245
     22  CA        64.6470   71.9080   22.9160 C.3   607  ALA607      0.1562
     23  C         65.7270   70.8130   23.0930 C.2   607  ALA607      0.2260
     24  O         66.3360   70.3390   22.1180 O.2   607  ALA607     -0.2867
     25  CB        65.2190   73.3150   23.0900 C.3   607  ALA607      0.0290
     26  N         64.4040   67.6680   21.6040 N.3   610  ARG610     -0.1231
     27  CA        64.6130   67.7500   20.1490 C.3   610  ARG610      0.1694
     28  C         66.0850   67.5230   19.6810 C.2   610  ARG610      0.2591
     29  O         66.2920   66.8380   18.6830 O.2   610  ARG610     -0.2718
     30  CB        63.9630   68.9860   19.5600 C.3   610  ARG610      0.0321
     31  CG        62.4500   68.8310   19.4170 C.3   610  ARG610      0.0489
     32  CD        61.8430   70.1060   18.9470 C.3   610  ARG610      0.2205
     33  NE        60.3790   70.1510   18.9780 N.pl3 610  ARG610     -0.0865
     34  CZ        59.5780   69.9430   17.9290 C.cat 610  ARG610      0.5346
     35  NH1       60.0640   69.6110   16.7320 N.pl3 610  ARG610      0.1354
     36  NH2       58.2760   70.0470   18.0820 N.pl3 610  ARG610      0.1354
     37  N         67.0810   68.0610   20.4150 N.am  611  LEU611     -0.1980
     38  CA        68.4950   67.9100   20.0460 C.3   611  LEU611      0.1596
     39  C         68.8110   66.4160   20.0090 C.2   611  LEU611      0.2287
     40  O         69.6570   65.9560   19.2090 O.2   611  LEU611     -0.2864
     41  CB        69.4070   68.6260   21.0380 C.3   611  LEU611      0.0297
     42  CG        69.5010   70.1680   21.0000 C.3   611  LEU611      0.0022
     43  CD1       70.4680   70.6570   22.0880 C.3   611  LEU611      0.0001
     44  CD2       69.9280   70.7730   19.6650 C.3   611  LEU611      0.0001
     45  N         65.1520   64.6790   17.1010 N.3   614  ASP614     -0.1239
     46  CA        64.5370   65.3670   15.9630 C.3   614  ASP614      0.1674
     47  C         65.5950   65.6020   14.8920 C.2   614  ASP614      0.2266
     48  O         66.4820   66.4530   15.0670 O.2   614  ASP614     -0.2867
     49  CB        63.9440   66.6940   16.3990 C.3   614  ASP614      0.1410
     50  CG        63.2070   67.4240   15.2590 C.2   614  ASP614      0.3668
     51  OD1       63.1830   66.9570   14.0830 O.co2 614  ASP614     -0.2456
     52  OD2       62.6200   68.4820   15.5510 O.co2 614  ASP614     -0.2456
     53  N         65.4800   67.1440   12.3430 N.3   616  HIS616     -0.1226
     54  CA        65.5240   68.5410   11.8820 C.3   616  HIS616      0.1752
     55  C         66.4410   69.3870   12.7520 C.2   616  HIS616      0.2597
     56  O         66.5200   69.1870   13.9460 O.2   616  HIS616     -0.2718
     57  CB        64.1030   69.1320   11.7340 C.3   616  HIS616      0.0759
     58  CG        63.2050   68.2570   10.9180 C.ar  616  HIS616      0.0818
     59  ND1       62.4060   67.2820   11.4830 N.ar  616  HIS616     -0.2268
     60  CD2       63.0900   68.1070    9.5790 C.ar  616  HIS616      0.1154
     61  CE1       61.7940   66.6120   10.5250 C.ar  616  HIS616      0.1986
     62  NE2       62.1900   67.0940    9.3630 N.ar  616  HIS616     -0.2212
     63  N         67.1710   70.3160   12.1540 N.am  617  SER617     -0.1938
     64  CA        67.9460   71.2640   12.9340 C.3   617  SER617      0.2040
     65  C         67.0030   72.2140   13.7330 C.2   617  SER617      0.2485
     66  O         65.8240   72.3940   13.3540 O.2   617  SER617     -0.2729
     67  CB        68.8510   72.0640   12.0000 C.3   617  SER617      0.2129
     68  OG        70.0740   71.3700   11.7550 O.3   617  SER617     -0.2179
     69  N         67.4980   72.8150   14.8460 N.am  618  PRO618     -0.2715
     70  CA        66.6460   73.8500   15.4490 C.3   618  PRO618      0.1521
     71  C         66.3890   74.9420   14.4020 C.2   618  PRO618      0.2440
     72  O         67.2690   75.2060   13.5790 O.2   618  PRO618     -0.2731
     73  CB        67.4850   74.3820   16.6130 C.3   618  PRO618      0.0310
     74  CG        68.4610   73.2960   16.9220 C.3   618  PRO618      0.0237
     75  CD        68.6860   72.5150   15.6650 C.3   618  PRO618      0.0939
     76  N         65.1860   75.5600   14.4310 N.am  619  PRO619     -0.2727
     77  CA        64.7210   76.5720   13.4710 C.3   619  PRO619      0.1402
     78  C         65.7070   77.6900   13.2180 C.2   619  PRO619      0.2269
     79  O         65.8340   78.1270   12.0690 O.2   619  PRO619     -0.2865
     80  CB        63.4560   77.1200   14.1200 C.3   619  PRO619      0.0296
     81  CG        63.4520   76.5470   15.5130 C.3   619  PRO619      0.0237
     82  CD        64.1650   75.2860   15.4580 C.3   619  PRO619      0.0939
@<TRIPOS>BOND
     1    62    60   ar
     2    62    61   ar
     3    60    58   ar
     4    61    59   ar
     5    58    59   ar
     6    58    57    1
     7    57    54    1
     8    68    67    1
     9    54    53    1
    10    54    55    1
    11    67    64    1
    12    79    78    2
    13    63    55   am
    14    63    64    1
    15    55    56    2
    16    64    65    1
    17    78    77    1
    18    66    65    2
    19    77    80    1
    20    77    76    1
    21    72    71    2
    22    65    69   am
    23    51    50   ar
    24    80    81    1
    25    71    76   am
    26    71    70    1
    27    76    82    1
    28    13    12    1
    29    69    70    1
    30    69    75    1
    31    47    48    2
    32    47    46    1
    33     8     9    1
    34    50    52   ar
    35    50    49    1
    36    70    73    1
    37    82    81    1
    38    12     9    1
    39    12    14    1
    40    75    74    1
    41    46    49    1
    42    46    45    1
    43     9    10    1
    44    73    74    1
    45    35    34    1
    46    11    10    2
    47    34    36    1
    48    34    33    2
    49    29    28    2
    50    32    33    1
    51    32    31    1
    52    40    39    2
    53    31    30    1
    54    30    27    1
    55    44    42    1
    56    28    27    1
    57    28    37   am
    58    39    38    1
    59    38    37    1
    60    38    41    1
    61    27    26    1
    62     1     2    1
    63     1     7    1
    64     2     5    1
    65     2     3    1
    66     6     7    1
    67     6     5    1
    68    20    19    1
    69    42    41    1
    70    42    43    1
    71     3     4    2
    72    15    16    1
    73    19    16    1
    74    24    23    2
    75    16    17    1
    76    22    25    1
    77    22    23    1
    78    22    21    1
    79    17    18    2
