@<TRIPOS>MOLECULE
tmp/3zukB08.pdb
 90 85 0 0 0
SMALL
GASTEIGER

@<TRIPOS>ATOM
      1  N         73.5150  103.8500   35.0390 N.3     8  LEU8       -0.1245
      2  CA        72.2990  103.1620   34.5960 C.3     8  LEU8        0.1561
      3  C         71.9010  103.5640   33.1720 C.2     8  LEU8        0.2260
      4  O         70.9040  103.1100   32.6120 O.2     8  LEU8       -0.2867
      5  CB        71.1460  103.4020   35.5670 C.3     8  LEU8        0.0270
      6  CG        71.2140  102.9880   37.0450 C.3     8  LEU8        0.0019
      7  CD1       69.8680  103.3230   37.6960 C.3     8  LEU8        0.0001
      8  CD2       71.5270  101.5010   37.2770 C.3     8  LEU8        0.0001
      9  N         72.0090  100.4810   30.5270 N.3    11  ILE11      -0.1245
     10  CA        71.2120   99.2980   30.7470 C.3    11  ILE11       0.1561
     11  C         70.4740   98.8550   29.4850 C.2    11  ILE11       0.2260
     12  O         69.9520   99.6900   28.7400 O.2    11  ILE11      -0.2867
     13  CB        70.1550   99.5900   31.8380 C.3    11  ILE11       0.0252
     14  CG1       70.8280   99.9150   33.1720 C.3    11  ILE11       0.0019
     15  CG2       69.1690   98.4310   31.9710 C.3    11  ILE11       0.0019
     16  CD1       71.4450   98.7070   33.8770 C.3    11  ILE11       0.0001
     17  N         67.2690   97.0280   29.1220 N.3    13  ALA13      -0.1245
     18  CA        66.1270   96.6080   29.8960 C.3    13  ALA13       0.1562
     19  C         65.5050   95.3020   29.3990 C.2    13  ALA13       0.2260
     20  O         64.8630   94.5860   30.1630 O.2    13  ALA13      -0.2867
     21  CB        65.1170   97.7170   29.9120 C.3    13  ALA13       0.0290
     22  N         67.2840   92.6610   28.3170 N.3    15  ALA15      -0.1231
     23  CA        68.1560   91.5400   28.7420 C.3    15  ALA15       0.1694
     24  C         68.0170   91.2930   30.2530 C.2    15  ALA15       0.2592
     25  O         68.3760   92.1570   31.0670 O.2    15  ALA15      -0.2718
     26  CB        69.5900   91.8150   28.3820 C.3    15  ALA15       0.0304
     27  N         67.4660   90.1450   30.6370 N.am   16  ARG16      -0.1966
     28  CA        67.2000   89.9040   32.0630 C.3    16  ARG16       0.1714
     29  C         68.5070   89.5720   32.7640 C.2    16  ARG16       0.2458
     30  O         69.2670   88.7230   32.2840 O.2    16  ARG16      -0.2730
     31  CB        66.1560   88.7930   32.2770 C.3    16  ARG16       0.0347
     32  CG        64.7620   89.1040   31.6860 C.3    16  ARG16       0.0492
     33  CD        63.8870   87.8810   31.6340 C.3    16  ARG16       0.2205
     34  NE        63.5930   87.3890   32.9620 N.pl3  16  ARG16      -0.0865
     35  CZ        64.0530   86.2530   33.4750 C.cat  16  ARG16       0.5346
     36  NH1       64.8450   85.4600   32.7540 N.pl3  16  ARG16       0.1354
     37  NH2       63.7200   85.9180   34.7260 N.pl3  16  ARG16       0.1354
     38  N         68.7840   90.2370   33.9010 N.am   17  PRO17      -0.2716
     39  CA        70.0280   89.9600   34.6270 C.3    17  PRO17       0.1536
     40  C         70.1710   88.4990   35.0900 C.2    17  PRO17       0.2598
     41  O         71.2890   88.0740   35.3160 O.2    17  PRO17      -0.2715
     42  CB        69.9730   90.9310   35.8310 C.3    17  PRO17       0.0310
     43  CG        68.5660   91.2060   36.0440 C.3    17  PRO17       0.0237
     44  CD        67.9070   91.1410   34.6600 C.3    17  PRO17       0.0939
     45  N         69.0630   87.7670   35.2170 N.am   18  GLN18      -0.1978
     46  CA        69.0530   86.3480   35.5130 C.3    18  GLN18       0.1601
     47  C         69.5330   85.4980   34.3290 C.2    18  GLN18       0.2287
     48  O         69.9310   84.3260   34.4970 O.2    18  GLN18      -0.2864
     49  CB        67.6370   85.8830   35.8910 C.3    18  GLN18       0.0394
     50  CG        67.0050   86.5250   37.1230 C.3    18  GLN18       0.0908
     51  CD        66.4030   87.9360   36.8900 C.2    18  GLN18       0.2608
     52  OE1       66.2270   88.4060   35.7530 O.2    18  GLN18      -0.2717
     53  NE2       66.0650   88.6010   37.9900 N.am   18  GLN18      -0.0878
     54  N         72.6500   92.9430   30.6670 N.3    24  HIS24      -0.1241
     55  CA        71.6970   93.8350   31.3270 C.3    24  HIS24       0.1621
     56  C         72.3300   95.1790   31.7350 C.2    24  HIS24       0.2264
     57  O         71.7680   96.2490   31.4610 O.2    24  HIS24      -0.2867
     58  CB        71.0290   93.1670   32.5420 C.3    24  HIS24       0.0745
     59  CG        70.1230   94.1000   33.2830 C.ar   24  HIS24       0.0817
     60  ND1       68.8350   94.3680   32.8710 N.ar   24  HIS24      -0.2268
     61  CD2       70.3480   94.9010   34.3510 C.ar   24  HIS24       0.1154
     62  CE1       68.2940   95.2600   33.6790 C.ar   24  HIS24       0.1986
     63  NE2       69.1850   95.5900   34.5960 N.ar   24  HIS24      -0.2212
     64  N         68.2520  104.1860   43.7440 N.3   582  ASP582     -0.1239
     65  CA        67.8190  103.9630   42.3230 C.3   582  ASP582      0.1674
     66  C         67.0580  102.6220   42.0550 C.2   582  ASP582      0.2266
     67  O         67.2680  101.9570   41.0320 O.2   582  ASP582     -0.2867
     68  CB        68.9880  104.0890   41.3350 C.3   582  ASP582      0.1410
     69  CG        69.6860  105.4410   41.4130 C.2   582  ASP582      0.3668
     70  OD1       69.0140  106.4950   41.5040 O.co2 582  ASP582     -0.2456
     71  OD2       70.9390  105.4580   41.3830 O.co2 582  ASP582     -0.2456
     72  N         67.4720   99.8190   43.4770 N.3   584  LEU584     -0.1245
     73  CA        68.3860   98.7090   43.6100 C.3   584  LEU584      0.1561
     74  C         68.7660   98.4990   45.0700 C.2   584  LEU584      0.2260
     75  O         68.9740   99.4290   45.8570 O.2   584  LEU584     -0.2867
     76  CB        69.6490   98.9450   42.7770 C.3   584  LEU584      0.0270
     77  CG        69.5940   98.8890   41.2430 C.3   584  LEU584      0.0019
     78  CD1       70.9020   99.3730   40.6910 C.3   584  LEU584      0.0001
     79  CD2       69.2710   97.4860   40.6950 C.3   584  LEU584      0.0001
     80  N         76.1190   95.1090   40.3380 N.3   592  PHE592     -0.1241
     81  CA        76.1000   95.9820   39.1640 C.3   592  PHE592      0.1605
     82  C         77.4500   96.6820   38.9960 C.2   592  PHE592      0.2264
     83  O         77.9350   96.8370   37.8530 O.2   592  PHE592     -0.2867
     84  CB        74.9750   96.9990   39.2520 C.3   592  PHE592      0.0534
     85  CG        73.6610   96.4970   38.7450 C.ar  592  PHE592     -0.0203
     86  CD1       73.2730   95.1830   38.9220 C.ar  592  PHE592     -0.0042
     87  CD2       72.8100   97.3410   38.0990 C.ar  592  PHE592     -0.0042
     88  CE1       72.0250   94.7120   38.4210 C.ar  592  PHE592     -0.0003
     89  CE2       71.5710   96.8960   37.6190 C.ar  592  PHE592     -0.0003
     90  CZ        71.1830   95.5690   37.7810 C.ar  592  PHE592     -0.0000
@<TRIPOS>BOND
     1    22    23    1
     2    26    23    1
     3    12    11    2
     4    23    24    1
     5    17    18    1
     6    19    18    1
     7    19    20    2
     8    11    10    1
     9    18    21    1
    10    24    27   am
    11    24    25    2
    12     9    10    1
    13    27    28    1
    14    54    55    1
    15    10    13    1
    16    55    56    1
    17    55    58    1
    18    57    56    2
    19    33    32    1
    20    33    34    1
    21    32    31    1
    22    13    15    1
    23    13    14    1
    24    28    31    1
    25    28    29    1
    26    30    29    2
    27    58    59    1
    28     4     3    2
    29    36    35    1
    30    29    38   am
    31    60    59   ar
    32    60    62   ar
    33    34    35    2
    34    14    16    1
    35     3     2    1
    36    59    61   ar
    37    35    37    1
    38    62    63   ar
    39    38    39    1
    40    38    44    1
    41    47    48    2
    42    47    46    1
    43    61    63   ar
    44     2     1    1
    45     2     5    1
    46    39    40    1
    47    39    42    1
    48    44    43    1
    49    40    45   am
    50    40    41    2
    51    45    46    1
    52    46    49    1
    53     5     6    1
    54    52    51    2
    55    42    43    1
    56    49    50    1
    57    51    50    1
    58    51    53   am
    59     6     8    1
    60     6     7    1
    61    89    90   ar
    62    89    87   ar
    63    90    88   ar
    64    83    82    2
    65    87    85   ar
    66    88    86   ar
    67    85    86   ar
    68    85    84    1
    69    82    81    1
    70    81    84    1
    71    81    80    1
    72    78    77    1
    73    79    77    1
    74    67    66    2
    75    77    76    1
    76    68    69    1
    77    68    65    1
    78    71    69   ar
    79    69    70   ar
    80    66    65    1
    81    65    64    1
    82    76    73    1
    83    72    73    1
    84    73    74    1
    85    74    75    2
