@<TRIPOS>MOLECULE
tmp/3zukB05.pdb
 95 90 0 0 0
SMALL
GASTEIGER

@<TRIPOS>ATOM
      1  N        103.2940   77.3200   35.7400 N.3   218  ASP218     -0.1239
      2  CA       103.4220   76.5350   36.9470 C.3   218  ASP218      0.1674
      3  C        104.7020   76.9070   37.7280 C.2   218  ASP218      0.2266
      4  O        105.8220   76.6420   37.2940 O.2   218  ASP218     -0.2867
      5  CB       103.3020   75.0230   36.6500 C.3   218  ASP218      0.1410
      6  CG       103.3380   74.1690   37.9230 C.2   218  ASP218      0.3668
      7  OD1      104.3720   74.2030   38.6280 O.co2 218  ASP218     -0.2456
      8  OD2      102.3530   73.4510   38.2270 O.co2 218  ASP218     -0.2456
      9  N         95.9750   78.7470   42.4040 N.3   495  ASP495     -0.1225
     10  CA        96.5720   77.4220   42.2410 C.3   495  ASP495      0.1805
     11  C         98.1240   77.4470   42.1820 C.2   495  ASP495      0.2597
     12  O         98.7790   76.4170   42.4860 O.2   495  ASP495     -0.2718
     13  CB        96.0210   76.7590   40.9870 C.3   495  ASP495      0.1424
     14  CG        96.4060   77.5120   39.7120 C.2   495  ASP495      0.3668
     15  OD1       96.0270   78.6930   39.5710 O.co2 495  ASP495     -0.2456
     16  OD2       97.0850   76.9150   38.8610 O.co2 495  ASP495     -0.2456
     17  N         98.6940   78.5910   41.7820 N.am  496  GLN496     -0.1979
     18  CA       100.1430   78.7960   41.8460 C.3   496  GLN496      0.1601
     19  C        100.5760   79.5710   43.0740 C.2   496  GLN496      0.2287
     20  O        101.6210   79.2850   43.6520 O.2   496  GLN496     -0.2864
     21  CB       100.6590   79.5050   40.6000 C.3   496  GLN496      0.0394
     22  CG       100.3920   78.7480   39.3150 C.3   496  GLN496      0.0908
     23  CD       100.6120   77.2650   39.4850 C.2   496  GLN496      0.2608
     24  OE1      101.7060   76.8120   39.8660 O.2   496  GLN496     -0.2717
     25  NE2       99.5710   76.4940   39.2220 N.am  496  GLN496     -0.0878
     26  N         99.2190   79.7220   46.0290 N.3   498  ALA498     -0.1231
     27  CA        99.0320   78.9800   47.2700 C.3   498  ALA498      0.1694
     28  C        100.2680   78.1160   47.5580 C.2   498  ALA498      0.2591
     29  O        100.3880   77.5240   48.6490 O.2   498  ALA498     -0.2718
     30  CB        97.7580   78.1220   47.2070 C.3   498  ALA498      0.0304
     31  N        101.1880   78.0530   46.5940 N.am  499  LYS499     -0.1980
     32  CA       102.4420   77.3100   46.7570 C.3   499  LYS499      0.1596
     33  C        103.5490   78.1520   47.4150 C.2   499  LYS499      0.2287
     34  O        104.6300   77.6200   47.7200 O.2   499  LYS499     -0.2864
     35  CB       102.9400   76.7900   45.4020 C.3   499  LYS499      0.0298
     36  CG       101.8880   76.0970   44.5630 C.3   499  LYS499      0.0038
     37  CD       102.4900   75.5770   43.2850 C.3   499  LYS499      0.0206
     38  CE       101.6150   74.5450   42.6200 C.3   499  LYS499      0.1093
     39  NZ       102.1190   74.2410   41.2620 N.3   499  LYS499     -0.1314
     40  N        105.6170   73.6350   50.7010 N.3   508  ASP508     -0.1239
     41  CA       104.2770   73.0460   50.8620 C.3   508  ASP508      0.1674
     42  C        103.7930   73.1660   52.3110 C.2   508  ASP508      0.2266
     43  O        104.3390   72.5410   53.2160 O.2   508  ASP508     -0.2867
     44  CB       104.2030   71.5960   50.3440 C.3   508  ASP508      0.1410
     45  CG       102.7550   71.1020   50.1440 C.2   508  ASP508      0.3668
     46  OD1      101.8920   71.8110   49.5680 O.co2 508  ASP508     -0.2456
     47  OD2      102.4860   69.9640   50.5690 O.co2 508  ASP508     -0.2456
     48  N        100.5540   72.6170   52.7540 N.3   510  TRP510     -0.1241
     49  CA        99.3280   71.8370   52.5500 C.3   510  TRP510      0.1605
     50  C         99.5880   70.3650   52.8710 C.2   510  TRP510      0.2264
     51  O        100.6900   69.8710   52.6130 O.2   510  TRP510     -0.2867
     52  CB        98.8380   71.9640   51.0920 C.3   510  TRP510      0.0550
     53  CG        98.4190   73.3580   50.6840 C.ar  510  TRP510      0.0003
     54  CD1       99.2370   74.4530   50.5030 C.ar  510  TRP510      0.0946
     55  CD2       97.0970   73.8020   50.3770 C.ar  510  TRP510      0.0152
     56  NE1       98.4980   75.5500   50.1190 N.ar  510  TRP510     -0.2442
     57  CE2       97.1820   75.1820   50.0380 C.ar  510  TRP510      0.0810
     58  CE3       95.8450   73.1800   50.3690 C.ar  510  TRP510      0.0012
     59  CZ2       96.0670   75.9410   49.6940 C.ar  510  TRP510      0.0191
     60  CZ3       94.7320   73.9400   50.0240 C.ar  510  TRP510      0.0001
     61  CH2       94.8560   75.3090   49.6780 C.ar  510  TRP510      0.0015
     62  N         95.4390   69.2140   49.4400 N.3   515  ARG515     -0.1245
     63  CA        95.9060   69.4100   48.0730 C.3   515  ARG515      0.1563
     64  C         94.9190   68.7920   47.0560 C.2   515  ARG515      0.2260
     65  O         94.6280   69.3890   46.0200 O.2   515  ARG515     -0.2867
     66  CB        97.2890   68.7780   47.9290 C.3   515  ARG515      0.0307
     67  CG        98.2690   69.4850   46.9890 C.3   515  ARG515      0.0489
     68  CD        99.0730   68.4570   46.1650 C.3   515  ARG515      0.2205
     69  NE        98.1790   67.6090   45.3440 N.pl3 515  ARG515     -0.0865
     70  CZ        98.0040   67.6770   44.0110 C.cat 515  ARG515      0.5346
     71  NH1       98.6770   68.5490   43.2580 N.pl3 515  ARG515      0.1354
     72  NH2       97.1450   66.8480   43.4170 N.pl3 515  ARG515      0.1354
     73  N         91.5320   70.5820   47.0030 N.3   518  PHE518     -0.1227
     74  CA        91.7780   71.8160   46.3010 C.3   518  PHE518      0.1736
     75  C         91.7670   71.5590   44.7930 C.2   518  PHE518      0.2595
     76  O         91.0670   72.2450   44.0560 O.2   518  PHE518     -0.2718
     77  CB        93.0810   72.4540   46.7810 C.3   518  PHE518      0.0547
     78  CG        93.2950   73.8360   46.2650 C.ar  518  PHE518     -0.0202
     79  CD1       92.2610   74.7680   46.2790 C.ar  518  PHE518     -0.0042
     80  CD2       94.5240   74.2180   45.7490 C.ar  518  PHE518     -0.0042
     81  CE1       92.4570   76.0550   45.7840 C.ar  518  PHE518     -0.0003
     82  CE2       94.7150   75.4960   45.2570 C.ar  518  PHE518     -0.0003
     83  CZ        93.6780   76.4120   45.2730 C.ar  518  PHE518     -0.0000
     84  N         92.4850   70.5270   44.3660 N.am  519  ALA519     -0.1980
     85  CA        92.5690   70.1310   42.9550 C.3   519  ALA519      0.1597
     86  C         91.2210   69.7300   42.3410 C.2   519  ALA519      0.2287
     87  O         90.9520   70.0250   41.1810 O.2   519  ALA519     -0.2864
     88  CB        93.5780   69.0110   42.7810 C.3   519  ALA519      0.0319
     89  N         89.4920   73.1670   41.8230 N.3   522  THR522     -0.1218
     90  CA        90.1890   73.7950   40.7150 C.3   522  THR522      0.1862
     91  C         89.7440   73.1930   39.3800 C.2   522  THR522      0.2287
     92  O         89.4080   73.9250   38.4510 O.2   522  THR522     -0.2866
     93  CB        91.7140   73.6280   40.8590 C.3   522  THR522      0.1770
     94  OG1       92.1810   74.4580   41.9130 O.3   522  THR522     -0.2211
     95  CG2       92.4250   74.0600   39.6380 C.3   522  THR522      0.0375
@<TRIPOS>BOND
     1     1     2    1
     2     5     2    1
     3     5     6    1
     4     2     3    1
     5     4     3    2
     6     6     8   ar
     7     6     7   ar
     8    92    91    2
     9    16    14   ar
    10    25    23   am
    11    22    23    1
    12    22    21    1
    13    91    90    1
    14    23    24    2
    15    15    14   ar
    16    95    93    1
    17    14    13    1
    18    21    18    1
    19    90    93    1
    20    90    89    1
    21    93    94    1
    22    13    10    1
    23    87    86    2
    24    39    38    1
    25    17    18    1
    26    17    11   am
    27    18    19    1
    28    11    10    1
    29    11    12    2
    30    10     9    1
    31    86    85    1
    32    38    37    1
    33    88    85    1
    34    85    84    1
    35    19    20    2
    36    71    70    1
    37    37    36    1
    38    72    70    1
    39    70    69    2
    40    76    75    2
    41    84    75   am
    42    36    35    1
    43    75    74    1
    44    82    83   ar
    45    82    80   ar
    46    83    81   ar
    47    69    68    1
    48    35    32    1
    49    80    78   ar
    50    81    79   ar
    51    65    64    2
    52    26    27    1
    53    68    67    1
    54    78    79   ar
    55    78    77    1
    56    74    77    1
    57    74    73    1
    58    31    32    1
    59    31    28   am
    60    32    33    1
    61    67    66    1
    62    64    63    1
    63    30    27    1
    64    27    28    1
    65    33    34    2
    66    28    29    2
    67    66    63    1
    68    63    62    1
    69    46    45   ar
    70    61    59   ar
    71    61    60   ar
    72    59    57   ar
    73    60    58   ar
    74    57    56   ar
    75    57    55   ar
    76    56    54   ar
    77    45    44    1
    78    45    47   ar
    79    44    41    1
    80    58    55   ar
    81    55    53   ar
    82    54    53   ar
    83    53    52    1
    84    40    41    1
    85    41    42    1
    86    52    49    1
    87    42    43    2
    88    49    48    1
    89    49    50    1
    90    51    50    2
