@<TRIPOS>MOLECULE
tmp/3zukB06.pdb
 75 72 0 0 0
SMALL
GASTEIGER

@<TRIPOS>ATOM
      1  N         81.2020   93.7680   52.4180 N.3   569  TYR569     -0.1227
      2  CA        80.1040   94.6980   52.3610 C.3   569  TYR569      0.1736
      3  C         79.0350   94.4420   53.4400 C.2   569  TYR569      0.2595
      4  O         78.6210   95.3590   54.1440 O.2   569  TYR569     -0.2718
      5  CB        79.4600   94.7020   50.9690 C.3   569  TYR569      0.0548
      6  CG        78.3090   95.6770   50.9030 C.ar  569  TYR569     -0.0200
      7  CD1       78.5060   97.0300   51.1960 C.ar  569  TYR569     -0.0009
      8  CD2       77.0090   95.2430   50.6020 C.ar  569  TYR569     -0.0009
      9  CE1       77.4810   97.9120   51.1540 C.ar  569  TYR569      0.0417
     10  CE2       75.9520   96.1390   50.5700 C.ar  569  TYR569      0.0417
     11  CZ        76.2030   97.4820   50.8440 C.ar  569  TYR569      0.1957
     12  OH        75.1690   98.4050   50.8400 O.3   569  TYR569     -0.2866
     13  N         78.5790   93.1970   53.5360 N.am  570  GLN570     -0.1979
     14  CA        77.5210   92.8050   54.4840 C.3   570  GLN570      0.1601
     15  C         77.9820   93.1090   55.8820 C.2   570  GLN570      0.2287
     16  O         77.2850   93.7260   56.6450 O.2   570  GLN570     -0.2864
     17  CB        77.1630   91.3160   54.3790 C.3   570  GLN570      0.0394
     18  CG        76.6610   90.8580   52.9730 C.3   570  GLN570      0.0908
     19  CD        76.1160   89.3940   52.9390 C.2   570  GLN570      0.2608
     20  OE1       76.0020   88.7270   54.0000 O.2   570  GLN570     -0.2717
     21  NE2       75.7740   88.8980   51.7250 N.am  570  GLN570     -0.0878
     22  N         77.7460   96.7050   57.4150 N.3   573  LEU573     -0.1245
     23  CA        76.4030   97.2350   57.5930 C.3   573  LEU573      0.1561
     24  C         75.9980   97.1610   59.0570 C.2   573  LEU573      0.2260
     25  O         75.0160   97.7950   59.4730 O.2   573  LEU573     -0.2867
     26  CB        75.3730   96.4320   56.7550 C.3   573  LEU573      0.0270
     27  CG        75.3350   96.6060   55.2250 C.3   573  LEU573      0.0019
     28  CD1       74.3580   95.6440   54.5130 C.3   573  LEU573      0.0001
     29  CD2       75.1180   98.1230   54.7920 C.3   573  LEU573      0.0001
     30  N         72.3920   96.5430   60.1790 N.3   576  ASN576     -0.1226
     31  CA        71.4450   97.4050   59.4760 C.3   576  ASN576      0.1770
     32  C         71.1210   96.9260   58.0750 C.2   576  ASN576      0.2439
     33  O         71.9650   96.3230   57.4280 O.2   576  ASN576     -0.2733
     34  CB        71.9610   98.8270   59.4430 C.3   576  ASN576      0.1168
     35  CG        72.2030   99.3760   60.8310 C.2   576  ASN576      0.2627
     36  OD1       71.2700   99.5730   61.6210 O.2   576  ASN576     -0.2716
     37  ND2       73.4650   99.6340   61.1380 N.am  576  ASN576     -0.0877
     38  N         69.8880   97.2040   57.6070 N.am  577  PRO577     -0.2718
     39  CA        69.5160   96.8710   56.2300 C.3   577  PRO577      0.1535
     40  C         70.2520   97.7330   55.2420 C.2   577  PRO577      0.2598
     41  O         70.4810   98.9350   55.4870 O.2   577  PRO577     -0.2715
     42  CB        68.0230   97.1900   56.1590 C.3   577  PRO577      0.0310
     43  CG        67.5990   97.5520   57.6220 C.3   577  PRO577      0.0237
     44  CD        68.8280   97.9500   58.3260 C.3   577  PRO577      0.0939
     45  N         70.6200   97.1360   54.1170 N.am  578  ALA578     -0.1978
     46  CA        71.2970   97.8780   53.0590 C.3   578  ALA578      0.1597
     47  C         70.3640   98.9470   52.5200 C.2   578  ALA578      0.2287
     48  O         69.1950   98.6690   52.2270 O.2   578  ALA578     -0.2864
     49  CB        71.7360   96.9440   51.9230 C.3   578  ALA578      0.0319
     50  N         68.4820  101.1000   49.9330 N.3   580  VAL580     -0.1245
     51  CA        68.0190  100.9580   48.5510 C.3   580  VAL580      0.1561
     52  C         68.2600  102.2920   47.8420 C.2   580  VAL580      0.2260
     53  O         67.9030  103.3260   48.3750 O.2   580  VAL580     -0.2867
     54  CB        66.5240  100.6320   48.5110 C.3   580  VAL580      0.0252
     55  CG1       66.0190  100.5110   47.0680 C.3   580  VAL580      0.0019
     56  CG2       66.2620   99.3670   49.3080 C.3   580  VAL580      0.0019
     57  N         68.8220   97.2400   45.4110 N.3   585  THR585     -0.1203
     58  CA        69.3200   96.7220   46.6700 C.3   585  THR585      0.1994
     59  C         70.8490   96.8800   46.8440 C.2   585  THR585      0.2618
     60  O         71.6220   96.9020   45.8540 O.2   585  THR585     -0.2717
     61  CB        68.9340   95.2500   46.6220 C.3   585  THR585      0.1784
     62  OG1       67.7800   95.0380   47.4400 O.3   585  THR585     -0.2211
     63  CG2       70.0260   94.3320   46.9740 C.3   585  THR585      0.0376
     64  N         71.2990   96.9790   48.0880 N.am  586  GLY586     -0.1942
     65  CA        72.7430   96.9600   48.3800 C.3   586  GLY586      0.2014
     66  C         73.5150   95.8130   47.7230 C.2   586  GLY586      0.2638
     67  O         74.5270   96.0390   47.0620 O.2   586  GLY586     -0.2714
     68  N         73.0600   94.5770   47.8910 N.am  587  MET587     -0.1976
     69  CA        73.6780   93.4860   47.1550 C.3   587  MET587      0.1605
     70  C         73.5880   93.6210   45.6280 C.2   587  MET587      0.2287
     71  O         74.5850   93.4170   44.9320 O.2   587  MET587     -0.2864
     72  CB        73.1660   92.1430   47.6290 C.3   587  MET587      0.0413
     73  CG        73.8390   91.7240   48.9270 C.3   587  MET587      0.0598
     74  SD        73.9240   89.9410   49.2270 S.3   587  MET587     -0.1393
     75  CE        72.4520   89.2810   48.3920 C.3   587  MET587      0.0692
@<TRIPOS>BOND
     1    71    70    2
     2    57    58    1
     3    70    69    1
     4    60    59    2
     5    61    58    1
     6    61    63    1
     7    61    62    1
     8    58    59    1
     9    59    64   am
    10    67    66    2
    11    55    54    1
    12    69    72    1
    13    69    68    1
    14    72    73    1
    15    66    68   am
    16    66    65    1
    17    52    53    2
    18    52    51    1
    19    64    65    1
    20    75    74    1
    21    54    51    1
    22    54    56    1
    23    51    50    1
    24    73    74    1
    25    10     8   ar
    26    10    11   ar
    27     8     6   ar
    28    12    11    1
    29    11     9   ar
    30     6     5    1
    31     6     7   ar
    32     5     2    1
    33     9     7   ar
    34    21    19   am
    35    49    46    1
    36    48    47    2
    37     2     1    1
    38     2     3    1
    39    47    46    1
    40    19    18    1
    41    19    20    2
    42    18    17    1
    43    46    45    1
    44     3    13   am
    45     3     4    2
    46    13    14    1
    47    45    40   am
    48    17    14    1
    49    14    15    1
    50    28    27    1
    51    29    27    1
    52    27    26    1
    53    40    41    2
    54    40    39    1
    55    15    16    2
    56    42    39    1
    57    42    43    1
    58    39    38    1
    59    26    23    1
    60    22    23    1
    61    33    32    2
    62    23    24    1
    63    38    32   am
    64    38    44    1
    65    43    44    1
    66    32    31    1
    67    24    25    2
    68    34    31    1
    69    34    35    1
    70    31    30    1
    71    35    37   am
    72    35    36    2
