@<TRIPOS>MOLECULE
tmp/3zukA09.pdb
 113 108 0 0 0
SMALL
GASTEIGER

@<TRIPOS>ATOM
      1  N         69.6110   55.7830   11.0850 N.3   217  ARG217     -0.1245
      2  CA        69.0880   56.2260    9.7820 C.3   217  ARG217      0.1563
      3  C         69.9010   55.7670    8.5680 C.2   217  ARG217      0.2260
      4  O         69.5610   56.1440    7.4470 O.2   217  ARG217     -0.2867
      5  CB        68.7370   57.7290    9.7040 C.3   217  ARG217      0.0307
      6  CG        69.5620   58.7180   10.5440 C.3   217  ARG217      0.0489
      7  CD        69.3920   60.1700   10.0180 C.3   217  ARG217      0.2205
      8  NE        70.4530   60.4050    9.0360 N.pl3 217  ARG217     -0.0865
      9  CZ        70.3010   60.7810    7.7720 C.cat 217  ARG217      0.5346
     10  NH1       69.1140   61.0740    7.2760 N.pl3 217  ARG217      0.1354
     11  NH2       71.3720   60.9120    7.0210 N.pl3 217  ARG217      0.1354
     12  N         70.2960   53.6820    5.7290 N.3   219  ALA219     -0.1245
     13  CA        69.5440   52.7960    4.8390 C.3   219  ALA219      0.1562
     14  C         70.2000   51.4150    4.5980 C.2   219  ALA219      0.2260
     15  O         69.4920   50.4080    4.5580 O.2   219  ALA219     -0.2867
     16  CB        69.2770   53.4870    3.5020 C.3   219  ALA219      0.0290
     17  N         55.0170   68.1090    5.2500 N.3   447  ALA447     -0.1231
     18  CA        55.2060   67.5830    3.8940 C.3   447  ALA447      0.1694
     19  C         56.2820   66.4860    3.9830 C.2   447  ALA447      0.2592
     20  O         56.9850   66.3860    4.9870 O.2   447  ALA447     -0.2718
     21  CB        55.6350   68.7170    2.9230 C.3   447  ALA447      0.0304
     22  N         56.3930   65.6420    2.9590 N.am  448  TYR448     -0.1962
     23  CA        57.3380   64.5290    3.0100 C.3   448  TYR448      0.1771
     24  C         57.8280   64.0930    1.6490 C.2   448  TYR448      0.2619
     25  O         57.2460   64.4490    0.6140 O.2   448  TYR448     -0.2715
     26  CB        56.8080   63.3210    3.8120 C.3   448  TYR448      0.0574
     27  CG        55.6640   62.5320    3.1980 C.ar  448  TYR448     -0.0198
     28  CD1       54.3230   62.9060    3.4210 C.ar  448  TYR448     -0.0009
     29  CD2       55.9070   61.3670    2.4510 C.ar  448  TYR448     -0.0009
     30  CE1       53.2370   62.1540    2.8610 C.ar  448  TYR448      0.0417
     31  CE2       54.8530   60.6100    1.9050 C.ar  448  TYR448      0.0417
     32  CZ        53.5100   61.0100    2.1050 C.ar  448  TYR448      0.1957
     33  OH        52.4520   60.2670    1.5640 O.3   448  TYR448     -0.2866
     34  N         58.9380   63.3670    1.6720 N.am  449  TYR449     -0.1974
     35  CA        59.4420   62.6610    0.5350 C.3   449  TYR449      0.1639
     36  C         59.3150   61.1800    0.8680 C.2   449  TYR449      0.2290
     37  O         59.6440   60.7340    1.9820 O.2   449  TYR449     -0.2864
     38  CB        60.9120   63.0430    0.2730 C.3   449  TYR449      0.0560
     39  CG        61.6460   62.1510   -0.7350 C.ar  449  TYR449     -0.0198
     40  CD1       61.4710   62.3210   -2.1050 C.ar  449  TYR449     -0.0009
     41  CD2       62.5130   61.1190   -0.3000 C.ar  449  TYR449     -0.0009
     42  CE1       62.1340   61.5270   -3.0130 C.ar  449  TYR449      0.0417
     43  CE2       63.1800   60.3010   -1.2080 C.ar  449  TYR449      0.0417
     44  CZ        62.9800   60.5100   -2.5580 C.ar  449  TYR449      0.1957
     45  OH        63.6380   59.7370   -3.4760 O.3   449  TYR449     -0.2866
     46  N         61.0270   57.8270   -0.4020 N.3   451  PRO451     -0.2116
     47  CA        62.0880   57.3160   -1.2650 C.3   451  PRO451      0.1372
     48  C         61.5780   56.1890   -2.1570 C.2   451  PRO451      0.2244
     49  O         61.8520   56.1880   -3.3610 O.2   451  PRO451     -0.2868
     50  CB        63.1470   56.7820   -0.2790 C.3   451  PRO451      0.0268
     51  CG        62.8050   57.3520    1.0100 C.3   451  PRO451      0.0207
     52  CD        61.3160   57.5690    1.0130 C.3   451  PRO451      0.0892
     53  N         61.8700   68.8360   -0.1660 N.3   488  GLU488     -0.1245
     54  CA        61.3420   67.4960   -0.3530 C.3   488  GLU488      0.1567
     55  C         62.0250   66.8380   -1.5290 C.2   488  GLU488      0.2260
     56  O         62.3280   65.6210   -1.4560 O.2   488  GLU488     -0.2867
     57  CB        59.8300   67.5160   -0.5400 C.3   488  GLU488      0.0388
     58  CG        59.0740   68.2790    0.5640 C.3   488  GLU488      0.1160
     59  CD        59.3500   67.7490    1.9750 C.2   488  GLU488      0.3649
     60  OE1       59.7570   66.5630    2.1170 O.co2 488  GLU488     -0.2457
     61  OE2       59.1570   68.5100    2.9470 O.co2 488  GLU488     -0.2457
     62  N         65.5410   65.7760   -0.4580 N.3   491  HIS491     -0.1241
     63  CA        65.5840   64.5530    0.3260 C.3   491  HIS491      0.1621
     64  C         65.9050   63.3300   -0.5090 C.2   491  HIS491      0.2264
     65  O         66.5130   62.3890   -0.0170 O.2   491  HIS491     -0.2867
     66  CB        64.2660   64.3190    1.0160 C.3   491  HIS491      0.0745
     67  CG        64.2470   64.7570    2.4470 C.ar  491  HIS491      0.0817
     68  ND1       65.2820   64.4920    3.3190 N.ar  491  HIS491     -0.2268
     69  CD2       63.2960   65.4010    3.1680 C.ar  491  HIS491      0.1154
     70  CE1       64.9740   64.9660    4.5100 C.ar  491  HIS491      0.1986
     71  NE2       63.7800   65.5290    4.4460 N.ar  491  HIS491     -0.2212
     72  N         69.7040   63.3430   -0.5580 N.3   494  ASP494     -0.1239
     73  CA        70.5490   63.5330    0.5950 C.3   494  ASP494      0.1674
     74  C         71.4120   62.3050    0.7360 C.2   494  ASP494      0.2266
     75  O         71.4320   61.4410   -0.1670 O.2   494  ASP494     -0.2867
     76  CB        69.7980   63.9690    1.8730 C.3   494  ASP494      0.1410
     77  CG        68.7900   62.9540    2.3910 C.2   494  ASP494      0.3668
     78  OD1       69.0570   61.7110    2.4050 O.co2 494  ASP494     -0.2456
     79  OD2       67.7330   63.4360    2.8650 O.co2 494  ASP494     -0.2456
     80  N         71.2670   59.6910    2.2600 N.3   496  GLN496     -0.1231
     81  CA        70.5800   58.3680    2.2210 C.3   496  GLN496      0.1698
     82  C         69.6730   58.2580    1.0200 C.2   496  GLN496      0.2592
     83  O         69.6990   57.2610    0.3550 O.2   496  GLN496     -0.2718
     84  CB        69.8080   58.0450    3.5270 C.3   496  GLN496      0.0381
     85  CG        70.6200   58.2550    4.7760 C.3   496  GLN496      0.0905
     86  CD        71.8240   57.3420    4.7950 C.2   496  GLN496      0.2608
     87  OE1       71.6740   56.1450    4.5680 O.2   496  GLN496     -0.2717
     88  NE2       73.0360   57.8990    5.0150 N.am  496  GLN496     -0.0878
     89  N         68.8860   59.2850    0.7430 N.am  497  GLY497     -0.1957
     90  CA        67.9770   59.2750   -0.3810 C.3   497  GLY497      0.1869
     91  C         68.7130   58.9830   -1.6610 C.2   497  GLY497      0.2309
     92  O         68.1870   58.2790   -2.5060 O.2   497  GLY497     -0.2863
     93  N         68.9860   55.4460   -3.4110 N.3   500  TYR500     -0.1241
     94  CA        67.8110   54.8780   -4.0140 C.3   500  TYR500      0.1605
     95  C         67.7370   55.4400   -5.4150 C.2   500  TYR500      0.2264
     96  O         67.9130   56.6570   -5.5900 O.2   500  TYR500     -0.2867
     97  CB        66.5920   55.3640   -3.2330 C.3   500  TYR500      0.0534
     98  CG        66.3950   54.6660   -1.9180 C.ar  500  TYR500     -0.0201
     99  CD1       65.7150   53.4530   -1.8660 C.ar  500  TYR500     -0.0009
    100  CD2       66.8900   55.2130   -0.7140 C.ar  500  TYR500     -0.0009
    101  CE1       65.5250   52.7910   -0.6660 C.ar  500  TYR500      0.0417
    102  CE2       66.6970   54.5510    0.5140 C.ar  500  TYR500      0.0417
    103  CZ        66.0190   53.3420    0.5110 C.ar  500  TYR500      0.1957
    104  OH        65.8220   52.6290    1.6450 O.3   500  TYR500     -0.2866
    105  N         68.4670   66.2220    6.7540 N.3   554  GLU554     -0.1245
    106  CA        67.6610   67.4120    6.8320 C.3   554  GLU554      0.1567
    107  C         68.4280   68.6680    6.3940 C.2   554  GLU554      0.2260
    108  O         67.8570   69.5310    5.7110 O.2   554  GLU554     -0.2867
    109  CB        67.1190   67.5850    8.2530 C.3   554  GLU554      0.0388
    110  CG        66.1230   66.5170    8.6730 C.3   554  GLU554      0.1160
    111  CD        65.0120   66.2580    7.6830 C.2   554  GLU554      0.3649
    112  OE1       64.6400   67.1730    6.9200 O.co2 554  GLU554     -0.2457
    113  OE2       64.5130   65.1160    7.6320 O.co2 554  GLU554     -0.2457
@<TRIPOS>BOND
     1    96    95    2
     2    95    94    1
     3    94    93    1
     4    94    97    1
     5    45    44    1
     6    49    48    2
     7    97    98    1
     8    42    44   ar
     9    42    40   ar
    10    44    43   ar
    11    92    91    2
    12    48    47    1
    13    40    39   ar
    14    98    99   ar
    15    98   100   ar
    16    99   101   ar
    17    91    90    1
    18    55    56    2
    19    55    54    1
    20    47    46    1
    21    47    50    1
    22    43    41   ar
    23    39    41   ar
    24    39    38    1
    25   100   102   ar
    26   101   103   ar
    27    72    73    1
    28    57    54    1
    29    57    58    1
    30    64    65    2
    31    64    63    1
    32    62    63    1
    33    46    52    1
    34    90    89    1
    35    54    53    1
    36    50    51    1
    37    75    74    2
    38    38    35    1
    39    63    66    1
    40    83    82    2
    41   103   102   ar
    42   103   104    1
    43    35    36    1
    44    35    34    1
    45    58    59    1
    46    73    74    1
    47    73    76    1
    48    25    24    2
    49    89    82   am
    50    36    37    2
    51    51    52    1
    52    66    67    1
    53    82    81    1
    54    33    32    1
    55    24    34   am
    56    24    23    1
    57    76    77    1
    58    31    32   ar
    59    31    29   ar
    60    59    60   ar
    61    59    61   ar
    62    32    30   ar
    63    81    80    1
    64    81    84    1
    65    77    78   ar
    66    77    79   ar
    67    67    69   ar
    68    67    68   ar
    69    29    27   ar
    70    30    28   ar
    71    21    18    1
    72    22    23    1
    73    22    19   am
    74    23    26    1
    75    69    71   ar
    76    27    28   ar
    77    27    26    1
    78    68    70   ar
    79    16    13    1
    80    84    85    1
    81    18    19    1
    82    18    17    1
    83    19    20    2
    84    71    70   ar
    85    15    14    2
    86    87    86    2
    87    14    13    1
    88    85    86    1
    89    86    88   am
    90    13    12    1
    91   108   107    2
    92   107   106    1
    93   105   106    1
    94   106   109    1
    95   112   111   ar
    96    11     9    1
    97    10     9    1
    98     4     3    2
    99   113   111   ar
   100   111   110    1
   101     9     8    2
   102   109   110    1
   103     3     2    1
   104     8     7    1
   105     5     2    1
   106     5     6    1
   107     2     1    1
   108     7     6    1
