@<TRIPOS>MOLECULE
tmp/3zukA11.pdb
 85 82 0 0 0
SMALL
GASTEIGER

@<TRIPOS>ATOM
      1  N         65.1400   95.7970   14.6840 N.3    13  ALA13      -0.1245
      2  CA        65.9070   96.7570   13.9010 C.3    13  ALA13       0.1562
      3  C         67.3720   96.8010   14.3030 C.2    13  ALA13       0.2260
      4  O         68.2060   97.2250   13.5140 O.2    13  ALA13      -0.2867
      5  CB        65.2730   98.1200   14.0040 C.3    13  ALA13       0.0290
      6  N         71.3660   93.1430   13.2220 N.3    16  ARG16      -0.1231
      7  CA        71.7470   93.1870   11.8160 C.3    16  ARG16       0.1679
      8  C         71.5470   91.8240   11.1330 C.2    16  ARG16       0.2434
      9  O         71.9840   90.7910   11.6630 O.2    16  ARG16      -0.2733
     10  CB        73.1990   93.6620   11.7010 C.3    16  ARG16       0.0321
     11  CG        73.3500   95.1570   12.0180 C.3    16  ARG16       0.0489
     12  CD        74.7750   95.5990   12.1240 C.3    16  ARG16       0.2205
     13  NE        75.4580   95.6240   10.8370 N.pl3  16  ARG16      -0.0865
     14  CZ        76.2990   94.6770   10.4220 C.cat  16  ARG16       0.5346
     15  NH1       76.5410   93.6230   11.1890 N.pl3  16  ARG16       0.1354
     16  NH2       76.8900   94.7650    9.2350 N.pl3  16  ARG16       0.1354
     17  N         70.8790   91.7980    9.9640 N.am   17  PRO17      -0.2718
     18  CA        70.6770   90.5240    9.2380 C.3    17  PRO17       0.1535
     19  C         71.9790   89.8470    8.7710 C.2    17  PRO17       0.2598
     20  O         72.0150   88.6220    8.5950 O.2    17  PRO17      -0.2715
     21  CB        69.8220   90.9250    8.0320 C.3    17  PRO17       0.0310
     22  CG        70.0320   92.3890    7.8780 C.3    17  PRO17       0.0237
     23  CD        70.2390   92.9240    9.2750 C.3    17  PRO17       0.0939
     24  N         73.0350   90.6400    8.6130 N.am   18  GLN18      -0.1978
     25  CA        74.4050   90.1290    8.3760 C.3    18  GLN18       0.1601
     26  C         74.9340   89.3310    9.5670 C.2    18  GLN18       0.2287
     27  O         75.7630   88.4440    9.4090 O.2    18  GLN18      -0.2864
     28  CB        75.3780   91.2880    8.1080 C.3    18  GLN18       0.0394
     29  CG        75.1010   92.1590    6.8750 C.3    18  GLN18       0.0908
     30  CD        74.0170   93.1960    7.1020 C.2    18  GLN18       0.2608
     31  OE1       73.5250   93.3740    8.2180 O.2    18  GLN18      -0.2717
     32  NE2       73.6280   93.8650    6.0440 N.am   18  GLN18      -0.0878
     33  N         66.9610   89.1310   13.1380 N.3    24  HIS24      -0.1241
     34  CA        66.5180   90.3290   12.4640 C.3    24  HIS24       0.1621
     35  C         65.0320   90.2350   12.0660 C.2    24  HIS24       0.2264
     36  O         64.2550   91.1150   12.4090 O.2    24  HIS24      -0.2867
     37  CB        67.3810   90.6990   11.2620 C.3    24  HIS24       0.0745
     38  CG        66.9270   91.9640   10.5930 C.ar   24  HIS24       0.0817
     39  ND1       67.1900   93.2210   11.1140 N.ar   24  HIS24      -0.2268
     40  CD2       66.1610   92.1630    9.4950 C.ar   24  HIS24       0.1154
     41  CE1       66.6130   94.1360   10.3550 C.ar   24  HIS24       0.1986
     42  NE2       66.0010   93.5250    9.3560 N.ar   24  HIS24      -0.2212
     43  N         60.7620   98.4060    1.0130 N.3   583  GLY583     -0.1210
     44  CA        62.1650   98.5850    1.2620 C.3   583  GLY583      0.1956
     45  C         63.0400   97.4310    0.8100 C.2   583  GLY583      0.2611
     46  O         64.2690   97.5660    0.8310 O.2   583  GLY583     -0.2717
     47  N         62.4590   96.2980    0.4010 N.am  584  LEU584     -0.1979
     48  CA        63.2760   95.1090    0.1610 C.3   584  LEU584      0.1596
     49  C         63.3490   94.6940   -1.2960 C.2   584  LEU584      0.2287
     50  O         62.3670   94.7730   -2.0520 O.2   584  LEU584     -0.2864
     51  CB        62.8070   93.9470    0.9940 C.3   584  LEU584      0.0297
     52  CG        62.6550   94.1080    2.5190 C.3   584  LEU584      0.0022
     53  CD1       61.7570   93.0350    3.0710 C.3   584  LEU584      0.0001
     54  CD2       63.9850   94.0460    3.2560 C.3   584  LEU584      0.0001
     55  N         66.0960   89.7250   -1.3440 N.3   588  GLN588     -0.1245
     56  CA        66.0380   89.8900    0.1060 C.3   588  GLN588      0.1566
     57  C         64.7550   89.3400    0.6690 C.2   588  GLN588      0.2260
     58  O         64.7670   88.7660    1.7700 O.2   588  GLN588     -0.2867
     59  CB        66.1920   91.3430    0.5130 C.3   588  GLN588      0.0367
     60  CG        67.6090   91.8500    0.3780 C.3   588  GLN588      0.0905
     61  CD        67.7010   93.3660    0.4660 C.2   588  GLN588      0.2608
     62  OE1       66.7530   94.0750    0.1510 O.2   588  GLN588     -0.2717
     63  NE2       68.8530   93.8650    0.8930 N.am  588  GLN588     -0.0878
     64  N         63.9420   86.6350    3.6420 N.3   592  PHE592     -0.1241
     65  CA        63.0030   86.9420    4.7140 C.3   592  PHE592      0.1605
     66  C         61.8730   85.8920    4.7320 C.2   592  PHE592      0.2264
     67  O         61.4710   85.4520    5.8040 O.2   592  PHE592     -0.2867
     68  CB        62.4260   88.3350    4.5680 C.3   592  PHE592      0.0534
     69  CG        63.2900   89.4290    5.1330 C.ar  592  PHE592     -0.0203
     70  CD1       64.6750   89.4140    4.9810 C.ar  592  PHE592     -0.0042
     71  CD2       62.7150   90.4880    5.8030 C.ar  592  PHE592     -0.0042
     72  CE1       65.4850   90.4570    5.4900 C.ar  592  PHE592     -0.0003
     73  CE2       63.5000   91.5400    6.3240 C.ar  592  PHE592     -0.0003
     74  CZ        64.8870   91.5320    6.1570 C.ar  592  PHE592     -0.0000
     75  N         72.8490   90.8900    1.1870 N.3   637  PHE637     -0.1241
     76  CA        72.9290   91.6990    2.3680 C.3   637  PHE637      0.1605
     77  C         74.2820   92.3560    2.6060 C.2   637  PHE637      0.2264
     78  O         74.5280   92.8860    3.7110 O.2   637  PHE637     -0.2867
     79  CB        72.4720   90.8980    3.5600 C.3   637  PHE637      0.0534
     80  CG        71.0220   90.4620    3.4890 C.ar  637  PHE637     -0.0203
     81  CD1       70.0080   91.2820    4.0010 C.ar  637  PHE637     -0.0042
     82  CD2       70.6780   89.2040    2.9620 C.ar  637  PHE637     -0.0042
     83  CE1       68.6700   90.8670    3.9820 C.ar  637  PHE637     -0.0003
     84  CE2       69.3680   88.7800    2.9350 C.ar  637  PHE637     -0.0003
     85  CZ        68.3490   89.6280    3.4510 C.ar  637  PHE637     -0.0000
@<TRIPOS>BOND
     1    50    49    2
     2    55    56    1
     3    49    48    1
     4    56    59    1
     5    56    57    1
     6    62    61    2
     7    48    47    1
     8    48    51    1
     9    60    61    1
    10    60    59    1
    11    47    45   am
    12    61    63   am
    13    57    58    2
    14    45    46    2
    15    45    44    1
    16    51    52    1
    17    43    44    1
    18    75    76    1
    19    76    77    1
    20    76    79    1
    21    52    53    1
    22    52    54    1
    23    77    78    2
    24    84    82   ar
    25    84    85   ar
    26    82    80   ar
    27    85    83   ar
    28    80    79    1
    29    80    81   ar
    30    64    65    1
    31    83    81   ar
    32    68    65    1
    33    68    69    1
    34    65    66    1
    35    66    67    2
    36    70    69   ar
    37    70    72   ar
    38    69    71   ar
    39    72    74   ar
    40    71    73   ar
    41    32    30   am
    42    74    73   ar
    43    29    30    1
    44    29    28    1
    45    30    31    2
    46    22    21    1
    47    22    23    1
    48    21    18    1
    49    28    25    1
    50    25    24    1
    51    25    26    1
    52    20    19    2
    53    24    19   am
    54    19    18    1
    55    16    14    1
    56    18    17    1
    57    23    17    1
    58    42    40   ar
    59    42    41   ar
    60    27    26    2
    61    40    38   ar
    62    17     8   am
    63    41    39   ar
    64    14    13    2
    65    14    15    1
    66    38    39   ar
    67    38    37    1
    68    13    12    1
    69     8     9    2
    70     8     7    1
    71    37    34    1
    72    10     7    1
    73    10    11    1
    74     7     6    1
    75    11    12    1
    76    35    36    2
    77    35    34    1
    78    34    33    1
    79     4     3    2
    80     2     5    1
    81     2     3    1
    82     2     1    1
