@<TRIPOS>MOLECULE
tmp/3zukB18.pdb
 96 93 0 0 0
SMALL
GASTEIGER

@<TRIPOS>ATOM
      1  N        115.4560   88.3740   32.8020 N.3   133  TYR133     -0.1241
      2  CA       114.9350   89.3810   33.7590 C.3   133  TYR133      0.1605
      3  C        115.4190   89.0200   35.1560 C.2   133  TYR133      0.2264
      4  O        115.8930   87.9150   35.3710 O.2   133  TYR133     -0.2867
      5  CB       113.3870   89.4930   33.7060 C.3   133  TYR133      0.0534
      6  CG       112.6620   88.2350   34.1790 C.ar  133  TYR133     -0.0201
      7  CD1      112.3850   87.1670   33.2980 C.ar  133  TYR133     -0.0009
      8  CD2      112.2840   88.0900   35.5110 C.ar  133  TYR133     -0.0009
      9  CE1      111.7330   86.0210   33.7420 C.ar  133  TYR133      0.0417
     10  CE2      111.6330   86.9320   35.9560 C.ar  133  TYR133      0.0417
     11  CZ       111.3580   85.9190   35.0680 C.ar  133  TYR133      0.1957
     12  OH       110.7290   84.7880   35.5510 O.3   133  TYR133     -0.2866
     13  N        114.4820   88.7030   39.1440 N.3   135  ASP135     -0.1225
     14  CA       113.4030   88.5230   40.1070 C.3   135  ASP135      0.1805
     15  C        113.9730   87.8680   41.3470 C.2   135  ASP135      0.2598
     16  O        115.0940   87.3660   41.3170 O.2   135  ASP135     -0.2718
     17  CB       112.2770   87.6670   39.4990 C.3   135  ASP135      0.1424
     18  CG       110.9120   88.0610   40.0310 C.2   135  ASP135      0.3668
     19  OD1      110.8570   88.5340   41.1900 O.co2 135  ASP135     -0.2456
     20  OD2      109.9050   87.9290   39.2890 O.co2 135  ASP135     -0.2456
     21  N        113.2180   87.8720   42.4380 N.am  136  THR136     -0.1953
     22  CA       113.6450   87.1550   43.6460 C.3   136  THR136      0.1897
     23  C        113.7370   85.6440   43.3770 C.2   136  THR136      0.2313
     24  O        113.0390   85.1140   42.5250 O.2   136  THR136     -0.2863
     25  CB       112.7510   87.4690   44.9050 C.3   136  THR136      0.1794
     26  OG1      111.4050   87.0820   44.6590 O.3   136  THR136     -0.2208
     27  CG2      112.7690   88.9470   45.2610 C.3   136  THR136      0.0378
     28  N        112.6690   82.2060   44.0510 N.3   138  SER138     -0.1217
     29  CA       111.4520   81.5730   44.5290 C.3   138  SER138      0.1889
     30  C        111.6760   80.7790   45.8230 C.2   138  SER138      0.2288
     31  O        110.7660   80.6700   46.6470 O.2   138  SER138     -0.2866
     32  CB       110.9250   80.6140   43.4660 C.3   138  SER138      0.2089
     33  OG       110.2220   81.2950   42.4380 O.3   138  SER138     -0.2183
     34  N        116.8730   85.3630   35.7350 N.3   147  HIS147     -0.1241
     35  CA       116.0550   84.3220   35.1050 C.3   147  HIS147      0.1621
     36  C        116.1290   84.3420   33.5660 C.2   147  HIS147      0.2264
     37  O        116.2000   85.4100   32.9620 O.2   147  HIS147     -0.2867
     38  CB       114.6090   84.4930   35.5090 C.3   147  HIS147      0.0745
     39  CG       114.3480   84.2810   36.9620 C.ar  147  HIS147      0.0817
     40  ND1      114.8540   85.1070   37.9450 N.ar  147  HIS147     -0.2268
     41  CD2      113.6030   83.3480   37.6060 C.ar  147  HIS147      0.1154
     42  CE1      114.4450   84.6870   39.1300 C.ar  147  HIS147      0.1986
     43  NE2      113.6890   83.6180   38.9510 N.ar  147  HIS147     -0.2212
     44  N        113.8920   78.9550   33.4210 N.3   260  ARG260     -0.1245
     45  CA       112.4350   78.7840   33.4580 C.3   260  ARG260      0.1563
     46  C        111.9550   77.5510   32.7000 C.2   260  ARG260      0.2260
     47  O        111.0260   76.8990   33.1820 O.2   260  ARG260     -0.2867
     48  CB       111.6800   80.0180   32.9370 C.3   260  ARG260      0.0307
     49  CG       111.7400   81.2290   33.8200 C.3   260  ARG260      0.0489
     50  CD       110.7110   81.2550   34.9440 C.3   260  ARG260      0.2205
     51  NE       109.4250   80.7240   34.5450 N.pl3 260  ARG260     -0.0865
     52  CZ       108.4890   81.4300   33.9340 C.cat 260  ARG260      0.5346
     53  NH1      108.7010   82.7050   33.6470 N.pl3 260  ARG260      0.1354
     54  NH2      107.3490   80.8590   33.5950 N.pl3 260  ARG260      0.1354
     55  N        106.4640   97.7090   40.2850 N.3   439  PHE439     -0.1241
     56  CA       106.5850   97.1880   38.9240 C.3   439  PHE439      0.1605
     57  C        105.5270   97.7940   38.0010 C.2   439  PHE439      0.2264
     58  O        105.3700   97.3630   36.8520 O.2   439  PHE439     -0.2867
     59  CB       106.5190   95.6590   38.9170 C.3   439  PHE439      0.0534
     60  CG       107.6100   95.0140   39.7210 C.ar  439  PHE439     -0.0203
     61  CD1      108.9250   94.9610   39.2320 C.ar  439  PHE439     -0.0042
     62  CD2      107.3360   94.4720   40.9860 C.ar  439  PHE439     -0.0042
     63  CE1      109.9530   94.3590   40.0030 C.ar  439  PHE439     -0.0003
     64  CE2      108.3380   93.8790   41.7500 C.ar  439  PHE439     -0.0003
     65  CZ       109.6520   93.8260   41.2610 C.ar  439  PHE439     -0.0000
     66  N        102.3970   90.4110   44.1510 N.3   450  ASN450     -0.1226
     67  CA       103.7450   89.9160   44.0590 C.3   450  ASN450      0.1770
     68  C        103.9290   88.7900   45.0670 C.2   450  ASN450      0.2439
     69  O        103.9890   89.0360   46.2880 O.2   450  ASN450     -0.2733
     70  CB       104.7150   91.0660   44.3150 C.3   450  ASN450      0.1168
     71  CG       106.1760   90.6730   44.1360 C.2   450  ASN450      0.2627
     72  OD1      106.5320   89.4940   43.9960 O.2   450  ASN450     -0.2716
     73  ND2      107.0350   91.6730   44.1600 N.am  450  ASN450     -0.0877
     74  N        104.0370   87.5460   44.5720 N.am  451  PRO451     -0.2718
     75  CA       104.1780   86.3670   45.4290 C.3   451  PRO451      0.1535
     76  C        105.4060   86.4300   46.3210 C.2   451  PRO451      0.2599
     77  O        105.2780   86.1660   47.5360 O.2   451  PRO451     -0.2715
     78  CB       104.3060   85.2050   44.4180 C.3   451  PRO451      0.0310
     79  CG       103.6670   85.7290   43.1600 C.3   451  PRO451      0.0237
     80  CD       104.0140   87.1870   43.1430 C.3   451  PRO451      0.0939
     81  N        106.5670   86.7600   45.7400 N.am  452  GLY452     -0.1955
     82  CA       107.8300   86.7850   46.4760 C.3   452  GLY452      0.1869
     83  C        107.8670   87.8000   47.6310 C.2   452  GLY452      0.2309
     84  O        108.6260   87.6620   48.6010 O.2   452  GLY452     -0.2863
     85  N        103.2850   79.4580   47.6080 N.3   500  TYR500     -0.1241
     86  CA       104.2330   80.3760   48.2680 C.3   500  TYR500      0.1605
     87  C        103.7620   80.6230   49.6620 C.2   500  TYR500      0.2264
     88  O        102.5500   80.7790   49.8610 O.2   500  TYR500     -0.2867
     89  CB       104.3070   81.7220   47.5330 C.3   500  TYR500      0.0534
     90  CG       104.9780   81.6450   46.1880 C.ar  500  TYR500     -0.0201
     91  CD1      104.2680   81.2540   45.0460 C.ar  500  TYR500     -0.0009
     92  CD2      106.3360   81.9380   46.0590 C.ar  500  TYR500     -0.0009
     93  CE1      104.9020   81.1700   43.7980 C.ar  500  TYR500      0.0417
     94  CE2      106.9780   81.8640   44.8360 C.ar  500  TYR500      0.0417
     95  CZ       106.2600   81.4850   43.7060 C.ar  500  TYR500      0.1957
     96  OH       106.9200   81.4120   42.4970 O.3   500  TYR500     -0.2866
@<TRIPOS>BOND
     1    46    47    2
     2    46    45    1
     3     1     2    1
     4    48    45    1
     5    48    49    1
     6    37    36    2
     7     7     9   ar
     8     7     6   ar
     9    44    45    1
    10    36    35    1
    11    54    52    1
    12    53    52    1
    13     5     2    1
    14     5     6    1
    15     9    11   ar
    16     2     3    1
    17    49    50    1
    18    52    51    2
    19     6     8   ar
    20    51    50    1
    21    11    12    1
    22    11    10   ar
    23    35    38    1
    24    35    34    1
    25     3     4    2
    26    38    39    1
    27     8    10   ar
    28    58    57    2
    29    39    41   ar
    30    39    40   ar
    31    41    43   ar
    32    40    42   ar
    33    57    56    1
    34    59    56    1
    35    59    60    1
    36    56    55    1
    37    43    42   ar
    38    13    14    1
    39    61    60   ar
    40    61    63   ar
    41    20    18   ar
    42    17    18    1
    43    17    14    1
    44    60    62   ar
    45    63    65   ar
    46    18    19   ar
    47    14    15    1
    48    62    64   ar
    49    65    64   ar
    50    16    15    2
    51    15    21   am
    52    33    32    1
    53    21    22    1
    54    96    95    1
    55    24    23    2
    56    80    79    1
    57    80    74    1
    58    79    78    1
    59    23    22    1
    60    32    29    1
    61    22    25    1
    62    95    93   ar
    63    95    94   ar
    64    93    91   ar
    65    72    71    2
    66    28    29    1
    67    67    66    1
    68    67    70    1
    69    67    68    1
    70    71    73   am
    71    71    70    1
    72    78    75    1
    73    29    30    1
    74    74    68   am
    75    74    75    1
    76    26    25    1
    77    94    92   ar
    78    25    27    1
    79    91    90   ar
    80    68    69    2
    81    75    76    1
    82    81    76   am
    83    81    82    1
    84    30    31    2
    85    92    90   ar
    86    90    89    1
    87    76    77    2
    88    82    83    1
    89    89    86    1
    90    85    86    1
    91    83    84    2
    92    86    87    1
    93    87    88    2
