@<TRIPOS>MOLECULE
tmp/3zukA10.pdb
 79 75 0 0 0
SMALL
GASTEIGER

@<TRIPOS>ATOM
      1  N         56.8440   86.8620   22.6350 N.3    33  HIS33      -0.1226
      2  CA        55.7130   85.9380   22.5070 C.3    33  HIS33       0.1752
      3  C         55.7290   84.8800   23.6090 C.2    33  HIS33       0.2596
      4  O         56.7020   84.1540   23.7650 O.2    33  HIS33      -0.2718
      5  CB        55.6770   85.2810   21.1250 C.3    33  HIS33       0.0759
      6  CG        54.5470   84.3180   20.9550 C.ar   33  HIS33       0.0818
      7  ND1       53.2380   84.7280   20.8040 N.ar   33  HIS33      -0.2268
      8  CD2       54.5200   82.9640   20.9330 C.ar   33  HIS33       0.1154
      9  CE1       52.4540   83.6690   20.6860 C.ar   33  HIS33       0.1986
     10  NE2       53.2070   82.5850   20.7710 N.ar   33  HIS33      -0.2212
     11  N         54.6660   84.8170   24.4000 N.am   34  GLU34      -0.1965
     12  CA        54.5900   83.7840   25.4340 C.3    34  GLU34       0.1733
     13  C         54.1240   82.4760   24.8620 C.2    34  GLU34       0.2616
     14  O         53.0920   82.4280   24.1970 O.2    34  GLU34      -0.2715
     15  CB        53.6390   84.1790   26.5380 C.3    34  GLU34       0.0429
     16  CG        54.3310   84.7740   27.7900 C.3    34  GLU34       0.1163
     17  CD        53.3060   85.0210   28.9120 C.2    34  GLU34       0.3649
     18  OE1       52.8870   84.0370   29.6060 O.co2  34  GLU34      -0.2457
     19  OE2       52.8860   86.1960   29.0510 O.co2  34  GLU34      -0.2457
     20  N         54.8750   81.4090   25.1130 N.am   35  ILE35      -0.1977
     21  CA        54.3650   80.0750   24.7930 C.3    35  ILE35       0.1596
     22  C         53.1430   79.7130   25.6640 C.2    35  ILE35       0.2287
     23  O         53.1990   79.7960   26.9090 O.2    35  ILE35      -0.2864
     24  CB        55.4600   79.0090   24.9000 C.3    35  ILE35       0.0276
     25  CG1       56.6990   79.4890   24.1110 C.3    35  ILE35       0.0022
     26  CG2       54.9510   77.6790   24.4050 C.3    35  ILE35       0.0022
     27  CD1       57.9290   78.6950   24.3600 C.3    35  ILE35       0.0001
     28  N         58.3060   70.6230   29.4280 N.3   314  GLY314     -0.1225
     29  CA        58.0820   71.9260   30.0480 C.3   314  GLY314      0.1811
     30  C         56.6630   72.4860   29.9620 C.2   314  GLY314      0.2280
     31  O         56.3820   73.5590   30.5080 O.2   314  GLY314     -0.2866
     32  N         52.9690   73.3430   30.7940 N.3   316  GLN316     -0.1245
     33  CA        52.5010   73.6590   32.1420 C.3   316  GLN316      0.1566
     34  C         51.1560   73.0250   32.5110 C.2   316  GLN316      0.2260
     35  O         51.0040   72.5070   33.6170 O.2   316  GLN316     -0.2867
     36  CB        52.4370   75.1790   32.3910 C.3   316  GLN316      0.0367
     37  CG        53.7830   75.9940   32.4680 C.3   316  GLN316      0.0905
     38  CD        54.9710   75.2700   33.1590 C.2   316  GLN316      0.2608
     39  OE1       54.8260   74.6110   34.2150 O.2   316  GLN316     -0.2717
     40  NE2       56.1710   75.4300   32.5670 N.am  316  GLN316     -0.0878
     41  N         69.0440   79.9790   23.0970 N.3   536  ASP536     -0.1239
     42  CA        68.3200   79.8560   24.3570 C.3   536  ASP536      0.1674
     43  C         69.0270   78.7790   25.2560 C.2   536  ASP536      0.2266
     44  O         68.7100   78.6260   26.4330 O.2   536  ASP536     -0.2867
     45  CB        66.8190   79.6200   23.9880 C.3   536  ASP536      0.1410
     46  CG        65.9010   79.2990   25.1790 C.2   536  ASP536      0.3668
     47  OD1       65.8590   80.0470   26.2080 O.co2 536  ASP536     -0.2456
     48  OD2       65.1570   78.2740   25.0670 O.co2 536  ASP536     -0.2456
     49  N         59.7680   78.8800   18.5580 N.3   601  LYS601     -0.1231
     50  CA        60.6170   78.7620   19.7500 C.3   601  LYS601      0.1693
     51  C         60.1270   77.6610   20.6700 C.2   601  LYS601      0.2593
     52  O         58.9480   77.2830   20.6410 O.2   601  LYS601     -0.2718
     53  CB        60.7120   80.0930   20.4810 C.3   601  LYS601      0.0285
     54  CG        59.4180   80.5690   21.0990 C.3   601  LYS601      0.0035
     55  CD        59.5330   82.0420   21.4010 C.3   601  LYS601      0.0206
     56  CE        59.0670   82.3250   22.7700 C.3   601  LYS601      0.1093
     57  NZ        59.6710   83.5700   23.2780 N.3   601  LYS601     -0.1314
     58  N         61.0370   77.1450   21.4810 N.am  602  SER602     -0.1938
     59  CA        60.6810   76.0740   22.4230 C.3   602  SER602      0.2055
     60  C         61.1880   76.2740   23.8530 C.2   602  SER602      0.2643
     61  O         62.1590   77.0300   24.0850 O.2   602  SER602     -0.2714
     62  CB        61.1660   74.7470   21.8580 C.3   602  SER602      0.2130
     63  OG        60.1850   74.2720   20.9220 O.3   602  SER602     -0.2179
     64  N         60.5370   75.5890   24.8040 N.am  603  ARG603     -0.1963
     65  CA        60.9270   75.6450   26.2160 C.3   603  ARG603      0.1729
     66  C         62.1950   74.8460   26.2480 C.2   603  ARG603      0.2616
     67  O         62.4140   73.9860   25.3940 O.2   603  ARG603     -0.2715
     68  CB        59.8790   75.0250   27.1320 C.3   603  ARG603      0.0348
     69  CG        58.4900   75.6690   27.0250 C.3   603  ARG603      0.0492
     70  CD        57.4530   74.9200   27.8530 C.3   603  ARG603      0.2205
     71  NE        56.1080   75.5370   27.8170 N.pl3 603  ARG603     -0.0865
     72  CZ        55.6640   76.5110   28.6330 C.cat 603  ARG603      0.5346
     73  NH1       56.4340   77.0060   29.6020 N.pl3 603  ARG603      0.1354
     74  NH2       54.4380   77.0000   28.4760 N.pl3 603  ARG603      0.1354
     75  N         63.0640   75.1610   27.2070 N.am  604  ALA604     -0.1977
     76  CA        64.3660   74.5030   27.3300 C.3   604  ALA604      0.1597
     77  C         64.2830   72.9620   27.2980 C.2   604  ALA604      0.2287
     78  O         64.9630   72.3150   26.4710 O.2   604  ALA604     -0.2864
     79  CB        65.1140   75.0200   28.5320 C.3   604  ALA604      0.0319
@<TRIPOS>BOND
     1    49    50    1
     2    50    53    1
     3    50    51    1
     4    53    54    1
     5    52    51    2
     6    51    58   am
     7     9    10   ar
     8     9     7   ar
     9    10     8   ar
    10     7     6   ar
    11    63    62    1
    12     8     6   ar
    13     6     5    1
    14    54    55    1
    15     5     2    1
    16    55    56    1
    17    58    59    1
    18    62    59    1
    19    59    60    1
    20     2     1    1
    21     2     3    1
    22    56    57    1
    23    41    42    1
    24     3     4    2
    25     3    11   am
    26    60    61    2
    27    60    64   am
    28    45    42    1
    29    45    46    1
    30    25    27    1
    31    25    24    1
    32    14    13    2
    33    42    43    1
    34    11    12    1
    35    26    24    1
    36    21    24    1
    37    21    20    1
    38    21    22    1
    39    64    65    1
    40    13    20   am
    41    13    12    1
    42    48    46   ar
    43    46    47   ar
    44    43    44    2
    45    67    66    2
    46    12    15    1
    47    22    23    2
    48    65    66    1
    49    65    68    1
    50    66    75   am
    51    78    77    2
    52    15    16    1
    53    69    68    1
    54    69    70    1
    55    75    76    1
    56    77    76    1
    57    76    79    1
    58    16    17    1
    59    71    70    1
    60    71    72    2
    61    74    72    1
    62    72    73    1
    63    17    19   ar
    64    17    18   ar
    65    28    29    1
    66    30    29    1
    67    30    31    2
    68    32    33    1
    69    33    36    1
    70    33    34    1
    71    36    37    1
    72    37    38    1
    73    34    35    2
    74    40    38   am
    75    38    39    2
