@<TRIPOS>MOLECULE
tmp/3zukB07.pdb
 154 151 0 0 0
SMALL
GASTEIGER

@<TRIPOS>ATOM
      1  N         83.0790   83.3440   23.6440 N.3   534  PRO534     -0.2102
      2  CA        82.6240   84.7410   23.6700 C.3   534  PRO534      0.1504
      3  C         81.4510   84.9440   22.7060 C.2   534  PRO534      0.2576
      4  O         81.5450   84.5090   21.5590 O.2   534  PRO534     -0.2718
      5  CB        83.8560   85.5150   23.2010 C.3   534  PRO534      0.0282
      6  CG        85.0180   84.7110   23.6380 C.3   534  PRO534      0.0208
      7  CD        84.5550   83.2490   23.5940 C.3   534  PRO534      0.0893
      8  N         80.3660   85.5810   23.1730 N.am  535  ARG535     -0.1966
      9  CA        79.1580   85.8280   22.3570 C.3   535  ARG535      0.1729
     10  C         79.4660   86.3440   20.9520 C.2   535  ARG535      0.2616
     11  O         78.8030   85.9880   20.0000 O.2   535  ARG535     -0.2715
     12  CB        78.1330   86.7580   23.0640 C.3   535  ARG535      0.0348
     13  CG        78.7540   87.8880   23.8470 C.3   535  ARG535      0.0492
     14  CD        78.0090   89.1630   23.7910 C.3   535  ARG535      0.2205
     15  NE        77.0630   89.4130   24.8940 N.pl3 535  ARG535     -0.0865
     16  CZ        77.0700   88.8600   26.1060 C.cat 535  ARG535      0.5346
     17  NH1       77.9720   87.9610   26.4600 N.pl3 535  ARG535      0.1354
     18  NH2       76.1340   89.2020   26.9680 N.pl3 535  ARG535      0.1354
     19  N         80.4870   87.1820   20.8310 N.am  536  ASP536     -0.1957
     20  CA        80.8300   87.7340   19.5540 C.3   536  ASP536      0.1840
     21  C         81.5510   86.7310   18.5950 C.2   536  ASP536      0.2621
     22  O         81.8020   87.0240   17.4150 O.2   536  ASP536     -0.2715
     23  CB        81.6090   89.0360   19.7660 C.3   536  ASP536      0.1450
     24  CG        81.6560   89.8840   18.5130 C.2   536  ASP536      0.3671
     25  OD1       80.6320   89.8960   17.7630 O.co2 536  ASP536     -0.2456
     26  OD2       82.7110   90.5080   18.2290 O.co2 536  ASP536     -0.2456
     27  N         81.8730   85.5400   19.0820 N.am  537  LEU537     -0.1977
     28  CA        82.6470   84.6020   18.2850 C.3   537  LEU537      0.1596
     29  C         81.9100   83.2710   18.0810 C.2   537  LEU537      0.2287
     30  O         82.5430   82.2940   17.6170 O.2   537  LEU537     -0.2864
     31  CB        84.0230   84.3290   18.9340 C.3   537  LEU537      0.0297
     32  CG        85.1110   85.4210   19.0090 C.3   537  LEU537      0.0022
     33  CD1       86.3890   84.9240   19.6890 C.3   537  LEU537      0.0001
     34  CD2       85.4660   86.0270   17.6530 C.3   537  LEU537      0.0001
     35  N         87.4090   79.6940   25.6730 N.3   546  VAL546     -0.1231
     36  CA        88.3380   80.0720   26.7360 C.3   546  VAL546      0.1692
     37  C         89.1370   78.8580   27.1410 C.2   546  VAL546      0.2591
     38  O         88.5800   77.7850   27.3250 O.2   546  VAL546     -0.2718
     39  CB        87.5980   80.6220   27.9970 C.3   546  VAL546      0.0266
     40  CG1       88.5860   80.8800   29.1320 C.3   546  VAL546      0.0020
     41  CG2       86.8110   81.8880   27.6380 C.3   546  VAL546      0.0020
     42  N         90.4360   79.0520   27.3130 N.am  547  GLN547     -0.1979
     43  CA        91.3280   78.0280   27.8870 C.3   547  GLN547      0.1601
     44  C         91.1150   77.9370   29.3930 C.2   547  GLN547      0.2287
     45  O         91.6850   78.7340   30.1770 O.2   547  GLN547     -0.2864
     46  CB        92.7960   78.3440   27.5560 C.3   547  GLN547      0.0394
     47  CG        93.1280   78.3830   26.0410 C.3   547  GLN547      0.0908
     48  CD        94.6380   78.5340   25.8030 C.2   547  GLN547      0.2608
     49  OE1       95.3820   77.5660   25.9820 O.2   547  GLN547     -0.2717
     50  NE2       95.0970   79.7570   25.4440 N.am  547  GLN547     -0.0878
     51  N         94.1830   77.7270   31.4800 N.3   550  PHE550     -0.1227
     52  CA        95.0950   78.8590   31.3810 C.3   550  PHE550      0.1736
     53  C         94.6400   79.9490   32.3500 C.2   550  PHE550      0.2596
     54  O         95.4620   80.5940   33.0430 O.2   550  PHE550     -0.2718
     55  CB        95.1270   79.3870   29.9360 C.3   550  PHE550      0.0547
     56  CG        96.0650   80.5760   29.7010 C.ar  550  PHE550     -0.0202
     57  CD1       97.2590   80.7450   30.4500 C.ar  550  PHE550     -0.0042
     58  CD2       95.7730   81.5080   28.6820 C.ar  550  PHE550     -0.0042
     59  CE1       98.1250   81.8490   30.2080 C.ar  550  PHE550     -0.0003
     60  CE2       96.6520   82.6110   28.4150 C.ar  550  PHE550     -0.0003
     61  CZ        97.8340   82.7720   29.1870 C.ar  550  PHE550     -0.0000
     62  N         93.3230   80.1330   32.3790 N.am  551  THR551     -0.1953
     63  CA        92.7070   81.2740   33.0110 C.3   551  THR551      0.1897
     64  C         92.3460   80.9500   34.4450 C.2   551  THR551      0.2313
     65  O         91.8270   81.8250   35.1780 O.2   551  THR551     -0.2863
     66  CB        91.4180   81.7020   32.2450 C.3   551  THR551      0.1794
     67  OG1       90.4940   80.5950   32.1390 O.3   551  THR551     -0.2208
     68  CG2       91.7820   82.1860   30.9100 C.3   551  THR551      0.0378
     69  N         84.9090   95.5730   25.1270 N.3   601  LYS601     -0.1231
     70  CA        84.7960   94.7600   23.9000 C.3   601  LYS601      0.1693
     71  C         86.0260   94.8930   23.0090 C.2   601  LYS601      0.2592
     72  O         86.7520   95.8950   23.0500 O.2   601  LYS601     -0.2718
     73  CB        83.5370   95.0790   23.0840 C.3   601  LYS601      0.0285
     74  CG        83.5480   96.4510   22.4520 C.3   601  LYS601      0.0035
     75  CD        82.1620   96.9690   22.1740 C.3   601  LYS601      0.0206
     76  CE        81.6800   96.5780   20.8070 C.3   601  LYS601      0.1093
     77  NZ        80.4040   97.2850   20.5880 N.3   601  LYS601     -0.1314
     78  N         86.2480   93.8690   22.2010 N.am  602  SER602     -0.1952
     79  CA        87.4240   93.7780   21.3740 C.3   602  SER602      0.1924
     80  C         87.0440   93.3330   19.9510 C.2   602  SER602      0.2314
     81  O         86.0820   92.5690   19.7570 O.2   602  SER602     -0.2863
     82  CB        88.3840   92.7730   22.0040 C.3   602  SER602      0.2116
     83  OG        88.9790   93.2960   23.1840 O.3   602  SER602     -0.2180
     84  N         90.2480   89.4850   20.0330 N.3   607  ALA607     -0.1245
     85  CA        89.5770   88.6060   20.9410 C.3   607  ALA607      0.1562
     86  C         90.2350   87.2310   20.8900 C.2   607  ALA607      0.2260
     87  O         90.6060   86.6730   21.9350 O.2   607  ALA607     -0.2867
     88  CB        88.1070   88.5220   20.5960 C.3   607  ALA607      0.0290
     89  N         93.5030   87.1150   22.3360 N.3   610  ARG610     -0.1231
     90  CA        93.5150   87.1120   23.8040 C.3   610  ARG610      0.1694
     91  C         93.1500   85.7690   24.3610 C.2   610  ARG610      0.2591
     92  O         93.6140   85.3930   25.4380 O.2   610  ARG610     -0.2718
     93  CB        92.6850   88.2230   24.4190 C.3   610  ARG610      0.0321
     94  CG        93.3920   89.5140   24.4640 C.3   610  ARG610      0.0489
     95  CD        92.3860   90.5630   24.8260 C.3   610  ARG610      0.2205
     96  NE        92.9020   91.9260   24.8240 N.pl3 610  ARG610     -0.0865
     97  CZ        93.7020   92.4410   25.7540 C.cat 610  ARG610      0.5346
     98  NH1       94.1240   91.6900   26.7680 N.pl3 610  ARG610      0.1354
     99  NH2       94.0780   93.7200   25.6690 N.pl3 610  ARG610      0.1354
    100  N         92.3280   85.0330   23.6220 N.am  611  LEU611     -0.1980
    101  CA        92.0160   83.6440   24.0020 C.3   611  LEU611      0.1596
    102  C         93.3090   82.8470   24.0620 C.2   611  LEU611      0.2287
    103  O         93.4670   81.9740   24.9250 O.2   611  LEU611     -0.2864
    104  CB        91.0020   83.0010   23.0470 C.3   611  LEU611      0.0297
    105  CG        89.5520   83.4510   23.2170 C.3   611  LEU611      0.0022
    106  CD1       88.6790   82.8390   22.1610 C.3   611  LEU611      0.0001
    107  CD2       89.0150   83.0700   24.5910 C.3   611  LEU611      0.0001
    108  N         96.2050   85.7830   26.7410 N.3   614  ASP614     -0.1239
    109  CA        95.8030   86.5340   27.9180 C.3   614  ASP614      0.1674
    110  C         95.2230   85.5720   28.9730 C.2   614  ASP614      0.2266
    111  O         94.1730   84.9440   28.7280 O.2   614  ASP614     -0.2867
    112  CB        94.7560   87.5410   27.5050 C.3   614  ASP614      0.1410
    113  CG        94.3590   88.4500   28.6260 C.2   614  ASP614      0.3668
    114  OD1       94.7360   88.1900   29.8120 O.co2 614  ASP614     -0.2456
    115  OD2       93.6480   89.4450   28.3000 O.co2 614  ASP614     -0.2456
    116  N         93.6450   86.2450   31.6770 N.3   616  HIS616     -0.1226
    117  CA        92.3130   86.6510   32.1340 C.3   616  HIS616      0.1752
    118  C         91.2220   86.1540   31.1780 C.2   616  HIS616      0.2597
    119  O         91.4310   85.9960   29.9600 O.2   616  HIS616     -0.2718
    120  CB        92.2380   88.1640   32.2190 C.3   616  HIS616      0.0759
    121  CG        93.3300   88.7570   33.0270 C.ar  616  HIS616      0.0818
    122  ND1       94.5240   89.1440   32.4680 N.ar  616  HIS616     -0.2268
    123  CD2       93.4380   88.9750   34.3620 C.ar  616  HIS616      0.1154
    124  CE1       95.3120   89.6120   33.4260 C.ar  616  HIS616      0.1986
    125  NE2       94.6860   89.4990   34.5880 N.ar  616  HIS616     -0.2212
    126  N         90.0420   85.9170   31.7240 N.am  617  SER617     -0.1938
    127  CA        88.9400   85.5060   30.8860 C.3   617  SER617      0.2040
    128  C         88.4120   86.7120   30.1270 C.2   617  SER617      0.2485
    129  O         88.7100   87.8450   30.5000 O.2   617  SER617     -0.2729
    130  CB        87.8630   84.8230   31.7430 C.3   617  SER617      0.2129
    131  OG        88.2810   83.5080   32.1260 O.3   617  SER617     -0.2179
    132  N         87.6570   86.4850   29.0480 N.am  618  PRO618     -0.2715
    133  CA        86.9600   87.6070   28.3950 C.3   618  PRO618      0.1521
    134  C         86.1380   88.3410   29.4360 C.2   618  PRO618      0.2440
    135  O         85.6300   87.7060   30.3760 O.2   618  PRO618     -0.2731
    136  CB        86.0390   86.9150   27.3780 C.3   618  PRO618      0.0310
    137  CG        86.7850   85.6970   26.9930 C.3   618  PRO618      0.0237
    138  CD        87.5150   85.2370   28.2830 C.3   618  PRO618      0.0939
    139  N         86.0180   89.6750   29.3050 N.am  619  PRO619     -0.2716
    140  CA        85.3480   90.3810   30.4150 C.3   619  PRO619      0.1536
    141  C         83.9070   89.9020   30.5760 C.2   619  PRO619      0.2598
    142  O         83.3910   89.9670   31.7010 O.2   619  PRO619     -0.2715
    143  CB        85.4370   91.8600   30.0360 C.3   619  PRO619      0.0310
    144  CG        85.7050   91.8280   28.5020 C.3   619  PRO619      0.0237
    145  CD        86.4810   90.5870   28.2420 C.3   619  PRO619      0.0939
    146  N         83.2690   89.3700   29.5280 N.am  620  GLU620     -0.1978
    147  CA        81.8730   88.8820   29.7230 C.3   620  GLU620      0.1602
    148  C         81.7380   87.6900   30.6970 C.2   620  GLU620      0.2287
    149  O         80.6530   87.4670   31.2710 O.2   620  GLU620     -0.2864
    150  CB        81.1470   88.5470   28.4020 C.3   620  GLU620      0.0415
    151  CG        81.5890   87.2340   27.7170 C.3   620  GLU620      0.1163
    152  CD        81.2590   87.2130   26.2160 C.2   620  GLU620      0.3649
    153  OE1       81.9910   87.8290   25.4240 O.co2 620  GLU620     -0.2457
    154  OE2       80.2790   86.5540   25.8190 O.co2 620  GLU620     -0.2457
@<TRIPOS>BOND
     1    22    21    2
     2    30    29    2
     3    34    32    1
     4    25    24   ar
     5    29    28    1
     6    26    24   ar
     7    28    31    1
     8    28    27    1
     9    24    23    1
    10    21    27   am
    11    21    20    1
    12    31    32    1
    13    32    33    1
    14    20    23    1
    15    20    19    1
    16    81    80    2
    17    80    79    1
    18    11    10    2
    19    84    85    1
    20    77    76    1
    21    88    85    1
    22    76    75    1
    23    19    10   am
    24    86    85    1
    25    86    87    2
    26    10     9    1
    27    79    82    1
    28    79    78    1
    29     4     3    2
    30    82    83    1
    31   106   105    1
    32    75    74    1
    33    78    71   am
    34    89    90    1
    35     9    12    1
    36     9     8    1
    37    74    73    1
    38     3     8   am
    39     3     2    1
    40    71    72    2
    41    71    70    1
    42   104   105    1
    43   104   101    1
    44    12    13    1
    45    73    70    1
    46     5     6    1
    47     5     2    1
    48   105   107    1
    49     7     6    1
    50     7     1    1
    51   100   101    1
    52   100    91   am
    53     1     2    1
    54    14    13    1
    55    14    15    1
    56    90    91    1
    57    90    93    1
    58    70    69    1
    59   101   102    1
    60   102   103    2
    61    91    92    2
    62    93    94    1
    63    94    95    1
    64    96    95    1
    65    96    97    2
    66    15    16    2
    67   153   152   ar
    68    50    48   am
    69    99    97    1
    70    35    36    1
    71    97    98    1
    72    48    49    2
    73    48    47    1
    74   154   152   ar
    75    47    46    1
    76    16    17    1
    77    16    18    1
    78   152   151    1
    79    36    37    1
    80    36    39    1
    81   108   109    1
    82   137   136    1
    83   137   138    1
    84    37    42   am
    85    37    38    2
    86    42    43    1
    87   136   133    1
    88   112   109    1
    89   112   113    1
    90    46    43    1
    91    41    39    1
    92   151   150    1
    93    43    44    1
    94   109   110    1
    95    39    40    1
    96   145   144    1
    97   145   139    1
    98   138   132    1
    99   115   113   ar
   100   133   132    1
   101   133   134    1
   102   150   147    1
   103    60    58   ar
   104    60    61   ar
   105   144   143    1
   106   113   114   ar
   107    58    56   ar
   108   111   110    2
   109   132   128   am
   110    61    59   ar
   111   139   134   am
   112   139   140    1
   113    44    45    2
   114   134   135    2
   115   146   147    1
   116   146   141   am
   117    56    55    1
   118    56    57   ar
   119   147   148    1
   120    55    52    1
   121   119   118    2
   122   143   140    1
   123   128   129    2
   124   128   127    1
   125    59    57   ar
   126   140   141    1
   127   141   142    2
   128   148   149    2
   129   127   126    1
   130   127   130    1
   131    68    66    1
   132   118   126   am
   133   118   117    1
   134    52    51    1
   135    52    53    1
   136   116   117    1
   137   130   131    1
   138   117   120    1
   139    67    66    1
   140   120   121    1
   141    66    63    1
   142    53    62   am
   143    53    54    2
   144    62    63    1
   145   122   121   ar
   146   122   124   ar
   147    63    64    1
   148   121   123   ar
   149   124   125   ar
   150   123   125   ar
   151    64    65    2
