@<TRIPOS>MOLECULE
tmp/3zukA18.pdb
 93 86 0 0 0
SMALL
GASTEIGER

@<TRIPOS>ATOM
      1  N         48.2870   74.8490   12.6660 N.3    49  PHE49      -0.1241
      2  CA        47.7370   73.6800   13.3550 C.3    49  PHE49       0.1605
      3  C         46.4280   74.0780   14.0400 C.2    49  PHE49       0.2264
      4  O         45.3880   73.4860   13.7920 O.2    49  PHE49      -0.2867
      5  CB        48.7520   73.1340   14.3720 C.3    49  PHE49       0.0534
      6  CG        48.2580   71.9370   15.1840 C.ar   49  PHE49      -0.0203
      7  CD1       48.4800   70.6350   14.7410 C.ar   49  PHE49      -0.0042
      8  CD2       47.6200   72.1190   16.4210 C.ar   49  PHE49      -0.0042
      9  CE1       48.0390   69.5220   15.4920 C.ar   49  PHE49      -0.0003
     10  CE2       47.2000   71.0210   17.1930 C.ar   49  PHE49      -0.0003
     11  CZ        47.3970   69.7210   16.7230 C.ar   49  PHE49      -0.0000
     12  N         43.4630   74.8370   11.7540 N.3    52  ALA52      -0.1231
     13  CA        42.9640   73.5460   11.2530 C.3    52  ALA52       0.1694
     14  C         42.2990   72.6590   12.3320 C.2    52  ALA52       0.2591
     15  O         41.3210   71.9680   12.0390 O.2    52  ALA52      -0.2718
     16  CB        44.0590   72.7770   10.4870 C.3    52  ALA52       0.0304
     17  N         42.8200   72.7050   13.5630 N.am   53  GLU53      -0.1979
     18  CA        42.2450   72.0090   14.7200 C.3    53  GLU53       0.1602
     19  C         40.7880   72.4470   15.0250 C.2    53  GLU53       0.2287
     20  O         39.9280   71.6040   15.3040 O.2    53  GLU53      -0.2864
     21  CB        43.1360   72.2030   15.9610 C.3    53  GLU53       0.0415
     22  CG        42.6790   71.4440   17.2610 C.3    53  GLU53       0.1163
     23  CD        43.5570   71.7440   18.4970 C.2    53  GLU53       0.3649
     24  OE1       43.6260   72.9230   18.9280 O.co2  53  GLU53      -0.2457
     25  OE2       44.1770   70.7920   19.0350 O.co2  53  GLU53      -0.2457
     26  N         38.3900   71.1700   12.0310 N.3    56  VAL56      -0.1245
     27  CA        38.1250   69.7710   12.2420 C.3    56  VAL56       0.1561
     28  C         37.1380   69.6250   13.3720 C.2    56  VAL56       0.2260
     29  O         36.2050   68.8380   13.2680 O.2    56  VAL56      -0.2867
     30  CB        39.4200   69.0180   12.5850 C.3    56  VAL56       0.0252
     31  CG1       39.1270   67.7130   13.2850 C.3    56  VAL56       0.0019
     32  CG2       40.2130   68.7560   11.3360 C.3    56  VAL56       0.0019
     33  N         40.4280   69.4280   22.6900 N.3   323  LYS323     -0.1245
     34  CA        41.6510   69.3000   21.8820 C.3   323  LYS323      0.1561
     35  C         42.0670   67.8480   21.8060 C.2   323  LYS323      0.2260
     36  O         42.3140   67.3110   20.7140 O.2   323  LYS323     -0.2867
     37  CB        42.7920   70.1600   22.4440 C.3   323  LYS323      0.0271
     38  CG        42.7470   71.6110   21.9590 C.3   323  LYS323      0.0035
     39  CD        43.6620   72.5220   22.7390 C.3   323  LYS323      0.0206
     40  CE        43.5040   73.9560   22.2840 C.3   323  LYS323      0.1093
     41  NZ        44.6700   74.7500   22.7130 N.3   323  LYS323     -0.1314
     42  N         39.8660   65.6590   19.5940 N.3   326  VAL326     -0.1231
     43  CA        40.2230   65.8160   18.1880 C.3   326  VAL326      0.1692
     44  C         41.4010   64.9010   17.7750 C.2   326  VAL326      0.2592
     45  O         41.3420   64.2640   16.7220 O.2   326  VAL326     -0.2718
     46  CB        40.4430   67.3210   17.8430 C.3   326  VAL326      0.0266
     47  CG1       41.0500   67.5000   16.4740 C.3   326  VAL326      0.0020
     48  CG2       39.1120   68.0800   17.9410 C.3   326  VAL326      0.0020
     49  N         42.4420   64.8150   18.6110 N.am  327  SER327     -0.1952
     50  CA        43.5660   63.8770   18.3920 C.3   327  SER327      0.1924
     51  C         43.0930   62.4360   18.2490 C.2   327  SER327      0.2314
     52  O         43.5490   61.6900   17.3430 O.2   327  SER327     -0.2863
     53  CB        44.5210   63.9000   19.5680 C.3   327  SER327      0.2116
     54  OG        45.0780   65.1660   19.6860 O.3   327  SER327     -0.2180
     55  N         41.5460   62.0120   14.9670 N.3   330  GLU330     -0.1245
     56  CA        42.6800   62.0260   14.0070 C.3   330  GLU330      0.1567
     57  C         43.5400   60.7450   13.9450 C.2   330  GLU330      0.2260
     58  O         43.8740   60.2840   12.8500 O.2   330  GLU330     -0.2867
     59  CB        43.6040   63.2230   14.2730 C.3   330  GLU330      0.0388
     60  CG        42.9250   64.5920   14.1790 C.3   330  GLU330      0.1160
     61  CD        42.7690   65.1260   12.7440 C.2   330  GLU330      0.3649
     62  OE1       42.6830   64.3270   11.7690 O.co2 330  GLU330     -0.2457
     63  OE2       42.7080   66.3690   12.5960 O.co2 330  GLU330     -0.2457
     64  N         47.4620   62.9110    6.5050 N.3   441  THR441     -0.1218
     65  CA        46.1070   63.4060    6.1540 C.3   441  THR441      0.1862
     66  C         46.1290   64.8090    5.5270 C.2   441  THR441      0.2287
     67  O         47.0460   65.5790    5.7670 O.2   441  THR441     -0.2866
     68  CB        45.1770   63.4280    7.4000 C.3   441  THR441      0.1770
     69  OG1       45.6910   64.3420    8.3720 O.3   441  THR441     -0.2211
     70  CG2       45.0460   62.0150    8.0180 C.3   441  THR441      0.0375
     71  N         44.6380   67.5130    6.2590 N.3   443  GLN443     -0.1231
     72  CA        44.6610   68.4860    7.3710 C.3   443  GLN443      0.1698
     73  C         45.9940   68.5900    8.1580 C.2   443  GLN443      0.2593
     74  O         46.1060   69.3980    9.0910 O.2   443  GLN443     -0.2718
     75  CB        43.4780   68.2440    8.3310 C.3   443  GLN443      0.0381
     76  CG        43.4490   66.9020    9.0660 C.3   443  GLN443      0.0905
     77  CD        42.7410   65.7810    8.2990 C.2   443  GLN443      0.2608
     78  OE1       42.7340   65.7610    7.0830 O.2   443  GLN443     -0.2717
     79  NE2       42.1760   64.8180    9.0240 N.am  443  GLN443     -0.0878
     80  N         46.9900   67.7830    7.7830 N.am  444  THR444     -0.1939
     81  CA        48.3280   67.8290    8.3830 C.3   444  THR444      0.2028
     82  C         49.1930   69.0140    7.8530 C.2   444  THR444      0.2642
     83  O         49.3920   69.1980    6.6520 O.2   444  THR444     -0.2714
     84  CB        49.0460   66.4490    8.2350 C.3   444  THR444      0.1808
     85  OG1       48.2600   65.4070    8.8600 O.3   444  THR444     -0.2208
     86  CG2       50.4140   66.4570    8.8650 C.3   444  THR444      0.0379
     87  N         49.7190   69.8160    8.7680 N.am  445  VAL445     -0.1977
     88  CA        50.5840   70.9120    8.4070 C.3   445  VAL445      0.1596
     89  C         52.0440   70.4060    8.3790 C.2   445  VAL445      0.2287
     90  O         52.8080   70.6140    9.3130 O.2   445  VAL445     -0.2864
     91  CB        50.3840   72.1110    9.3860 C.3   445  VAL445      0.0276
     92  CG1       51.2180   73.3140    8.9640 C.3   445  VAL445      0.0022
     93  CG2       48.8750   72.4760    9.5180 C.3   445  VAL445      0.0022
@<TRIPOS>BOND
     1    66    67    2
     2    66    65    1
     3    65    64    1
     4    65    68    1
     5    71    72    1
     6    83    82    2
     7    78    77    2
     8    72    73    1
     9    72    75    1
    10    68    70    1
    11    68    69    1
    12    80    73   am
    13    80    81    1
    14    82    81    1
    15    82    87   am
    16    73    74    2
    17    84    81    1
    18    84    85    1
    19    84    86    1
    20    77    79   am
    21    77    76    1
    22    75    76    1
    23    89    88    1
    24    89    90    2
    25    88    87    1
    26    88    91    1
    27    92    91    1
    28    91    93    1
    29    16    13    1
    30    13    12    1
    31    13    14    1
    32    32    30    1
    33    62    61   ar
    34    26    27    1
    35    15    14    2
    36    27    30    1
    37    27    28    1
    38    14    17   am
    39    30    31    1
    40    63    61   ar
    41     1     2    1
    42    61    60    1
    43    58    57    2
    44    29    28    2
    45     2     3    1
    46     2     5    1
    47    17    18    1
    48     4     3    2
    49    57    56    1
    50    56    59    1
    51    56    55    1
    52    60    59    1
    53     5     6    1
    54    18    19    1
    55    18    21    1
    56     7     6   ar
    57     7     9   ar
    58    19    20    2
    59     6     8   ar
    60     9    11   ar
    61    21    22    1
    62     8    10   ar
    63    47    46    1
    64    45    44    2
    65    11    10   ar
    66    22    23    1
    67    52    51    2
    68    44    43    1
    69    44    49   am
    70    46    48    1
    71    46    43    1
    72    43    42    1
    73    51    50    1
    74    50    49    1
    75    50    53    1
    76    23    24   ar
    77    23    25   ar
    78    53    54    1
    79    36    35    2
    80    35    34    1
    81    34    37    1
    82    34    33    1
    83    38    37    1
    84    38    39    1
    85    40    41    1
    86    40    39    1
