@<TRIPOS>MOLECULE
tmp/3zukB12.pdb
 91 88 0 0 0
SMALL
GASTEIGER

@<TRIPOS>ATOM
      1  N        111.9820   81.2060   27.6960 N.3   150  GLN150     -0.1231
      2  CA       111.8530   80.9620   26.2580 C.3   150  GLN150      0.1698
      3  C        111.5330   82.2300   25.4300 C.2   150  GLN150      0.2593
      4  O        110.8410   83.1360   25.8730 O.2   150  GLN150     -0.2718
      5  CB       110.8190   79.8730   25.9890 C.3   150  GLN150      0.0381
      6  CG       109.4950   80.1600   26.6150 C.3   150  GLN150      0.0905
      7  CD       108.5430   79.0310   26.4830 C.2   150  GLN150      0.2608
      8  OE1      108.8990   77.8830   26.6720 O.2   150  GLN150     -0.2717
      9  NE2      107.3100   79.3440   26.1560 N.am  150  GLN150     -0.0878
     10  N        112.0580   82.2690   24.2170 N.am  151  SER151     -0.1938
     11  CA       111.8780   83.4160   23.3580 C.3   151  SER151      0.2055
     12  C        112.1610   83.0270   21.8980 C.2   151  SER151      0.2644
     13  O        112.1750   81.8310   21.5640 O.2   151  SER151     -0.2714
     14  CB       112.7850   84.5510   23.8490 C.3   151  SER151      0.2130
     15  OG       112.6170   85.7310   23.1010 O.3   151  SER151     -0.2179
     16  N        112.3560   84.0200   21.0370 N.am  152  GLY152     -0.1939
     17  CA       112.9430   83.7680   19.7060 C.3   152  GLY152      0.2014
     18  C        111.9570   83.7620   18.5470 C.2   152  GLY152      0.2638
     19  O        112.3490   83.5340   17.4040 O.2   152  GLY152     -0.2714
     20  N        110.6820   84.0100   18.8310 N.am  153  ILE153     -0.1977
     21  CA       109.6290   83.8540   17.8180 C.3   153  ILE153      0.1596
     22  C        108.9280   85.1720   17.4940 C.2   153  ILE153      0.2287
     23  O        108.9570   86.1080   18.2930 O.2   153  ILE153     -0.2864
     24  CB       108.5920   82.7890   18.2200 C.3   153  ILE153      0.0276
     25  CG1      107.9720   83.1440   19.5800 C.3   153  ILE153      0.0022
     26  CG2      109.2630   81.4190   18.2370 C.3   153  ILE153      0.0022
     27  CD1      106.6870   82.4370   19.8500 C.3   153  ILE153      0.0001
     28  N        105.6410   85.4980   16.1820 N.3   155  LEU155     -0.1231
     29  CA       104.2150   85.5020   16.4710 C.3   155  LEU155      0.1678
     30  C        103.9140   85.5800   17.9870 C.2   155  LEU155      0.2434
     31  O        104.8360   85.4490   18.7910 O.2   155  LEU155     -0.2733
     32  CB       103.5530   84.3230   15.7690 C.3   155  LEU155      0.0284
     33  CG       103.8920   84.3570   14.2770 C.3   155  LEU155      0.0019
     34  CD1      103.4670   83.0960   13.6120 C.3   155  LEU155      0.0001
     35  CD2      103.2480   85.5510   13.6310 C.3   155  LEU155      0.0001
     36  N        102.6340   85.8240   18.3820 N.am  156  PRO156     -0.2718
     37  CA       102.3160   86.0980   19.8060 C.3   156  PRO156      0.1535
     38  C        102.5490   84.9100   20.7650 C.2   156  PRO156      0.2599
     39  O        102.7300   85.1080   21.9680 O.2   156  PRO156     -0.2715
     40  CB       100.8170   86.4790   19.7840 C.3   156  PRO156      0.0310
     41  CG       100.5220   86.8520   18.3550 C.3   156  PRO156      0.0237
     42  CD       101.4370   85.9840   17.5230 C.3   156  PRO156      0.0939
     43  N        102.5360   83.6920   20.2240 N.am  157  ASP157     -0.1958
     44  CA       102.6710   82.4920   21.0270 C.3   157  ASP157      0.1840
     45  C        103.0780   81.3190   20.1770 C.2   157  ASP157      0.2621
     46  O        102.7710   81.2530   18.9940 O.2   157  ASP157     -0.2715
     47  CB       101.3570   82.1460   21.7280 C.3   157  ASP157      0.1450
     48  CG       101.4950   80.9540   22.6700 C.2   157  ASP157      0.3671
     49  OD1      102.1360   81.1050   23.7380 O.co2 157  ASP157     -0.2456
     50  OD2      100.9920   79.8670   22.3220 O.co2 157  ASP157     -0.2456
     51  N        103.7430   80.3700   20.8280 N.am  158  GLU158     -0.1977
     52  CA       104.1790   79.1170   20.2240 C.3   158  GLU158      0.1602
     53  C        103.0840   78.4670   19.3830 C.2   158  GLU158      0.2287
     54  O        103.3520   77.9230   18.3200 O.2   158  GLU158     -0.2864
     55  CB       104.6520   78.2010   21.3480 C.3   158  GLU158      0.0415
     56  CG       104.5550   76.7570   21.0870 C.3   158  GLU158      0.1163
     57  CD       103.2090   76.2020   21.4610 C.2   158  GLU158      0.3649
     58  OE1      102.7070   76.5290   22.5580 O.co2 158  GLU158     -0.2457
     59  OE2      102.6420   75.4480   20.6400 O.co2 158  GLU158     -0.2457
     60  N        109.2550   75.3850   22.7290 N.3   210  HIS210     -0.1241
     61  CA       108.5150   76.1930   23.7160 C.3   210  HIS210      0.1621
     62  C        107.4710   75.3940   24.5110 C.2   210  HIS210      0.2264
     63  O        106.7790   74.5170   23.9990 O.2   210  HIS210     -0.2867
     64  CB       107.7740   77.3450   23.0250 C.3   210  HIS210      0.0745
     65  CG       108.6160   78.5560   22.7540 C.ar  210  HIS210      0.0817
     66  ND1      108.1160   79.8380   22.8480 N.ar  210  HIS210     -0.2268
     67  CD2      109.9180   78.6830   22.4030 C.ar  210  HIS210      0.1154
     68  CE1      109.0720   80.6990   22.5590 C.ar  210  HIS210      0.1986
     69  NE2      110.1790   80.0230   22.3020 N.ar  210  HIS210     -0.2212
     70  N        103.5140   76.7500   31.2380 N.3   216  ARG216     -0.1245
     71  CA       104.4420   77.8370   31.4970 C.3   216  ARG216      0.1563
     72  C        104.1290   78.6260   32.7810 C.2   216  ARG216      0.2260
     73  O        104.9920   79.3170   33.3240 O.2   216  ARG216     -0.2867
     74  CB       104.4090   78.7430   30.2690 C.3   216  ARG216      0.0307
     75  CG       105.4380   79.7920   30.1490 C.3   216  ARG216      0.0489
     76  CD       105.1910   80.4940   28.8170 C.3   216  ARG216      0.2205
     77  NE       105.1360   81.9520   28.9390 N.pl3 216  ARG216     -0.0865
     78  CZ       104.5530   82.7780   28.0570 C.cat 216  ARG216      0.5346
     79  NH1      103.9480   82.3000   26.9560 N.pl3 216  ARG216      0.1354
     80  NH2      104.5840   84.1060   28.2560 N.pl3 216  ARG216      0.1354
     81  N        115.0560   89.6250   14.0620 N.3   287  ARG287     -0.1245
     82  CA       114.8610   90.1020   15.4400 C.3   287  ARG287      0.1563
     83  C        115.1050   91.5850   15.5390 C.2   287  ARG287      0.2260
     84  O        114.3280   92.2930   16.1950 O.2   287  ARG287     -0.2867
     85  CB       115.8010   89.4310   16.4400 C.3   287  ARG287      0.0307
     86  CG       115.5940   87.9610   16.7290 C.3   287  ARG287      0.0489
     87  CD       114.2910   87.6580   17.3720 C.3   287  ARG287      0.2205
     88  NE       113.2420   87.4950   16.3760 N.pl3 287  ARG287     -0.0865
     89  CZ       111.9420   87.3720   16.6750 C.cat 287  ARG287      0.5346
     90  NH1      111.5240   87.3790   17.9700 N.pl3 287  ARG287      0.1354
     91  NH2      111.0470   87.2350   15.6840 N.pl3 287  ARG287      0.1354
@<TRIPOS>BOND
     1    34    33    1
     2    35    33    1
     3    81    82    1
     4    33    32    1
     5    82    83    1
     6    82    85    1
     7    83    84    2
     8    91    89    1
     9    32    29    1
    10    28    29    1
    11    88    89    2
    12    88    87    1
    13    85    86    1
    14    29    30    1
    15    89    90    1
    16    86    87    1
    17    19    18    2
    18    22    21    1
    19    22    23    2
    20    42    41    1
    21    42    36    1
    22    21    24    1
    23    21    20    1
    24    30    36   am
    25    30    31    2
    26    24    26    1
    27    24    25    1
    28    54    53    2
    29    41    40    1
    30    36    37    1
    31    18    20   am
    32    18    17    1
    33    46    45    2
    34    53    52    1
    35    25    27    1
    36    17    16    1
    37    40    37    1
    38    37    38    1
    39    45    51   am
    40    45    44    1
    41    52    51    1
    42    52    55    1
    43    43    38   am
    44    43    44    1
    45    59    57   ar
    46    38    39    2
    47    44    47    1
    48    16    12   am
    49    56    55    1
    50    56    57    1
    51    57    58   ar
    52    13    12    2
    53    47    48    1
    54    12    11    1
    55    69    67   ar
    56    69    68   ar
    57    50    48   ar
    58    67    65   ar
    59    68    66   ar
    60    48    49   ar
    61    60    61    1
    62    65    66   ar
    63    65    64    1
    64    64    61    1
    65    15    14    1
    66    11    14    1
    67    11    10    1
    68    61    62    1
    69    63    62    2
    70    10     3   am
    71     3     4    2
    72     3     2    1
    73     5     2    1
    74     5     6    1
    75     9     7   am
    76     2     1    1
    77     7     6    1
    78     7     8    2
    79    79    78    1
    80    78    80    1
    81    78    77    2
    82    76    77    1
    83    76    75    1
    84    75    74    1
    85    74    71    1
    86    70    71    1
    87    71    72    1
    88    72    73    2
