@<TRIPOS>MOLECULE
tmp/3zukA12.pdb
 114 110 0 0 0
SMALL
GASTEIGER

@<TRIPOS>ATOM
      1  N         57.2930   92.1580   13.2410 N.3    10  HIS10      -0.1241
      2  CA        58.1170   91.5380   14.2750 C.3    10  HIS10       0.1621
      3  C         59.6430   91.6660   14.1050 C.2    10  HIS10       0.2264
      4  O         60.4230   91.0000   14.7960 O.2    10  HIS10      -0.2867
      5  CB        57.6920   90.0890   14.4470 C.3    10  HIS10       0.0745
      6  CG        56.3050   89.9600   14.9790 C.ar   10  HIS10       0.0817
      7  ND1       55.2460   89.5040   14.2130 N.ar   10  HIS10      -0.2268
      8  CD2       55.7900   90.2800   16.1940 C.ar   10  HIS10       0.1154
      9  CE1       54.1470   89.5190   14.9480 C.ar   10  HIS10       0.1986
     10  NE2       54.4480   89.9890   16.1510 N.ar   10  HIS10      -0.2212
     11  N         61.4540   90.5440   17.5640 N.3    28  ARG28      -0.1231
     12  CA        60.4520   91.0600   18.5010 C.3    28  ARG28       0.1694
     13  C         59.5810   89.9240   19.0120 C.2    28  ARG28       0.2592
     14  O         59.2700   89.8490   20.1830 O.2    28  ARG28      -0.2718
     15  CB        59.6320   92.2310   17.9280 C.3    28  ARG28       0.0321
     16  CG        58.8490   93.0480   18.9950 C.3    28  ARG28       0.0489
     17  CD        58.2590   94.4120   18.4770 C.3    28  ARG28       0.2205
     18  NE        57.1980   94.2530   17.4670 N.pl3  28  ARG28      -0.0865
     19  CZ        55.9110   93.9380   17.7250 C.cat  28  ARG28       0.5346
     20  NH1       55.4740   93.7430   18.9740 N.pl3  28  ARG28       0.1354
     21  NH2       55.0380   93.8160   16.7280 N.pl3  28  ARG28       0.1354
     22  N         59.2300   89.0130   18.1190 N.am   29  TRP29      -0.1976
     23  CA        58.4230   87.8570   18.4660 C.3    29  TRP29       0.1640
     24  C         59.2220   86.9130   19.3830 C.2    29  TRP29       0.2290
     25  O         58.7100   86.4520   20.3900 O.2    29  TRP29      -0.2864
     26  CB        57.9500   87.1700   17.1820 C.3    29  TRP29       0.0576
     27  CG        56.9810   86.0250   17.3930 C.ar   29  TRP29       0.0006
     28  CD1       55.6140   86.0920   17.3850 C.ar   29  TRP29       0.0946
     29  CD2       57.3060   84.6510   17.6100 C.ar   29  TRP29       0.0152
     30  NE1       55.0720   84.8480   17.6020 N.ar   29  TRP29      -0.2442
     31  CE2       56.0870   83.9480   17.7540 C.ar   29  TRP29       0.0810
     32  CE3       58.5040   83.9440   17.7040 C.ar   29  TRP29       0.0012
     33  CZ2       56.0400   82.5700   17.9850 C.ar   29  TRP29       0.0191
     34  CZ3       58.4570   82.5650   17.9420 C.ar   29  TRP29       0.0001
     35  CH2       57.2390   81.9000   18.0720 C.ar   29  TRP29       0.0015
     36  N         59.1670   88.5180   22.9360 N.3    32  GLU32      -0.1231
     37  CA        57.8980   88.8600   23.5830 C.3    32  GLU32       0.1699
     38  C         56.8550   87.7540   23.6240 C.2    32  GLU32       0.2592
     39  O         56.0290   87.7340   24.5310 O.2    32  GLU32      -0.2718
     40  CB        57.2630   90.0570   22.8810 C.3    32  GLU32       0.0402
     41  CG        57.9830   91.3780   23.1120 C.3    32  GLU32       0.1161
     42  CD        57.4030   92.5250   22.3020 C.2    32  GLU32       0.3649
     43  OE1       56.7020   92.2720   21.3080 O.co2  32  GLU32      -0.2457
     44  OE2       57.6550   93.6920   22.6510 O.co2  32  GLU32      -0.2457
     45  N         56.8440   86.8620   22.6350 N.am   33  HIS33      -0.1976
     46  CA        55.7130   85.9380   22.5070 C.3    33  HIS33       0.1656
     47  C         55.7290   84.8800   23.6090 C.2    33  HIS33       0.2291
     48  O         56.7020   84.1540   23.7650 O.2    33  HIS33      -0.2864
     49  CB        55.6770   85.2810   21.1250 C.3    33  HIS33       0.0771
     50  CG        54.5470   84.3180   20.9550 C.ar   33  HIS33       0.0820
     51  ND1       53.2380   84.7280   20.8040 N.ar   33  HIS33      -0.2267
     52  CD2       54.5200   82.9640   20.9330 C.ar   33  HIS33       0.1154
     53  CE1       52.4540   83.6690   20.6860 C.ar   33  HIS33       0.1986
     54  NE2       53.2070   82.5850   20.7710 N.ar   33  HIS33      -0.2212
     55  N         52.0340   79.3340   25.0170 N.3    36  PRO36      -0.2116
     56  CA        50.8470   78.9360   25.7730 C.3    36  PRO36       0.1372
     57  C         51.1160   77.7670   26.7360 C.2    36  PRO36       0.2244
     58  O         51.9040   76.8890   26.4400 O.2    36  PRO36      -0.2868
     59  CB        49.8430   78.5490   24.6830 C.3    36  PRO36       0.0268
     60  CG        50.3330   79.2490   23.4340 C.3    36  PRO36       0.0207
     61  CD        51.8140   79.3550   23.5620 C.3    36  PRO36       0.0892
     62  N         51.3890   73.9620   25.7700 N.3    39  ARG39      -0.1245
     63  CA        52.3100   73.7690   24.6520 C.3    39  ARG39       0.1563
     64  C         53.7340   73.8690   25.1640 C.2    39  ARG39       0.2260
     65  O         54.0310   74.6190   26.1080 O.2    39  ARG39      -0.2867
     66  CB        52.1750   74.9290   23.6100 C.3    39  ARG39       0.0307
     67  CG        51.0360   74.8550   22.6210 C.3    39  ARG39       0.0489
     68  CD        50.7620   76.2160   21.9070 C.3    39  ARG39       0.2205
     69  NE        49.4840   76.2140   21.1530 N.pl3  39  ARG39      -0.0865
     70  CZ        48.2550   76.1870   21.6970 C.cat  39  ARG39       0.5346
     71  NH1       48.0850   76.1840   23.0030 N.pl3  39  ARG39       0.1354
     72  NH2       47.1710   76.1500   20.9310 N.pl3  39  ARG39       0.1354
     73  N         55.8080   76.9080   20.0790 N.3    42  ASP42      -0.1225
     74  CA        54.8900   77.7980   19.3810 C.3    42  ASP42       0.1805
     75  C         55.6060   78.4660   18.1860 C.2    42  ASP42       0.2598
     76  O         56.8450   78.5970   18.1710 O.2    42  ASP42      -0.2718
     77  CB        54.2500   78.8410   20.3530 C.3    42  ASP42       0.1424
     78  CG        52.8110   79.2920   19.9170 C.2    42  ASP42       0.3668
     79  OD1       52.2470   78.6640   18.9880 O.co2  42  ASP42      -0.2456
     80  OD2       52.2530   80.2800   20.4760 O.co2  42  ASP42      -0.2456
     81  N         54.8110   78.8920   17.2030 N.am   43  GLY43      -0.1942
     82  CA        55.3270   79.5460   16.0320 C.3    43  GLY43       0.2014
     83  C         54.4450   79.3130   14.8490 C.2    43  GLY43       0.2638
     84  O         53.3190   78.8240   14.9980 O.2    43  GLY43      -0.2714
     85  N         54.9650   79.6750   13.6770 N.am   44  ALA44      -0.1977
     86  CA        54.3630   79.4120   12.3610 C.3    44  ALA44       0.1597
     87  C         53.5250   78.1240   12.2380 C.2    44  ALA44       0.2287
     88  O         52.3520   78.1860   11.8820 O.2    44  ALA44      -0.2864
     89  CB        55.4690   79.4100   11.2920 C.3    44  ALA44       0.0319
     90  N         50.6060   77.8200   14.5640 N.3    47  SER47      -0.1217
     91  CA        49.5720   78.7930   14.2450 C.3    47  SER47       0.1889
     92  C         48.5570   78.1810   13.2850 C.2    47  SER47       0.2288
     93  O         47.3460   78.2610   13.5140 O.2    47  SER47      -0.2866
     94  CB        50.1820   80.0490   13.6560 C.3    47  SER47       0.2089
     95  OG        49.1770   81.0190   13.4650 O.3    47  SER47      -0.2183
     96  N         46.5070   75.1090   14.8770 N.3    50  ASP50      -0.1239
     97  CA        45.3800   75.6170   15.6440 C.3    50  ASP50       0.1674
     98  C         44.1930   75.9870   14.7860 C.2    50  ASP50       0.2266
     99  O         43.0790   75.6230   15.1240 O.2    50  ASP50      -0.2867
    100  CB        45.8150   76.8010   16.4880 C.3    50  ASP50       0.1410
    101  CG        46.6670   76.3910   17.6830 C.2    50  ASP50       0.3668
    102  OD1       46.9080   75.1680   17.8920 O.co2  50  ASP50      -0.2456
    103  OD2       47.1000   77.3090   18.4220 O.co2  50  ASP50      -0.2456
    104  N         59.8430   80.7620   12.0180 N.3   599  ARG599     -0.1245
    105  CA        59.4910   81.4760   13.2610 C.3   599  ARG599      0.1563
    106  C         58.9400   80.4740   14.2730 C.2   599  ARG599      0.2260
    107  O         57.7560   80.1420   14.2320 O.2   599  ARG599     -0.2867
    108  CB        58.5010   82.6220   13.0110 C.3   599  ARG599      0.0307
    109  CG        58.0390   83.3330   14.2750 C.3   599  ARG599      0.0489
    110  CD        57.1080   84.4910   14.0030 C.3   599  ARG599      0.2205
    111  NE        57.7650   85.4670   13.1410 N.pl3 599  ARG599     -0.0865
    112  CZ        57.2050   86.5760   12.6540 C.cat 599  ARG599      0.5346
    113  NH1       55.9410   86.8700   12.9670 N.pl3 599  ARG599      0.1354
    114  NH2       57.9160   87.3970   11.8480 N.pl3 599  ARG599      0.1354
@<TRIPOS>BOND
     1    89    86    1
     2   114   112    1
     3    88    87    2
     4   104   105    1
     5    87    86    1
     6    86    85    1
     7   112   113    1
     8   112   111    2
     9   108   105    1
    10   108   109    1
    11   111   110    1
    12     1     2    1
    13   105   106    1
    14    92    93    2
    15    92    91    1
    16    95    94    1
    17    94    91    1
    18    85    83   am
    19   110   109    1
    20     3     2    1
    21     3     4    2
    22     7     9   ar
    23     7     6   ar
    24   107   106    2
    25    91    90    1
    26     2     5    1
    27     5     6    1
    28    98    99    2
    29    98    97    1
    30    83    84    2
    31    83    82    1
    32    96    97    1
    33     9    10   ar
    34     6     8   ar
    35    97   100    1
    36    82    81    1
    37    10     8   ar
    38   100   101    1
    39    21    19    1
    40    26    27    1
    41    26    23    1
    42    81    75   am
    43    28    27   ar
    44    28    30   ar
    45    27    29   ar
    46    18    19    2
    47    18    17    1
    48    11    12    1
    49    30    31   ar
    50    29    32   ar
    51    29    31   ar
    52   101   102   ar
    53   101   103   ar
    54    32    34   ar
    55    19    20    1
    56    31    33   ar
    57    15    12    1
    58    15    16    1
    59    34    35   ar
    60    33    35   ar
    61    22    23    1
    62    22    13   am
    63    76    75    2
    64    75    74    1
    65    23    24    1
    66    17    16    1
    67    12    13    1
    68    79    78   ar
    69    13    14    2
    70    74    73    1
    71    74    77    1
    72    24    25    2
    73    78    77    1
    74    78    80   ar
    75    53    54   ar
    76    53    51   ar
    77    54    52   ar
    78    51    50   ar
    79    72    70    1
    80    52    50   ar
    81    50    49    1
    82    49    46    1
    83    69    70    2
    84    69    68    1
    85    43    42   ar
    86    70    71    1
    87    68    67    1
    88    42    44   ar
    89    42    41    1
    90    46    45    1
    91    46    47    1
    92    67    66    1
    93    45    38   am
    94    40    41    1
    95    40    37    1
    96    36    37    1
    97    60    61    1
    98    60    59    1
    99    61    55    1
   100    37    38    1
   101    47    48    2
   102    66    63    1
   103    38    39    2
   104    63    64    1
   105    63    62    1
   106    59    56    1
   107    55    56    1
   108    64    65    2
   109    56    57    1
   110    58    57    2
