@<TRIPOS>MOLECULE
tmp/3zukA15.pdb
 227 223 0 0 0
SMALL
GASTEIGER

@<TRIPOS>ATOM
      1  N         55.9830   74.2500   22.3730 N.3    41  THR41      -0.1218
      2  CA        56.4990   74.8420   21.1380 C.3    41  THR41       0.1862
      3  C         55.4170   75.7300   20.5350 C.2    41  THR41       0.2287
      4  O         54.2420   75.3740   20.5080 O.2    41  THR41      -0.2866
      5  CB        56.9380   73.7600   20.0860 C.3    41  THR41       0.1770
      6  OG1       57.9920   72.9200   20.6030 O.3    41  THR41      -0.2211
      7  CG2       57.4310   74.4110   18.8130 C.3    41  THR41       0.0375
      8  N         54.1290   76.9680   12.5220 N.3    45  PHE45      -0.1227
      9  CA        53.4630   75.6670   12.3310 C.3    45  PHE45       0.1736
     10  C         52.2790   75.4540   13.2710 C.2    45  PHE45       0.2595
     11  O         51.1870   75.0710   12.8130 O.2    45  PHE45      -0.2718
     12  CB        54.4530   74.5080   12.4230 C.3    45  PHE45       0.0547
     13  CG        55.4070   74.4080   11.2190 C.ar   45  PHE45      -0.0202
     14  CD1       56.5830   75.1940   11.1580 C.ar   45  PHE45      -0.0042
     15  CD2       55.1400   73.5190   10.1600 C.ar   45  PHE45      -0.0042
     16  CE1       57.4670   75.1060   10.0810 C.ar   45  PHE45      -0.0003
     17  CE2       56.0110   73.4380    9.0960 C.ar   45  PHE45      -0.0003
     18  CZ        57.1960   74.2420    9.0660 C.ar   45  PHE45      -0.0000
     19  N         52.4880   75.7420   14.5640 N.am   46  ARG46      -0.1980
     20  CA        51.4060   75.7360   15.5580 C.3    46  ARG46       0.1597
     21  C         50.2770   76.7130   15.2210 C.2    46  ARG46       0.2287
     22  O         49.1080   76.4660   15.5590 O.2    46  ARG46      -0.2864
     23  CB        51.9370   75.9970   16.9840 C.3    46  ARG46       0.0334
     24  CG        51.0050   75.5330   18.1390 C.3    46  ARG46       0.0492
     25  CD        50.6890   74.0010   18.2020 C.3    46  ARG46       0.2205
     26  NE        49.5200   73.7620   19.0720 N.pl3  46  ARG46      -0.0865
     27  CZ        49.5080   73.0110   20.1840 C.cat  46  ARG46       0.5346
     28  NH1       50.5910   72.3610   20.5860 N.pl3  46  ARG46       0.1354
     29  NH2       48.4010   72.8820   20.9000 N.pl3  46  ARG46       0.1354
     30  N         50.1130   60.9440    5.2200 N.3   440  MET440     -0.1245
     31  CA        49.6770   62.0290    6.0710 C.3   440  MET440      0.1570
     32  C         48.2780   62.3650    5.6050 C.2   440  MET440      0.2261
     33  O         47.9530   62.1590    4.4320 O.2   440  MET440     -0.2867
     34  CB        50.5500   63.2540    5.8690 C.3   440  MET440      0.0387
     35  CG        51.9210   63.2080    6.4570 C.3   440  MET440      0.0595
     36  SD        52.8170   64.7900    6.1040 S.3   440  MET440     -0.1393
     37  CE        54.3050   64.4850    7.0460 C.3   440  MET440      0.0692
     38  N         49.7190   69.8160    8.7680 N.3   445  VAL445     -0.1231
     39  CA        50.5840   70.9120    8.4070 C.3   445  VAL445      0.1692
     40  C         52.0440   70.4060    8.3790 C.2   445  VAL445      0.2592
     41  O         52.8080   70.6140    9.3130 O.2   445  VAL445     -0.2718
     42  CB        50.3840   72.1110    9.3860 C.3   445  VAL445      0.0266
     43  CG1       51.2180   73.3140    8.9640 C.3   445  VAL445      0.0020
     44  CG2       48.8750   72.4760    9.5180 C.3   445  VAL445      0.0020
     45  N         52.4150   69.7450    7.2850 N.am  446  ASN446     -0.1960
     46  CA        53.7670   69.2140    7.0840 C.3   446  ASN446      0.1819
     47  C         53.8930   68.7160    5.6180 C.2   446  ASN446      0.2621
     48  O         52.9600   68.8660    4.8280 O.2   446  ASN446     -0.2715
     49  CB        53.9950   68.0620    8.0870 C.3   446  ASN446      0.1195
     50  CG        55.4650   67.8200    8.4160 C.2   446  ASN446      0.2630
     51  OD1       56.3720   68.0810    7.6130 O.2   446  ASN446     -0.2716
     52  ND2       55.7010   67.2720    9.5910 N.am  446  ASN446     -0.0877
     53  N         55.0170   68.1090    5.2500 N.am  447  ALA447     -0.1963
     54  CA        55.2060   67.5830    3.8940 C.3   447  ALA447      0.1728
     55  C         56.2820   66.4860    3.9830 C.2   447  ALA447      0.2616
     56  O         56.9850   66.3860    4.9870 O.2   447  ALA447     -0.2715
     57  CB        55.6350   68.7170    2.9230 C.3   447  ALA447      0.0334
     58  N         56.3930   65.6420    2.9590 N.am  448  TYR448     -0.1960
     59  CA        57.3380   64.5290    3.0100 C.3   448  TYR448      0.1771
     60  C         57.8280   64.0930    1.6490 C.2   448  TYR448      0.2619
     61  O         57.2460   64.4490    0.6140 O.2   448  TYR448     -0.2715
     62  CB        56.8080   63.3210    3.8120 C.3   448  TYR448      0.0574
     63  CG        55.6640   62.5320    3.1980 C.ar  448  TYR448     -0.0198
     64  CD1       54.3230   62.9060    3.4210 C.ar  448  TYR448     -0.0009
     65  CD2       55.9070   61.3670    2.4510 C.ar  448  TYR448     -0.0009
     66  CE1       53.2370   62.1540    2.8610 C.ar  448  TYR448      0.0417
     67  CE2       54.8530   60.6100    1.9050 C.ar  448  TYR448      0.0417
     68  CZ        53.5100   61.0100    2.1050 C.ar  448  TYR448      0.1957
     69  OH        52.4520   60.2670    1.5640 O.3   448  TYR448     -0.2866
     70  N         58.9380   63.3670    1.6720 N.am  449  TYR449     -0.1974
     71  CA        59.4420   62.6610    0.5350 C.3   449  TYR449      0.1639
     72  C         59.3150   61.1800    0.8680 C.2   449  TYR449      0.2290
     73  O         59.6440   60.7340    1.9820 O.2   449  TYR449     -0.2864
     74  CB        60.9120   63.0430    0.2730 C.3   449  TYR449      0.0560
     75  CG        61.6460   62.1510   -0.7350 C.ar  449  TYR449     -0.0198
     76  CD1       61.4710   62.3210   -2.1050 C.ar  449  TYR449     -0.0009
     77  CD2       62.5130   61.1190   -0.3000 C.ar  449  TYR449     -0.0009
     78  CE1       62.1340   61.5270   -3.0130 C.ar  449  TYR449      0.0417
     79  CE2       63.1800   60.3010   -1.2080 C.ar  449  TYR449      0.0417
     80  CZ        62.9800   60.5100   -2.5580 C.ar  449  TYR449      0.1957
     81  OH        63.6380   59.7370   -3.4760 O.3   449  TYR449     -0.2866
     82  N         49.4420   72.8060    4.2930 N.3   462  ILE462     -0.1245
     83  CA        50.7270   73.5420    4.1580 C.3   462  ILE462      0.1561
     84  C         50.6280   74.6380    3.0600 C.2   462  ILE462      0.2260
     85  O         51.4620   75.5160    2.9890 O.2   462  ILE462     -0.2867
     86  CB        51.9820   72.5570    3.9600 C.3   462  ILE462      0.0252
     87  CG1       53.3290   73.2360    4.2680 C.3   462  ILE462      0.0019
     88  CG2       52.0480   71.9420    2.5510 C.3   462  ILE462      0.0019
     89  CD1       53.8120   73.0460    5.6810 C.3   462  ILE462      0.0001
     90  N         53.5330   80.1570    3.9030 N.3   467  PHE467     -0.1241
     91  CA        54.1990   79.3660    2.8690 C.3   467  PHE467      0.1605
     92  C         53.7640   79.8000    1.5030 C.2   467  PHE467      0.2264
     93  O         54.6130   80.0200    0.6230 O.2   467  PHE467     -0.2867
     94  CB        53.9440   77.8700    3.0500 C.3   467  PHE467      0.0534
     95  CG        54.4490   77.3560    4.3500 C.ar  467  PHE467     -0.0203
     96  CD1       55.7700   76.9450    4.4770 C.ar  467  PHE467     -0.0042
     97  CD2       53.6330   77.3500    5.4740 C.ar  467  PHE467     -0.0042
     98  CE1       56.2470   76.5050    5.6880 C.ar  467  PHE467     -0.0003
     99  CE2       54.1190   76.9140    6.6860 C.ar  467  PHE467     -0.0003
    100  CZ        55.4190   76.4940    6.8040 C.ar  467  PHE467     -0.0000
    101  N         60.1600   74.8250    0.5550 N.3   484  VAL484     -0.1245
    102  CA        59.5810   73.5820    1.0590 C.3   484  VAL484      0.1561
    103  C         59.6320   72.5490   -0.0570 C.2   484  VAL484      0.2260
    104  O         60.1040   71.4170    0.1290 O.2   484  VAL484     -0.2867
    105  CB        58.0910   73.7150    1.5290 C.3   484  VAL484      0.0252
    106  CG1       57.5800   72.3650    2.0590 C.3   484  VAL484      0.0019
    107  CG2       57.9380   74.7550    2.5780 C.3   484  VAL484      0.0019
    108  N         62.9750   71.3400   -0.6240 N.3   487  HIS487     -0.1226
    109  CA        63.4870   70.5540    0.4990 C.3   487  HIS487      0.1752
    110  C         63.1020   69.0670    0.3050 C.2   487  HIS487      0.2595
    111  O         63.9110   68.1680    0.5480 O.2   487  HIS487     -0.2718
    112  CB        62.9650   71.1260    1.8200 C.3   487  HIS487      0.0759
    113  CG        63.2570   70.2650    3.0150 C.ar  487  HIS487      0.0818
    114  ND1       64.3200   70.4980    3.8680 N.ar  487  HIS487     -0.2268
    115  CD2       62.6010   69.1890    3.5160 C.ar  487  HIS487      0.1154
    116  CE1       64.3100   69.5910    4.8280 C.ar  487  HIS487      0.1986
    117  NE2       63.2870   68.7760    4.6300 N.ar  487  HIS487     -0.2212
    118  N         61.8700   68.8360   -0.1660 N.am  488  GLU488     -0.1979
    119  CA        61.3420   67.4960   -0.3530 C.3   488  GLU488      0.1602
    120  C         62.0250   66.8380   -1.5290 C.2   488  GLU488      0.2287
    121  O         62.3280   65.6210   -1.4560 O.2   488  GLU488     -0.2864
    122  CB        59.8300   67.5160   -0.5400 C.3   488  GLU488      0.0415
    123  CG        59.0740   68.2790    0.5640 C.3   488  GLU488      0.1163
    124  CD        59.3500   67.7490    1.9750 C.2   488  GLU488      0.3649
    125  OE1       59.7570   66.5630    2.1170 O.co2 488  GLU488     -0.2457
    126  OE2       59.1570   68.5100    2.9470 O.co2 488  GLU488     -0.2457
    127  N         65.5410   65.7760   -0.4580 N.3   491  HIS491     -0.1241
    128  CA        65.5840   64.5530    0.3260 C.3   491  HIS491      0.1621
    129  C         65.9050   63.3300   -0.5090 C.2   491  HIS491      0.2264
    130  O         66.5130   62.3890   -0.0170 O.2   491  HIS491     -0.2867
    131  CB        64.2660   64.3190    1.0160 C.3   491  HIS491      0.0745
    132  CG        64.2470   64.7570    2.4470 C.ar  491  HIS491      0.0817
    133  ND1       65.2820   64.4920    3.3190 N.ar  491  HIS491     -0.2268
    134  CD2       63.2960   65.4010    3.1680 C.ar  491  HIS491      0.1154
    135  CE1       64.9740   64.9660    4.5100 C.ar  491  HIS491      0.1986
    136  NE2       63.7800   65.5290    4.4460 N.ar  491  HIS491     -0.2212
    137  N         68.4670   66.2220    6.7540 N.3   554  GLU554     -0.1245
    138  CA        67.6610   67.4120    6.8320 C.3   554  GLU554      0.1567
    139  C         68.4280   68.6680    6.3940 C.2   554  GLU554      0.2260
    140  O         67.8570   69.5310    5.7110 O.2   554  GLU554     -0.2867
    141  CB        67.1190   67.5850    8.2530 C.3   554  GLU554      0.0388
    142  CG        66.1230   66.5170    8.6730 C.3   554  GLU554      0.1160
    143  CD        65.0120   66.2580    7.6830 C.2   554  GLU554      0.3649
    144  OE1       64.6400   67.1730    6.9200 O.co2 554  GLU554     -0.2457
    145  OE2       64.5130   65.1160    7.6320 O.co2 554  GLU554     -0.2457
    146  N         62.1350   82.6960    3.7830 N.3   594  TRP594     -0.1241
    147  CA        62.7390   81.5280    4.4250 C.3   594  TRP594      0.1605
    148  C         62.7840   81.8100    5.9130 C.2   594  TRP594      0.2264
    149  O         62.4080   80.9490    6.7260 O.2   594  TRP594     -0.2867
    150  CB        64.1100   81.2910    3.8720 C.3   594  TRP594      0.0550
    151  CG        64.9310   80.1860    4.4240 C.ar  594  TRP594      0.0003
    152  CD1       66.1480   80.3120    5.0790 C.ar  594  TRP594      0.0946
    153  CD2       64.7050   78.7780    4.2910 C.ar  594  TRP594      0.0152
    154  NE1       66.6500   79.0710    5.3870 N.ar  594  TRP594     -0.2442
    155  CE2       65.7970   78.1150    4.9100 C.ar  594  TRP594      0.0810
    156  CE3       63.6610   78.0100    3.7610 C.ar  594  TRP594      0.0012
    157  CZ2       65.8800   76.7190    4.9920 C.ar  594  TRP594      0.0191
    158  CZ3       63.7350   76.6350    3.8420 C.ar  594  TRP594      0.0001
    159  CH2       64.8400   76.0020    4.4560 C.ar  594  TRP594      0.0015
    160  N         60.4230   79.7480    9.5670 N.3   598  TRP598     -0.1241
    161  CA        61.1030   79.1120   10.6900 C.3   598  TRP598      0.1605
    162  C         60.8070   79.8240   12.0060 C.2   598  TRP598      0.2264
    163  O         61.4320   79.5100   13.0110 O.2   598  TRP598     -0.2867
    164  CB        62.6210   78.9370   10.4370 C.3   598  TRP598      0.0550
    165  CG        62.8510   78.0920    9.2290 C.ar  598  TRP598      0.0003
    166  CD1       63.4930   78.4460    8.0640 C.ar  598  TRP598      0.0946
    167  CD2       62.3610   76.7640    9.0170 C.ar  598  TRP598      0.0152
    168  NE1       63.4530   77.4150    7.1580 N.ar  598  TRP598     -0.2442
    169  CE2       62.7650   76.3690    7.7130 C.ar  598  TRP598      0.0810
    170  CE3       61.6380   75.8570    9.8050 C.ar  598  TRP598      0.0012
    171  CZ2       62.4400   75.1090    7.1730 C.ar  598  TRP598      0.0191
    172  CZ3       61.3380   74.5900    9.2610 C.ar  598  TRP598      0.0001
    173  CH2       61.7250   74.2410    7.9540 C.ar  598  TRP598      0.0015
    174  N         59.8020   79.9830   15.1620 N.3   600  THR600     -0.1218
    175  CA        59.4190   78.9850   16.1460 C.3   600  THR600      0.1862
    176  C         60.3220   79.0930   17.3800 C.2   600  THR600      0.2287
    177  O         61.4960   79.4030   17.2820 O.2   600  THR600     -0.2866
    178  CB        59.4370   77.5570   15.5170 C.3   600  THR600      0.1770
    179  OG1       58.2710   77.3760   14.7070 O.3   600  THR600     -0.2211
    180  CG2       59.4430   76.4310   16.5610 C.3   600  THR600      0.0375
    181  N         64.4040   67.6680   21.6040 N.3   610  ARG610     -0.1245
    182  CA        64.6130   67.7500   20.1490 C.3   610  ARG610      0.1563
    183  C         66.0850   67.5230   19.6810 C.2   610  ARG610      0.2260
    184  O         66.2920   66.8380   18.6830 O.2   610  ARG610     -0.2867
    185  CB        63.9630   68.9860   19.5600 C.3   610  ARG610      0.0307
    186  CG        62.4500   68.8310   19.4170 C.3   610  ARG610      0.0489
    187  CD        61.8430   70.1060   18.9470 C.3   610  ARG610      0.2205
    188  NE        60.3790   70.1510   18.9780 N.pl3 610  ARG610     -0.0865
    189  CZ        59.5780   69.9430   17.9290 C.cat 610  ARG610      0.5346
    190  NH1       60.0640   69.6110   16.7320 N.pl3 610  ARG610      0.1354
    191  NH2       58.2760   70.0470   18.0820 N.pl3 610  ARG610      0.1354
    192  N         65.1520   64.6790   17.1010 N.3   614  ASP614     -0.1225
    193  CA        64.5370   65.3670   15.9630 C.3   614  ASP614      0.1790
    194  C         65.5950   65.6020   14.8920 C.2   614  ASP614      0.2440
    195  O         66.4820   66.4530   15.0670 O.2   614  ASP614     -0.2733
    196  CB        63.9440   66.6940   16.3990 C.3   614  ASP614      0.1423
    197  CG        63.2070   67.4240   15.2590 C.2   614  ASP614      0.3668
    198  OD1       63.1830   66.9570   14.0830 O.co2 614  ASP614     -0.2456
    199  OD2       62.6200   68.4820   15.5510 O.co2 614  ASP614     -0.2456
    200  N         65.4980   64.8610   13.7670 N.am  615  PRO615     -0.2718
    201  CA        66.5490   64.9800   12.7510 C.3   615  PRO615      0.1535
    202  C         66.5200   66.3620   12.1070 C.2   615  PRO615      0.2598
    203  O         67.4670   66.7280   11.4280 O.2   615  PRO615     -0.2715
    204  CB        66.2240   63.8640   11.7310 C.3   615  PRO615      0.0310
    205  CG        64.7570   63.5770   11.9360 C.3   615  PRO615      0.0237
    206  CD        64.4200   63.9320   13.3760 C.3   615  PRO615      0.0939
    207  N         65.4800   67.1440   12.3430 N.am  616  HIS616     -0.1974
    208  CA        65.5240   68.5410   11.8820 C.3   616  HIS616      0.1656
    209  C         66.4410   69.3870   12.7520 C.2   616  HIS616      0.2291
    210  O         66.5200   69.1870   13.9460 O.2   616  HIS616     -0.2864
    211  CB        64.1030   69.1320   11.7340 C.3   616  HIS616      0.0771
    212  CG        63.2050   68.2570   10.9180 C.ar  616  HIS616      0.0820
    213  ND1       62.4060   67.2820   11.4830 N.ar  616  HIS616     -0.2267
    214  CD2       63.0900   68.1070    9.5790 C.ar  616  HIS616      0.1154
    215  CE1       61.7940   66.6120   10.5250 C.ar  616  HIS616      0.1986
    216  NE2       62.1900   67.0940    9.3630 N.ar  616  HIS616     -0.2212
    217  N         68.1830   76.2700   10.8160 N.3   622  ARG622     -0.1245
    218  CA        67.6110   76.0150    9.5120 C.3   622  ARG622      0.1563
    219  C         67.5960   77.3470    8.7520 C.2   622  ARG622      0.2260
    220  O         67.8510   77.3870    7.5490 O.2   622  ARG622     -0.2867
    221  CB        66.2040   75.4450    9.6640 C.3   622  ARG622      0.0307
    222  CG        66.1480   74.2060   10.5200 C.3   622  ARG622      0.0489
    223  CD        64.9030   73.3500   10.3340 C.3   622  ARG622      0.2205
    224  NE        64.8080   72.6770    9.0220 N.pl3 622  ARG622     -0.0865
    225  CZ        63.8000   71.8630    8.6810 C.cat 622  ARG622      0.5346
    226  NH1       62.8360   71.6000    9.5420 N.pl3 622  ARG622      0.1354
    227  NH2       63.7390   71.2990    7.4970 N.pl3 622  ARG622      0.1354
@<TRIPOS>BOND
     1    81    80    1
     2    78    80   ar
     3    78    76   ar
     4    80    79   ar
     5    76    75   ar
     6   120   121    2
     7   120   119    1
     8    79    77   ar
     9    75    77   ar
    10    75    74    1
    11   108   109    1
    12   122   119    1
    13   122   123    1
    14   129   130    2
    15   129   128    1
    16   127   128    1
    17   119   118    1
    18   118   110   am
    19   103   104    2
    20   103   102    1
    21    74    71    1
    22   110   109    1
    23   110   111    2
    24   128   131    1
    25   109   112    1
    26    71    72    1
    27    71    70    1
    28   101   102    1
    29   123   124    1
    30    61    60    2
    31    93    92    2
    32    72    73    2
    33   131   132    1
    34   102   105    1
    35    92    91    1
    36   105   106    1
    37   105   107    1
    38    69    68    1
    39    60    70   am
    40    60    59    1
    41   112   113    1
    42    67    68   ar
    43    67    65   ar
    44   124   125   ar
    45   124   126   ar
    46    68    66   ar
    47   132   134   ar
    48   132   133   ar
    49    65    63   ar
    50    88    86    1
    51    66    64   ar
    52    91    94    1
    53    91    90    1
    54    57    54    1
    55    58    59    1
    56    58    55   am
    57    85    84    2
    58    59    62    1
    59   113   115   ar
    60   113   114   ar
    61    94    95    1
    62    84    83    1
    63   134   136   ar
    64    63    64   ar
    65    63    62    1
    66   133   135   ar
    67   115   117   ar
    68   156   158   ar
    69   156   153   ar
    70   146   147    1
    71   158   159   ar
    72   114   116   ar
    73   150   151    1
    74   150   147    1
    75    54    55    1
    76    54    53    1
    77    86    83    1
    78    86    87    1
    79    55    56    2
    80    83    82    1
    81    87    89    1
    82   153   151   ar
    83   153   155   ar
    84    95    96   ar
    85    95    97   ar
    86   151   152   ar
    87   147   148    1
    88    33    32    2
    89   136   135   ar
    90   159   157   ar
    91    96    98   ar
    92   117   116   ar
    93    48    47    2
    94   155   157   ar
    95   155   154   ar
    96   152   154   ar
    97    30    31    1
    98    53    47   am
    99    97    99   ar
   100    32    31    1
   101    47    46    1
   102    98   100   ar
   103   140   139    2
   104    34    31    1
   105    34    35    1
   106   148   149    2
   107    36    35    1
   108    36    37    1
   109   139   138    1
   110    99   100   ar
   111   137   138    1
   112   138   141    1
   113   144   143   ar
   114    46    45    1
   115    46    49    1
   116   168   169   ar
   117   168   166   ar
   118   171   169   ar
   119   171   173   ar
   120    45    40   am
   121   227   225    1
   122   220   219    2
   123    51    50    2
   124   145   143   ar
   125   143   142    1
   126   169   167   ar
   127   173   172   ar
   128   166   165   ar
   129    49    50    1
   130   141   142    1
   131    40    39    1
   132    40    41    2
   133    39    38    1
   134    39    42    1
   135    50    52   am
   136   225   224    2
   137   225   226    1
   138   219   218    1
   139    43    42    1
   140   167   165   ar
   141   167   170   ar
   142   224   223    1
   143    18    17   ar
   144    18    16   ar
   145    17    15   ar
   146   165   164    1
   147   172   170   ar
   148   216   214   ar
   149   216   215   ar
   150    42    44    1
   151   218   221    1
   152   218   217    1
   153   160   161    1
   154   214   212   ar
   155   221   222    1
   156    16    14   ar
   157    15    13   ar
   158   223   222    1
   159   164   161    1
   160   215   213   ar
   161   161   162    1
   162   212   213   ar
   163   212   211    1
   164    14    13   ar
   165    13    12    1
   166   203   202    2
   167   204   205    1
   168   204   201    1
   169   211   208    1
   170   208   207    1
   171   208   209    1
   172   205   206    1
   173   162   163    2
   174   202   207   am
   175   202   201    1
   176     9    12    1
   177     9     8    1
   178     9    10    1
   179   201   200    1
   180   209   210    2
   181    11    10    2
   182    10    19   am
   183   206   200    1
   184   200   194   am
   185   198   197   ar
   186    19    20    1
   187   179   178    1
   188   194   195    2
   189   194   193    1
   190   174   175    1
   191    21    20    1
   192    21    22    2
   193   197   199   ar
   194   197   196    1
   195   178   175    1
   196   178   180    1
   197    20    23    1
   198   193   196    1
   199   193   192    1
   200   175   176    1
   201   190   189    1
   202    23    24    1
   203   177   176    2
   204   189   191    1
   205   189   188    2
   206    24    25    1
   207    25    26    1
   208   184   183    2
   209     7     5    1
   210   187   188    1
   211   187   186    1
   212    26    27    2
   213   186   185    1
   214   185   182    1
   215   183   182    1
   216     5     6    1
   217     5     2    1
   218   182   181    1
   219    27    28    1
   220    27    29    1
   221     4     3    2
   222     3     2    1
   223     2     1    1
