@<TRIPOS>MOLECULE
tmp/3zukA19.pdb
 111 108 0 0 0
SMALL
GASTEIGER

@<TRIPOS>ATOM
      1  N         32.5610   59.7810   23.1310 N.3    83  SER83      -0.1217
      2  CA        33.2290   58.8280   24.0130 C.3    83  SER83       0.1889
      3  C         34.1730   59.6120   24.9030 C.2    83  SER83       0.2288
      4  O         34.1660   59.4680   26.1200 O.2    83  SER83      -0.2866
      5  CB        34.0720   57.8600   23.1840 C.3    83  SER83       0.2089
      6  OG        33.3520   56.7130   22.8270 O.3    83  SER83      -0.2183
      7  N         32.7490   62.9140   27.3250 N.3    86  ASP86      -0.1239
      8  CA        31.9900   62.5630   28.5030 C.3    86  ASP86       0.1674
      9  C         32.9760   62.1720   29.5880 C.2    86  ASP86       0.2266
     10  O         33.0710   61.0040   29.9660 O.2    86  ASP86      -0.2867
     11  CB        30.9800   61.4460   28.2020 C.3    86  ASP86       0.1410
     12  CG        29.9690   61.2140   29.3490 C.2    86  ASP86       0.3668
     13  OD1       30.1510   61.7310   30.4810 O.co2  86  ASP86      -0.2456
     14  OD2       28.9860   60.4830   29.1220 O.co2  86  ASP86      -0.2456
     15  N         31.4750   60.1920   32.5330 N.3    89  ALA89      -0.1231
     16  CA        31.2670   58.7320   32.3290 C.3    89  ALA89       0.1694
     17  C         32.5440   57.9100   32.4280 C.2    89  ALA89       0.2591
     18  O         32.5620   56.7830   32.9370 O.2    89  ALA89      -0.2718
     19  CB        30.5690   58.4560   30.9870 C.3    89  ALA89       0.0304
     20  N         33.6060   58.4890   31.9080 N.am   90  VAL90      -0.1980
     21  CA        34.9240   57.9080   31.9930 C.3    90  VAL90       0.1595
     22  C         35.3350   57.8120   33.4600 C.2    90  VAL90       0.2287
     23  O         35.8500   56.7780   33.8810 O.2    90  VAL90      -0.2864
     24  CB        35.9350   58.7280   31.1150 C.3    90  VAL90       0.0276
     25  CG1       37.3580   58.2440   31.2950 C.3    90  VAL90       0.0022
     26  CG2       35.5360   58.6110   29.6600 C.3    90  VAL90       0.0022
     27  N         33.6360   54.9990   35.4590 N.3    93  ALA93      -0.1231
     28  CA        34.1570   53.6850   35.0450 C.3    93  ALA93       0.1694
     29  C         35.4710   53.3570   35.7530 C.2    93  ALA93       0.2592
     30  O         35.8320   52.1920   35.8690 O.2    93  ALA93      -0.2718
     31  CB        34.3360   53.5980   33.5380 C.3    93  ALA93       0.0304
     32  N         36.1880   54.3780   36.2200 N.am   94  GLY94      -0.1957
     33  CA        37.3970   54.1490   37.0150 C.3    94  GLY94       0.1869
     34  C         38.4320   53.3050   36.2960 C.2    94  GLY94       0.2309
     35  O         38.6500   53.4870   35.1080 O.2    94  GLY94      -0.2863
     36  N         37.8460   49.3800   33.0250 N.3    97  PRO97      -0.2116
     37  CA        38.1180   48.9510   31.6280 C.3    97  PRO97       0.1372
     38  C         39.5630   48.4130   31.4040 C.2    97  PRO97       0.2244
     39  O         39.8250   47.7580   30.3870 O.2    97  PRO97      -0.2868
     40  CB        37.8870   50.2300   30.7970 C.3    97  PRO97       0.0268
     41  CG        37.2840   51.2540   31.7560 C.3    97  PRO97       0.0207
     42  CD        37.6560   50.8420   33.1410 C.3    97  PRO97       0.0892
     43  N         43.1750   57.4720   28.4460 N.3   295  TRP295     -0.1227
     44  CA        41.7660   57.0920   28.2820 C.3   295  TRP295      0.1737
     45  C         41.1050   56.8360   29.6050 C.2   295  TRP295      0.2595
     46  O         39.9430   56.4770   29.6290 O.2   295  TRP295     -0.2718
     47  CB        41.5660   55.8860   27.3280 C.3   295  TRP295      0.0564
     48  CG        42.5150   55.8960   26.1880 C.ar  295  TRP295      0.0003
     49  CD1       43.3880   54.8950   25.8330 C.ar  295  TRP295      0.0946
     50  CD2       42.7800   56.9910   25.3000 C.ar  295  TRP295      0.0152
     51  NE1       44.1530   55.2880   24.7650 N.ar  295  TRP295     -0.2442
     52  CE2       43.8070   56.5710   24.4160 C.ar  295  TRP295      0.0810
     53  CE3       42.2270   58.2710   25.1420 C.ar  295  TRP295      0.0012
     54  CZ2       44.3060   57.4010   23.3810 C.ar  295  TRP295      0.0191
     55  CZ3       42.7260   59.1120   24.1050 C.ar  295  TRP295      0.0001
     56  CH2       43.7610   58.6640   23.2470 C.ar  295  TRP295      0.0015
     57  N         41.8160   57.0470   30.7090 N.am  296  LEU296     -0.1980
     58  CA        41.2530   56.6880   32.0150 C.3   296  LEU296      0.1596
     59  C         40.8650   57.8660   32.8860 C.2   296  LEU296      0.2287
     60  O         40.4330   58.8770   32.3670 O.2   296  LEU296     -0.2864
     61  CB        42.1390   55.6820   32.7840 C.3   296  LEU296      0.0297
     62  CG        42.5770   54.4130   32.0430 C.3   296  LEU296      0.0022
     63  CD1       43.8920   53.8680   32.6360 C.3   296  LEU296      0.0001
     64  CD2       41.4710   53.3690   32.0100 C.3   296  LEU296      0.0001
     65  N         29.2220   54.9970   21.7120 N.3   407  ARG407     -0.1231
     66  CA        29.3100   56.2910   22.3760 C.3   407  ARG407      0.1694
     67  C         29.5570   56.2040   23.8890 C.2   407  ARG407      0.2592
     68  O         29.9190   57.1990   24.5070 O.2   407  ARG407     -0.2718
     69  CB        28.0720   57.1430   22.0880 C.3   407  ARG407      0.0321
     70  CG        26.7320   56.5490   22.5360 C.3   407  ARG407      0.0489
     71  CD        25.6190   57.5910   22.5140 C.3   407  ARG407      0.2205
     72  NE        26.0270   58.8630   23.1290 N.pl3 407  ARG407     -0.0865
     73  CZ        26.3080   59.9920   22.4690 C.cat 407  ARG407      0.5346
     74  NH1       26.2070   60.0550   21.1460 N.pl3 407  ARG407      0.1354
     75  NH2       26.6800   61.0760   23.1390 N.pl3 407  ARG407      0.1354
     76  N         29.3710   55.0170   24.4730 N.am  408  ASP408     -0.1960
     77  CA        29.4810   54.8210   25.9310 C.3   408  ASP408      0.1840
     78  C         30.6330   53.8920   26.3270 C.2   408  ASP408      0.2622
     79  O         30.6710   53.3330   27.4510 O.2   408  ASP408     -0.2715
     80  CB        28.1520   54.3080   26.4950 C.3   408  ASP408      0.1450
     81  CG        27.0720   55.3520   26.4350 C.2   408  ASP408      0.3671
     82  OD1       27.2320   56.3870   27.1040 O.co2 408  ASP408     -0.2456
     83  OD2       26.0670   55.1390   25.7230 O.co2 408  ASP408     -0.2456
     84  N         31.5780   53.7560   25.3970 N.am  409  ASP409     -0.1957
     85  CA        32.7100   52.8480   25.5500 C.3   409  ASP409      0.1840
     86  C         33.9720   53.4110   24.8330 C.2   409  ASP409      0.2622
     87  O         34.3520   52.9570   23.7580 O.2   409  ASP409     -0.2715
     88  CB        32.2920   51.4230   25.0920 C.3   409  ASP409      0.1450
     89  CG        33.4370   50.4050   25.1190 C.2   409  ASP409      0.3671
     90  OD1       34.2990   50.4190   26.0360 O.co2 409  ASP409     -0.2456
     91  OD2       33.4570   49.5600   24.1950 O.co2 409  ASP409     -0.2456
     92  N         34.5930   54.4220   25.4400 N.am  410  LEU410     -0.1963
     93  CA        35.8050   55.0400   24.9110 C.3   410  LEU410      0.1728
     94  C         36.9460   54.0340   24.8420 C.2   410  LEU410      0.2616
     95  O         37.6580   53.9710   23.8450 O.2   410  LEU410     -0.2715
     96  CB        36.2210   56.2510   25.7590 C.3   410  LEU410      0.0311
     97  CG        37.6810   56.7370   25.7130 C.3   410  LEU410      0.0022
     98  CD1       38.0150   57.5450   24.4470 C.3   410  LEU410      0.0001
     99  CD2       37.9900   57.5760   26.9440 C.3   410  LEU410      0.0001
    100  N         37.1240   53.2450   25.8950 N.am  411  TYR411     -0.1974
    101  CA        38.2420   52.3140   25.9470 C.3   411  TYR411      0.1639
    102  C         38.1320   51.3000   24.8280 C.2   411  TYR411      0.2290
    103  O         39.0950   51.0850   24.0840 O.2   411  TYR411     -0.2864
    104  CB        38.2530   51.5920   27.2730 C.3   411  TYR411      0.0560
    105  CG        39.5640   50.9480   27.6520 C.ar  411  TYR411     -0.0198
    106  CD1       39.8910   49.6600   27.2010 C.ar  411  TYR411     -0.0009
    107  CD2       40.4650   51.6120   28.5090 C.ar  411  TYR411     -0.0009
    108  CE1       41.0850   49.0540   27.5680 C.ar  411  TYR411      0.0417
    109  CE2       41.6670   51.0100   28.9010 C.ar  411  TYR411      0.0417
    110  CZ        41.9830   49.7270   28.4270 C.ar  411  TYR411      0.1957
    111  OH        43.1820   49.1220   28.8060 O.3   411  TYR411     -0.2866
@<TRIPOS>BOND
     1    74    73    1
     2    65    66    1
     3    69    66    1
     4    69    70    1
     5    66    67    1
     6    73    72    2
     7    73    75    1
     8    71    70    1
     9    71    72    1
    10     6     5    1
    11     1     2    1
    12     5     2    1
    13    56    54   ar
    14    56    55   ar
    15    54    52   ar
    16    87    86    2
    17    95    94    2
    18    67    76   am
    19    67    68    2
    20     2     3    1
    21   103   102    2
    22    55    53   ar
    23    91    89   ar
    24    52    51   ar
    25    52    50   ar
    26    98    97    1
    27    76    77    1
    28    51    49   ar
    29   102   101    1
    30    86    92   am
    31    86    85    1
    32    94    93    1
    33    94   100   am
    34     3     4    2
    35    93    92    1
    36    93    96    1
    37    88    89    1
    38    88    85    1
    39    89    90   ar
    40    53    50   ar
    41    50    48   ar
    42    84    85    1
    43    84    78   am
    44    97    96    1
    45    97    99    1
    46    83    81   ar
    47    49    48   ar
    48   100   101    1
    49    77    78    1
    50    77    80    1
    51   101   104    1
    52    48    47    1
    53    78    79    2
    54    81    80    1
    55    81    82   ar
    56   106   108   ar
    57   106   105   ar
    58   104   105    1
    59     7     8    1
    60    47    44    1
    61   108   110   ar
    62   105   107   ar
    63    11     8    1
    64    11    12    1
    65    44    43    1
    66    44    45    1
    67   110   111    1
    68   110   109   ar
    69     8     9    1
    70   107   109   ar
    71    14    12   ar
    72    12    13   ar
    73     9    10    2
    74    45    46    2
    75    45    57   am
    76    26    24    1
    77    39    38    2
    78    57    58    1
    79    40    37    1
    80    40    41    1
    81    19    16    1
    82    24    25    1
    83    24    21    1
    84    38    37    1
    85    37    36    1
    86    41    42    1
    87    20    21    1
    88    20    17   am
    89    21    22    1
    90    64    62    1
    91    58    61    1
    92    58    59    1
    93    62    63    1
    94    62    61    1
    95    16    17    1
    96    16    15    1
    97    60    59    2
    98    17    18    2
    99    36    42    1
   100    22    23    2
   101    31    28    1
   102    28    27    1
   103    28    29    1
   104    35    34    2
   105    29    30    2
   106    29    32   am
   107    32    33    1
   108    34    33    1
