@<TRIPOS>MOLECULE
tmp/3zukB13.pdb
 88 83 0 0 0
SMALL
GASTEIGER

@<TRIPOS>ATOM
      1  N        102.5360   83.6920   20.2240 N.3   157  ASP157     -0.1239
      2  CA       102.6710   82.4920   21.0270 C.3   157  ASP157      0.1674
      3  C        103.0780   81.3190   20.1770 C.2   157  ASP157      0.2266
      4  O        102.7710   81.2530   18.9940 O.2   157  ASP157     -0.2867
      5  CB       101.3570   82.1460   21.7280 C.3   157  ASP157      0.1410
      6  CG       101.4950   80.9540   22.6700 C.2   157  ASP157      0.3668
      7  OD1      102.1360   81.1050   23.7380 O.co2 157  ASP157     -0.2456
      8  OD2      100.9920   79.8670   22.3220 O.co2 157  ASP157     -0.2456
      9  N        101.8480   78.5410   19.8640 N.3   159  SER159     -0.1217
     10  CA       100.7400   77.8240   19.2550 C.3   159  SER159      0.1889
     11  C        100.3840   78.3920   17.8660 C.2   159  SER159      0.2288
     12  O         99.7200   77.7230   17.0710 O.2   159  SER159     -0.2866
     13  CB        99.5050   77.8160   20.1800 C.3   159  SER159      0.2089
     14  OG        99.0150   79.1360   20.3670 O.3   159  SER159     -0.2183
     15  N         98.5090   75.4060   15.5010 N.3   163  ASP163     -0.1239
     16  CA        97.0340   75.3610   15.5110 C.3   163  ASP163      0.1674
     17  C         96.3770   75.8240   14.2320 C.2   163  ASP163      0.2266
     18  O         96.5420   76.9890   13.8350 O.2   163  ASP163     -0.2867
     19  CB        96.4580   76.2270   16.6260 C.3   163  ASP163      0.1410
     20  CG        96.0450   75.4210   17.8290 C.2   163  ASP163      0.3668
     21  OD1       96.7640   74.4430   18.1420 O.co2 163  ASP163     -0.2456
     22  OD2       95.0110   75.7710   18.4690 O.co2 163  ASP163     -0.2456
     23  N         93.7190   76.8670   14.1570 N.3   165  GLN165     -0.1231
     24  CA        93.1180   78.1320   14.6510 C.3   165  GLN165      0.1698
     25  C         93.7550   79.4380   14.1140 C.2   165  GLN165      0.2592
     26  O         93.0480   80.4140   13.8700 O.2   165  GLN165     -0.2718
     27  CB        93.1480   78.1560   16.1870 C.3   165  GLN165      0.0381
     28  CG        91.9660   77.4830   16.8630 C.3   165  GLN165      0.0905
     29  CD        90.6530   78.2710   16.6780 C.2   165  GLN165      0.2608
     30  OE1       90.6580   79.5150   16.6430 O.2   165  GLN165     -0.2717
     31  NE2       89.5260   77.5480   16.5640 N.am  165  GLN165     -0.0878
     32  N         95.0860   79.4410   13.9480 N.am  166  HIS166     -0.1976
     33  CA        95.8430   80.6400   13.5940 C.3   166  HIS166      0.1656
     34  C         96.4660   80.6130   12.1820 C.2   166  HIS166      0.2291
     35  O         97.2520   81.5180   11.8270 O.2   166  HIS166     -0.2864
     36  CB        96.9540   80.8780   14.6190 C.3   166  HIS166      0.0771
     37  CG        96.4690   81.0030   16.0320 C.ar  166  HIS166      0.0820
     38  ND1       95.7070   82.0650   16.4700 N.ar  166  HIS166     -0.2267
     39  CD2       96.6630   80.2120   17.1140 C.ar  166  HIS166      0.1154
     40  CE1       95.4460   81.9180   17.7560 C.ar  166  HIS166      0.1986
     41  NE2       96.0070   80.7970   18.1710 N.ar  166  HIS166     -0.2212
     42  N         85.7890   79.0780   18.7830 N.2   544  PRO544     -0.2571
     43  CA        86.8760   79.3700   19.7470 C.3   544  PRO544      0.2026
     44  C         86.3000   79.2710   21.1300 C.2   544  PRO544      0.2683
     45  O         85.0850   79.4290   21.3040 O.2   544  PRO544     -0.2709
     46  CB        87.2430   80.8210   19.4800 C.2   544  PRO544      0.0085
     47  CG        86.5170   81.2450   18.3230 C.2   544  PRO544      0.0180
     48  CD        85.5080   80.2180   17.8970 C.2   544  PRO544      0.0938
     49  N         87.1560   78.9850   22.1040 N.am  545  HIS545     -0.1969
     50  CA        86.7360   78.9180   23.5130 C.3   545  HIS545      0.1656
     51  C         87.8180   79.4430   24.4380 C.2   545  HIS545      0.2291
     52  O         88.9960   79.5930   24.0560 O.2   545  HIS545     -0.2864
     53  CB        86.3440   77.4830   23.9100 C.3   545  HIS545      0.0771
     54  CG        87.4500   76.4760   23.7590 C.ar  545  HIS545      0.0820
     55  ND1       88.4720   76.3400   24.6760 N.ar  545  HIS545     -0.2267
     56  CD2       87.6640   75.5210   22.8160 C.ar  545  HIS545      0.1154
     57  CE1       89.2880   75.3780   24.2870 C.ar  545  HIS545      0.1986
     58  NE2       88.8130   74.8550   23.1670 N.ar  545  HIS545     -0.2212
     59  N         90.4360   79.0520   27.3130 N.3   547  GLN547     -0.1245
     60  CA        91.3280   78.0280   27.8870 C.3   547  GLN547      0.1566
     61  C         91.1150   77.9370   29.3930 C.2   547  GLN547      0.2260
     62  O         91.6850   78.7340   30.1770 O.2   547  GLN547     -0.2867
     63  CB        92.7960   78.3440   27.5560 C.3   547  GLN547      0.0367
     64  CG        93.1280   78.3830   26.0410 C.3   547  GLN547      0.0905
     65  CD        94.6380   78.5340   25.8030 C.2   547  GLN547      0.2608
     66  OE1       95.3820   77.5660   25.9820 O.2   547  GLN547     -0.2717
     67  NE2       95.0970   79.7570   25.4440 N.am  547  GLN547     -0.0878
     68  N         90.3850   86.7080   19.6720 N.3   608  ILE608     -0.1245
     69  CA        91.0760   85.4430   19.4120 C.3   608  ILE608      0.1561
     70  C         92.5280   85.4810   19.8920 C.2   608  ILE608      0.2260
     71  O         92.9900   84.5180   20.5370 O.2   608  ILE608     -0.2867
     72  CB        91.0010   85.0430   17.9120 C.3   608  ILE608      0.0252
     73  CG1       89.5720   84.5780   17.5590 C.3   608  ILE608      0.0019
     74  CG2       92.0270   83.9630   17.5710 C.3   608  ILE608      0.0019
     75  CD1       89.1700   84.8870   16.1490 C.3   608  ILE608      0.0001
     76  N         92.3280   85.0330   23.6220 N.3   611  LEU611     -0.1231
     77  CA        92.0160   83.6440   24.0020 C.3   611  LEU611      0.1693
     78  C         93.3090   82.8470   24.0620 C.2   611  LEU611      0.2591
     79  O         93.4670   81.9740   24.9250 O.2   611  LEU611     -0.2718
     80  CB        91.0020   83.0010   23.0470 C.3   611  LEU611      0.0284
     81  CG        89.5520   83.4510   23.2170 C.3   611  LEU611      0.0019
     82  CD1       88.6790   82.8390   22.1610 C.3   611  LEU611      0.0001
     83  CD2       89.0150   83.0700   24.5910 C.3   611  LEU611      0.0001
     84  N         94.2470   83.1780   23.1700 N.am  612  ALA612     -0.1980
     85  CA        95.5390   82.4760   23.1210 C.3   612  ALA612      0.1597
     86  C         96.5460   82.8890   24.1560 C.2   612  ALA612      0.2287
     87  O         97.2310   82.0100   24.6560 O.2   612  ALA612     -0.2864
     88  CB        96.1820   82.5340   21.7550 C.3   612  ALA612      0.0319
@<TRIPOS>BOND
     1    35    34    2
     2    34    33    1
     3    33    32    1
     4    33    36    1
     5    18    17    2
     6    26    25    2
     7    32    25   am
     8    25    24    1
     9    23    24    1
    10    17    16    1
    11    36    37    1
    12    24    27    1
    13    15    16    1
    14    16    19    1
    15    37    38   ar
    16    37    39   ar
    17    75    73    1
    18    27    28    1
    19    38    40   ar
    20    31    29   am
    21    19    20    1
    22    30    29    2
    23    29    28    1
    24    12    11    2
    25    39    41   ar
    26    73    72    1
    27    74    72    1
    28    40    41   ar
    29    20    21   ar
    30    20    22   ar
    31    11    10    1
    32    48    47    1
    33    48    42    2
    34    72    69    1
    35    47    46    2
    36    42    43    1
    37     4     3    2
    38    10     9    1
    39    10    13    1
    40    69    68    1
    41    69    70    1
    42    46    43    1
    43    43    44    1
    44    70    71    2
    45     3     2    1
    46    13    14    1
    47     1     2    1
    48     2     5    1
    49    44    45    2
    50    44    49   am
    51     5     6    1
    52    88    85    1
    53    49    50    1
    54    82    81    1
    55     8     6   ar
    56     6     7   ar
    57    56    58   ar
    58    56    54   ar
    59    80    81    1
    60    80    77    1
    61    85    84    1
    62    85    86    1
    63    58    57   ar
    64    84    78   am
    65    81    83    1
    66    50    53    1
    67    50    51    1
    68    76    77    1
    69    54    53    1
    70    54    55   ar
    71    77    78    1
    72    52    51    2
    73    78    79    2
    74    86    87    2
    75    57    55   ar
    76    67    65   am
    77    65    66    2
    78    65    64    1
    79    64    63    1
    80    59    60    1
    81    63    60    1
    82    60    61    1
    83    61    62    2
