@<TRIPOS>MOLECULE
tmp/3zunI00.pdb
 158 160 0 0 0
SMALL
GASTEIGER

@<TRIPOS>ATOM
      1  N         15.2930  -26.4850   -6.6430 N.3     6  ASN6       -0.1225
      2  CA        14.7290  -27.8400   -6.7720 C.3     6  ASN6        0.1785
      3  C         15.8240  -28.9090   -6.8300 C.2     6  ASN6        0.2598
      4  O         15.8310  -29.7760   -7.7070 O.2     6  ASN6       -0.2718
      5  CB        13.7700  -27.9420   -7.9780 C.3     6  ASN6        0.1169
      6  CG        12.7960  -29.1260   -7.8780 C.2     6  ASN6        0.2627
      7  OD1       12.7800  -29.8630   -6.8940 O.2     6  ASN6       -0.2716
      8  ND2       11.9850  -29.3040   -8.9090 N.am    6  ASN6       -0.0877
      9  N         16.7650  -28.8100   -5.8910 N.am    7  SER7       -0.1938
     10  CA        17.6580  -29.9000   -5.5330 C.3     7  SER7        0.2055
     11  C         16.7260  -30.9240   -4.9750 C.2     7  SER7        0.2642
     12  O         15.8240  -30.5700   -4.2160 O.2     7  SER7       -0.2714
     13  CB        18.5290  -29.4580   -4.3800 C.3     7  SER7        0.2130
     14  OG        17.7930  -29.5400   -3.1660 O.3     7  SER7       -0.2179
     15  N         16.8860  -32.1870   -5.3030 N.am    8  ARG8       -0.1977
     16  CA        15.9230  -33.0930   -4.7070 C.3     8  ARG8        0.1597
     17  C         16.5490  -33.8200   -3.5090 C.2     8  ARG8        0.2287
     18  O         16.3860  -35.0430   -3.3440 O.2     8  ARG8       -0.2864
     19  CB        15.2910  -34.0150   -5.7590 C.3     8  ARG8        0.0334
     20  CG        14.5620  -33.2540   -6.8980 C.3     8  ARG8        0.0492
     21  CD        13.7880  -34.2120   -7.8110 C.3     8  ARG8        0.2205
     22  NE        14.6650  -35.2570   -8.3630 N.pl3   8  ARG8       -0.0865
     23  CZ        15.5180  -35.0850   -9.3830 C.cat   8  ARG8        0.5346
     24  NH1       15.6310  -33.9060  -10.0020 N.pl3   8  ARG8        0.1354
     25  NH2       16.2720  -36.0970   -9.7870 N.pl3   8  ARG8        0.1354
     26  N         11.4280  -27.0820   13.4530 N.3    15  PHE15      -0.1241
     27  CA        10.8960  -25.7670   13.6400 C.3    15  PHE15       0.1605
     28  C         10.6650  -25.5700   15.1400 C.2    15  PHE15       0.2264
     29  O          9.7610  -26.2030   15.7020 O.2    15  PHE15      -0.2867
     30  CB         9.5380  -25.6610   12.9490 C.3    15  PHE15       0.0534
     31  CG         9.6000  -25.5280   11.4640 C.ar   15  PHE15      -0.0203
     32  CD1       10.8000  -25.2680   10.8070 C.ar   15  PHE15      -0.0042
     33  CD2        8.4270  -25.6230   10.7220 C.ar   15  PHE15      -0.0042
     34  CE1       10.8330  -25.1310    9.4160 C.ar   15  PHE15      -0.0003
     35  CE2        8.4430  -25.4960    9.3540 C.ar   15  PHE15      -0.0003
     36  CZ         9.6430  -25.2430    8.6910 C.ar   15  PHE15      -0.0000
     37  N          4.5040  -21.0160    9.2510 N.3    25  PRO25      -0.2116
     38  CA         5.6590  -21.2550    8.3830 C.3    25  PRO25       0.1372
     39  C          5.2450  -21.0740    6.9230 C.2    25  PRO25       0.2244
     40  O          4.1160  -21.4210    6.5290 O.2    25  PRO25      -0.2868
     41  CB         6.0450  -22.7130    8.6730 C.3    25  PRO25       0.0268
     42  CG         5.0220  -23.2590    9.6080 C.3    25  PRO25       0.0207
     43  CD         3.9080  -22.2830    9.7250 C.3    25  PRO25       0.0892
     44  N          6.7120  -21.5750    3.0720 N.3    27  TRP27      -0.1241
     45  CA         7.7230  -22.0810    2.1830 C.3    27  TRP27       0.1605
     46  C          7.5920  -21.3460    0.8420 C.2    27  TRP27       0.2264
     47  O          6.4690  -21.1760    0.3220 O.2    27  TRP27      -0.2867
     48  CB         7.5470  -23.5990    2.0000 C.3    27  TRP27       0.0550
     49  CG         8.3700  -24.1470    0.8850 C.ar   27  TRP27       0.0003
     50  CD1        9.7270  -24.0870    0.7760 C.ar   27  TRP27       0.0946
     51  CD2        7.8930  -24.8070   -0.2890 C.ar   27  TRP27       0.0152
     52  NE1       10.1260  -24.6670   -0.3980 N.ar   27  TRP27      -0.2442
     53  CE2        9.0230  -25.1180   -1.0760 C.ar   27  TRP27       0.0810
     54  CE3        6.6190  -25.1700   -0.7570 C.ar   27  TRP27       0.0012
     55  CZ2        8.9290  -25.7880   -2.3170 C.ar   27  TRP27       0.0191
     56  CZ3        6.5170  -25.8580   -2.0110 C.ar   27  TRP27       0.0001
     57  CH2        7.6730  -26.1430   -2.7660 C.ar   27  TRP27       0.0015
     58  N          8.5520  -23.0370   -5.9720 N.3    30  PHE30      -0.1241
     59  CA         9.5590  -23.0540   -7.0470 C.3    30  PHE30       0.1605
     60  C          9.3120  -21.9170   -8.0420 C.2    30  PHE30       0.2264
     61  O         10.2100  -21.5310   -8.8040 O.2    30  PHE30      -0.2867
     62  CB         9.5960  -24.4110   -7.7790 C.3    30  PHE30       0.0534
     63  CG        10.0400  -25.5710   -6.9150 C.ar   30  PHE30      -0.0203
     64  CD1       11.3060  -25.5710   -6.3080 C.ar   30  PHE30      -0.0042
     65  CD2        9.1940  -26.6820   -6.7250 C.ar   30  PHE30      -0.0042
     66  CE1       11.7210  -26.6490   -5.5070 C.ar   30  PHE30      -0.0003
     67  CE2        9.6000  -27.7720   -5.9280 C.ar   30  PHE30      -0.0003
     68  CZ        10.8700  -27.7550   -5.3180 C.ar   30  PHE30      -0.0000
     69  N          2.1050  -23.4780    5.5340 N.3    37  TYR37      -0.1228
     70  CA         2.0920  -24.7700    6.1820 C.3    37  TYR37       0.1721
     71  C          1.3390  -24.6860    7.5120 C.2    37  TYR37       0.2437
     72  O          0.9320  -23.5950    7.9210 O.2    37  TYR37      -0.2733
     73  CB         3.5270  -25.2470    6.3330 C.3    37  TYR37       0.0547
     74  CG         4.0110  -25.9380    5.0700 C.ar   37  TYR37      -0.0200
     75  CD1        4.4020  -25.2090    3.9530 C.ar   37  TYR37      -0.0009
     76  CD2        4.0250  -27.3280    4.9840 C.ar   37  TYR37      -0.0009
     77  CE1        4.8270  -25.8490    2.7950 C.ar   37  TYR37       0.0417
     78  CE2        4.4410  -27.9690    3.8300 C.ar   37  TYR37       0.0417
     79  CZ         4.8420  -27.2270    2.7420 C.ar   37  TYR37       0.1957
     80  OH         5.2600  -27.8830    1.6090 O.3    37  TYR37      -0.2866
     81  N          1.0920  -25.8360    8.1640 N.am   38  PRO38      -0.2729
     82  CA         0.2880  -25.8190    9.3930 C.3    38  PRO38       0.1401
     83  C          0.8810  -24.8980   10.4650 C.2    38  PRO38       0.2269
     84  O          2.1030  -24.8320   10.6310 O.2    38  PRO38      -0.2865
     85  CB         0.3410  -27.2760    9.8610 C.3    38  PRO38       0.0296
     86  CG         0.6110  -28.0720    8.6180 C.3    38  PRO38       0.0237
     87  CD         1.5260  -27.2010    7.8110 C.3    38  PRO38       0.0939
     88  N          8.4540  -28.7180   16.2300 N.3    46  ARG46      -0.1245
     89  CA         7.9520  -29.7130   15.2740 C.3    46  ARG46       0.1563
     90  C          9.0030  -30.0570   14.2570 C.2    46  ARG46       0.2260
     91  O          9.5450  -29.1720   13.6260 O.2    46  ARG46      -0.2867
     92  CB         6.7220  -29.2030   14.5380 C.3    46  ARG46       0.0307
     93  CG         6.2320  -30.1220   13.4800 C.3    46  ARG46       0.0489
     94  CD         5.2850  -29.4130   12.5930 C.3    46  ARG46       0.2205
     95  NE         4.0640  -29.0670   13.3010 N.pl3  46  ARG46      -0.0865
     96  CZ         3.2210  -28.0940   12.9440 C.cat  46  ARG46       0.5346
     97  NH1        3.4600  -27.3260   11.8760 N.pl3  46  ARG46       0.1354
     98  NH2        2.1370  -27.8800   13.6780 N.pl3  46  ARG46       0.1354
     99  N          9.9340  -31.4000   10.7220 N.3    48  ILE48      -0.1231
    100  CA         9.2810  -31.4040    9.4000 C.3    48  ILE48       0.1692
    101  C         10.2850  -31.8490    8.3390 C.2    48  ILE48       0.2592
    102  O         11.4830  -31.7610    8.5660 O.2    48  ILE48      -0.2718
    103  CB         8.6780  -30.0100    9.0340 C.3    48  ILE48       0.0266
    104  CG1        9.7370  -28.9070    9.0200 C.3    48  ILE48       0.0019
    105  CG2        7.5490  -29.6230    9.9870 C.3    48  ILE48       0.0020
    106  CD1       10.2900  -28.6690    7.6610 C.3    48  ILE48       0.0001
    107  N          9.8020  -32.3550    7.2050 N.am   49  HIS49      -0.1962
    108  CA        10.6790  -32.7500    6.0820 C.3    49  HIS49       0.1787
    109  C         10.7400  -31.6510    5.0230 C.2    49  HIS49       0.2621
    110  O          9.7150  -31.1190    4.6040 O.2    49  HIS49      -0.2715
    111  CB        10.2230  -34.0880    5.4520 C.3    49  HIS49       0.0785
    112  CG        10.4170  -35.2780    6.3470 C.ar   49  HIS49       0.0821
    113  ND1        9.3990  -36.1620    6.6460 N.ar   49  HIS49      -0.2267
    114  CD2       11.5070  -35.7210    7.0250 C.ar   49  HIS49       0.1154
    115  CE1        9.8520  -37.1010    7.4610 C.ar   49  HIS49       0.1986
    116  NE2       11.1260  -36.8540    7.7110 N.ar   49  HIS49      -0.2212
    117  N         11.9500  -31.3120    4.6110 N.am   50  SER50      -0.1936
    118  CA        12.1690  -30.2500    3.6190 C.3    50  SER50       0.2055
    119  C         13.3150  -30.6730    2.6970 C.2    50  SER50       0.2643
    120  O         13.5640  -31.8630    2.5400 O.2    50  SER50      -0.2714
    121  CB        12.4600  -28.8850    4.2990 C.3    50  SER50       0.2130
    122  OG        12.3440  -27.7920    3.3880 O.3    50  SER50      -0.2179
    123  N         13.9970  -29.7140    2.0770 N.am   51  TYR51      -0.1973
    124  CA        15.0710  -30.0210    1.1100 C.3    51  TYR51       0.1639
    125  C         16.1310  -28.9460    1.1510 C.2    51  TYR51       0.2290
    126  O         15.8390  -27.8220    1.5440 O.2    51  TYR51      -0.2864
    127  CB        14.5010  -30.1630   -0.3070 C.3    51  TYR51       0.0560
    128  CG        13.5010  -31.2950   -0.4250 C.ar   51  TYR51      -0.0198
    129  CD1       12.1850  -31.1470    0.0160 C.ar   51  TYR51      -0.0009
    130  CD2       13.8810  -32.5240   -0.9680 C.ar   51  TYR51      -0.0009
    131  CE1       11.2840  -32.1900   -0.0710 C.ar   51  TYR51       0.0417
    132  CE2       12.9820  -33.5720   -1.0750 C.ar   51  TYR51       0.0417
    133  CZ        11.6910  -33.4080   -0.6210 C.ar   51  TYR51       0.1957
    134  OH        10.8010  -34.4650   -0.7340 O.3    51  TYR51      -0.2866
    135  N         15.8710  -24.8440   -0.1000 N.3    54  HIS54      -0.1241
    136  CA        14.4910  -24.3310    0.0070 C.3    54  HIS54       0.1621
    137  C         14.3830  -23.0830    0.8880 C.2    54  HIS54       0.2264
    138  O         15.0760  -22.9500    1.9040 O.2    54  HIS54      -0.2867
    139  CB        13.5570  -25.4140    0.5160 C.3    54  HIS54       0.0745
    140  CG        13.2240  -26.4390   -0.5120 C.ar   54  HIS54       0.0817
    141  ND1       12.0770  -27.1980   -0.4600 N.ar   54  HIS54      -0.2268
    142  CD2       13.8810  -26.8210   -1.6330 C.ar   54  HIS54       0.1154
    143  CE1       12.0430  -28.0090   -1.4990 C.ar   54  HIS54       0.1986
    144  NE2       13.1310  -27.8060   -2.2220 N.ar   54  HIS54      -0.2212
    145  N         12.3980  -20.6730    3.3800 N.3    56  TRP56      -0.1241
    146  CA        11.3060  -20.5050    4.3420 C.3    56  TRP56       0.1605
    147  C         11.3550  -19.1490    5.0310 C.2    56  TRP56       0.2264
    148  O         12.4150  -18.5420    5.1780 O.2    56  TRP56      -0.2867
    149  CB        11.4340  -21.5280    5.4540 C.3    56  TRP56       0.0550
    150  CG        11.2040  -22.8920    5.0630 C.ar   56  TRP56       0.0003
    151  CD1       12.1350  -23.7840    4.6050 C.ar   56  TRP56       0.0946
    152  CD2        9.9600  -23.5860    5.1220 C.ar   56  TRP56       0.0152
    153  NE1       11.5310  -24.9960    4.3750 N.ar   56  TRP56      -0.2442
    154  CE2       10.1970  -24.9020    4.6860 C.ar   56  TRP56       0.0810
    155  CE3        8.6650  -23.2230    5.4970 C.ar   56  TRP56       0.0012
    156  CZ2        9.1810  -25.8560    4.6110 C.ar   56  TRP56       0.0191
    157  CZ3        7.6510  -24.1750    5.4220 C.ar   56  TRP56       0.0001
    158  CH2        7.9180  -25.4760    4.9940 C.ar   56  TRP56       0.0015
@<TRIPOS>BOND
     1    24    23    1
     2    25    23    1
     3    23    22    2
     4     8     6   am
     5    61    60    2
     6    22    21    1
     7    60    59    1
     8     5     6    1
     9     5     2    1
    10     6     7    2
    11    21    20    1
    12    62    59    1
    13    62    63    1
    14     4     3    2
    15    59    58    1
    16    63    65   ar
    17    63    64   ar
    18    20    19    1
    19     3     2    1
    20     3     9   am
    21     2     1    1
    22    65    67   ar
    23    64    66   ar
    24    67    68   ar
    25     9    10    1
    26    19    16    1
    27    10    11    1
    28    10    13    1
    29    66    68   ar
    30    15    11   am
    31    15    16    1
    32    11    12    2
    33    16    17    1
    34    13    14    1
    35    17    18    2
    36    57    55   ar
    37    57    56   ar
    38    55    53   ar
    39   144   142   ar
    40   144   143   ar
    41    56    54   ar
    42   142   140   ar
    43   143   141   ar
    44    53    52   ar
    45    53    51   ar
    46   132   130   ar
    47   132   133   ar
    48   130   128   ar
    49    54    51   ar
    50   134   133    1
    51   133   131   ar
    52   140   141   ar
    53   140   139    1
    54   128   127    1
    55   128   129   ar
    56    52    50   ar
    57   127   124    1
    58    51    49   ar
    59   135   136    1
    60   131   129   ar
    61   136   139    1
    62   136   137    1
    63    47    46    2
    64    50    49   ar
    65    46    45    1
    66    49    48    1
    67   137   138    2
    68   124   125    1
    69   124   123    1
    70   125   126    2
    71    80    79    1
    72    48    45    1
    73   123   119   am
    74    45    44    1
    75   120   119    2
    76   119   118    1
    77    79    77   ar
    78    79    78   ar
    79    77    75   ar
    80   145   146    1
    81   122   121    1
    82   118   121    1
    83   118   117    1
    84    78    76   ar
    85    75    74   ar
    86   146   147    1
    87   146   149    1
    88   153   151   ar
    89   153   154   ar
    90   110   109    2
    91   151   150   ar
    92   117   109   am
    93   156   154   ar
    94   156   158   ar
    95   154   152   ar
    96    76    74   ar
    97   158   157   ar
    98   109   108    1
    99   147   148    2
   100   150   152   ar
   101   150   149    1
   102    74    73    1
   103   152   155   ar
   104   157   155   ar
   105   111   108    1
   106   111   112    1
   107    69    70    1
   108   108   107    1
   109    70    73    1
   110    70    71    1
   111   112   113   ar
   112   112   114   ar
   113    40    39    2
   114   113   115   ar
   115    39    38    1
   116   114   116   ar
   117   107   101   am
   118   115   116   ar
   119    71    72    2
   120    71    81   am
   121   106   104    1
   122    87    81    1
   123    87    86    1
   124    81    82    1
   125   101   102    2
   126   101   100    1
   127    38    41    1
   128    38    37    1
   129    86    85    1
   130    41    42    1
   131    36    35   ar
   132    36    34   ar
   133   104   103    1
   134   103   100    1
   135   103   105    1
   136    37    43    1
   137    35    33   ar
   138    82    85    1
   139    82    83    1
   140   100    99    1
   141    34    32   ar
   142    42    43    1
   143    83    84    2
   144    33    31   ar
   145    32    31   ar
   146    31    30    1
   147    97    96    1
   148    94    95    1
   149    94    93    1
   150    96    95    2
   151    96    98    1
   152    30    27    1
   153    26    27    1
   154    93    92    1
   155    91    90    2
   156    27    28    1
   157    90    89    1
   158    92    89    1
   159    28    29    2
   160    89    88    1
