@<TRIPOS>MOLECULE
tmp/3zuoC00.pdb
 236 224 0 0 0
SMALL
GASTEIGER

@<TRIPOS>ATOM
      1  N        -24.5910   18.6430   56.9660 N.3    14  PHE14      -0.1241
      2  CA       -23.8740   19.5640   57.8580 C.3    14  PHE14       0.1605
      3  C        -24.4540   19.5560   59.2900 C.2    14  PHE14       0.2264
      4  O        -24.3460   20.5670   59.9860 O.2    14  PHE14      -0.2867
      5  CB       -23.8990   21.0020   57.2900 C.3    14  PHE14       0.0534
      6  CG       -23.5440   21.1740   55.8280 C.ar   14  PHE14      -0.0203
      7  CD1      -22.6610   20.3060   55.1990 C.ar   14  PHE14      -0.0042
      8  CD2      -24.0310   22.2520   55.1030 C.ar   14  PHE14      -0.0042
      9  CE1      -22.3320   20.4750   53.8580 C.ar   14  PHE14      -0.0003
     10  CE2      -23.6840   22.4250   53.7640 C.ar   14  PHE14      -0.0003
     11  CZ       -22.8380   21.5340   53.1520 C.ar   14  PHE14      -0.0000
     12  N        -26.6120   22.5880   60.5000 N.3    17  GLY17      -0.1225
     13  CA       -25.9300   23.8310   60.8660 C.3    17  GLY17       0.1811
     14  C        -25.5010   23.9350   62.3350 C.2    17  GLY17       0.2280
     15  O        -25.2930   25.0520   62.8060 O.2    17  GLY17      -0.2866
     16  N        -22.7900   21.7850   63.7840 N.3    19  GLU19      -0.1245
     17  CA       -21.4050   21.3410   63.9910 C.3    19  GLU19       0.1567
     18  C        -20.4070   21.9640   63.0200 C.2    19  GLU19       0.2260
     19  O        -20.7670   22.3270   61.9030 O.2    19  GLU19      -0.2867
     20  CB       -21.3230   19.8130   63.8620 C.3    19  GLU19       0.0388
     21  CG       -22.1970   19.0450   64.8420 C.3    19  GLU19       0.1160
     22  CD       -21.8440   19.2340   66.3040 C.2    19  GLU19       0.3649
     23  OE1      -20.6390   19.1810   66.6400 O.co2  19  GLU19      -0.2457
     24  OE2      -22.7760   19.4200   67.1190 O.co2  19  GLU19      -0.2457
     25  N        -17.1550   21.6530   60.5390 N.3    21  TYR21      -0.1241
     26  CA       -16.5340   20.6580   59.6610 C.3    21  TYR21       0.1605
     27  C        -15.1550   21.1230   59.2050 C.2    21  TYR21       0.2264
     28  O        -14.9550   22.3150   58.9790 O.2    21  TYR21      -0.2867
     29  CB       -17.4270   20.3730   58.4470 C.3    21  TYR21       0.0534
     30  CG       -18.6210   19.5070   58.7790 C.ar   21  TYR21      -0.0201
     31  CD1      -19.7000   20.0190   59.4880 C.ar   21  TYR21      -0.0009
     32  CD2      -18.6530   18.1630   58.4240 C.ar   21  TYR21      -0.0009
     33  CE1      -20.7890   19.2200   59.8240 C.ar   21  TYR21       0.0417
     34  CE2      -19.7450   17.3580   58.7360 C.ar   21  TYR21       0.0417
     35  CZ       -20.8140   17.8910   59.4360 C.ar   21  TYR21       0.1957
     36  OH       -21.9070   17.1220   59.7630 O.3    21  TYR21      -0.2866
     37  N         -7.1000   25.6780   50.9260 N.3    32  ARG32      -0.1245
     38  CA        -6.7280   26.5000   52.0830 C.3    32  ARG32       0.1563
     39  C         -6.2120   25.6140   53.2220 C.2    32  ARG32       0.2260
     40  O         -6.8900   24.6570   53.5890 O.2    32  ARG32      -0.2867
     41  CB        -7.9310   27.3270   52.5730 C.3    32  ARG32       0.0307
     42  CG        -8.5070   28.3230   51.5680 C.3    32  ARG32       0.0489
     43  CD        -7.5760   29.4790   51.2710 C.3    32  ARG32       0.2205
     44  NE        -8.2870   30.5920   50.6380 N.pl3  32  ARG32      -0.0865
     45  CZ        -7.7290   31.7450   50.2730 C.cat  32  ARG32       0.5346
     46  NH1       -6.4300   31.9570   50.4690 N.pl3  32  ARG32       0.1354
     47  NH2       -8.4640   32.6950   49.7070 N.pl3  32  ARG32       0.1354
     48  N         -8.3390   24.5050   56.7870 N.3    35  LEU35      -0.1245
     49  CA        -9.6640   25.0730   56.5470 C.3    35  LEU35       0.1561
     50  C        -10.7360   24.4230   57.4130 C.2    35  LEU35       0.2260
     51  O        -10.8910   23.2020   57.3910 O.2    35  LEU35      -0.2867
     52  CB       -10.0580   24.9880   55.0660 C.3    35  LEU35       0.0270
     53  CG       -11.3220   25.7550   54.6460 C.3    35  LEU35       0.0019
     54  CD1      -11.1620   27.2630   54.8410 C.3    35  LEU35       0.0001
     55  CD2      -11.6890   25.4420   53.2070 C.3    35  LEU35       0.0001
     56  N        -14.9350   25.1590   58.5560 N.3    37  GLY37      -0.1210
     57  CA       -16.1800   25.9080   58.3770 C.3    37  GLY37       0.1956
     58  C        -17.0530   25.6340   59.5940 C.2    37  GLY37       0.2612
     59  O        -17.3380   24.4680   59.8670 O.2    37  GLY37      -0.2717
     60  N        -17.4610   26.6860   60.3350 N.am   38  GLU38      -0.1966
     61  CA       -18.2830   26.5320   61.5410 C.3    38  GLU38       0.1718
     62  C        -19.5070   27.4600   61.5300 C.2    38  GLU38       0.2458
     63  O        -19.5080   28.4360   60.7810 O.2    38  GLU38      -0.2730
     64  CB       -17.4370   26.7500   62.8100 C.3    38  GLU38       0.0428
     65  CG       -16.8320   28.1360   62.9550 C.3    38  GLU38       0.1163
     66  CD       -15.9410   28.2790   64.1720 C.2    38  GLU38       0.3649
     67  OE1      -16.4370   28.0560   65.3000 O.co2  38  GLU38      -0.2457
     68  OE2      -14.7420   28.5960   63.9990 O.co2  38  GLU38      -0.2457
     69  N        -20.5450   27.1730   62.3590 N.am   39  PRO39      -0.2727
     70  CA       -21.7280   28.0420   62.3840 C.3    39  PRO39       0.1402
     71  C        -21.4600   29.4150   63.0100 C.2    39  PRO39       0.2269
     72  O        -20.8320   29.4950   64.0650 O.2    39  PRO39      -0.2865
     73  CB       -22.7500   27.2470   63.2110 C.3    39  PRO39       0.0296
     74  CG       -22.2660   25.8630   63.2180 C.3    39  PRO39       0.0237
     75  CD       -20.7840   25.9350   63.1290 C.3    39  PRO39       0.0939
     76  N        -27.4650   29.9560   55.0590 N.3    48  LEU48      -0.1231
     77  CA       -26.7830   29.5450   56.2930 C.3    48  LEU48       0.1678
     78  C        -25.4210   30.2690   56.3710 C.2    48  LEU48       0.2434
     79  O        -24.5890   30.0270   55.4990 O.2    48  LEU48      -0.2733
     80  CB       -26.5860   28.0110   56.2390 C.3    48  LEU48       0.0284
     81  CG       -25.7520   27.3200   57.3300 C.3    48  LEU48       0.0019
     82  CD1      -26.4240   27.3950   58.6900 C.3    48  LEU48       0.0001
     83  CD2      -25.5300   25.8580   56.9760 C.3    48  LEU48       0.0001
     84  N        -25.1830   31.1570   57.3750 N.am   49  PRO49      -0.2718
     85  CA       -23.8830   31.8360   57.4520 C.3    49  PRO49       0.1535
     86  C        -22.8040   30.9020   58.0050 C.2    49  PRO49       0.2598
     87  O        -23.0610   30.1830   58.9710 O.2    49  PRO49      -0.2715
     88  CB       -24.1530   33.0160   58.3870 C.3    49  PRO49       0.0310
     89  CG       -25.2280   32.5490   59.2630 C.3    49  PRO49       0.0237
     90  CD       -26.1040   31.6730   58.4070 C.3    49  PRO49       0.0939
     91  N        -21.6070   30.9090   57.3870 N.am   50  VAL50      -0.1978
     92  CA       -20.4860   30.0510   57.7820 C.3    50  VAL50       0.1596
     93  C        -19.2110   30.8810   57.9440 C.2    50  VAL50       0.2287
     94  O        -18.8310   31.5960   57.0180 O.2    50  VAL50      -0.2864
     95  CB       -20.2720   28.9130   56.7450 C.3    50  VAL50       0.0276
     96  CG1      -19.1630   27.9590   57.1900 C.3    50  VAL50       0.0022
     97  CG2      -21.5690   28.1470   56.4920 C.3    50  VAL50       0.0022
     98  N        -15.3810   30.7730   57.9700 N.3    52  MET52      -0.1245
     99  CA       -14.2610   29.9410   57.5360 C.3    52  MET52       0.1570
    100  C        -12.9840   30.4630   58.1780 C.2    52  MET52       0.2261
    101  O        -12.7720   31.6710   58.1810 O.2    52  MET52      -0.2867
    102  CB       -14.1130   29.9770   56.0070 C.3    52  MET52       0.0387
    103  CG       -15.2450   29.3100   55.2690 C.3    52  MET52       0.0595
    104  SD       -15.1540   27.5080   55.3460 S.3    52  MET52      -0.1393
    105  CE       -16.5560   27.0960   54.4030 C.3    52  MET52       0.0692
    106  N         -8.6170   29.6730   58.3790 N.3    54  PHE54      -0.1241
    107  CA        -7.5160   28.9590   57.7250 C.3    54  PHE54       0.1605
    108  C         -6.1730   29.6820   57.8870 C.2    54  PHE54       0.2264
    109  O         -6.1420   30.8400   58.3050 O.2    54  PHE54      -0.2867
    110  CB        -7.8380   28.7970   56.2250 C.3    54  PHE54       0.0534
    111  CG        -8.1600   30.0890   55.5110 C.ar   54  PHE54      -0.0203
    112  CD1       -9.4620   30.5620   55.4500 C.ar   54  PHE54      -0.0042
    113  CD2       -7.1610   30.8290   54.8960 C.ar   54  PHE54      -0.0042
    114  CE1       -9.7570   31.7570   54.7970 C.ar   54  PHE54      -0.0003
    115  CE2       -7.4580   32.0240   54.2400 C.ar   54  PHE54      -0.0003
    116  CZ        -8.7540   32.4790   54.1940 C.ar   54  PHE54      -0.0000
    117  N        -12.7960   34.5590   57.1510 N.3    63  THR63      -0.1218
    118  CA       -13.7310   35.1610   56.1910 C.3    63  THR63       0.1862
    119  C        -15.1560   34.6600   56.4740 C.2    63  THR63       0.2287
    120  O        -15.3290   33.4930   56.8310 O.2    63  THR63      -0.2866
    121  CB       -13.2900   34.8560   54.7490 C.3    63  THR63       0.1770
    122  OG1      -13.0330   33.4600   54.6140 O.3    63  THR63      -0.2211
    123  CG2      -12.0430   35.6260   54.3430 C.3    63  THR63       0.0375
    124  N        -18.6020   33.6000   55.0300 N.3    65  TRP65      -0.1241
    125  CA       -19.3260   33.1350   53.8400 C.3    65  TRP65       0.1605
    126  C        -20.8170   32.9340   54.1200 C.2    65  TRP65       0.2264
    127  O        -21.2240   32.8350   55.2780 O.2    65  TRP65      -0.2867
    128  CB       -18.7140   31.8240   53.3190 C.3    65  TRP65       0.0550
    129  CG       -17.3680   32.0010   52.6880 C.ar   65  TRP65       0.0003
    130  CD1      -16.1780   32.1750   53.3270 C.ar   65  TRP65       0.0946
    131  CD2      -17.0720   31.9680   51.2890 C.ar   65  TRP65       0.0152
    132  NE1      -15.1610   32.2920   52.4080 N.ar   65  TRP65      -0.2442
    133  CE2      -15.6840   32.1720   51.1480 C.ar   65  TRP65       0.0810
    134  CE3      -17.8550   31.8400   50.1340 C.ar   65  TRP65       0.0012
    135  CZ2      -15.0580   32.2190   49.8990 C.ar   65  TRP65       0.0191
    136  CZ3      -17.2350   31.8870   48.8960 C.ar   65  TRP65       0.0001
    137  CH2      -15.8530   32.0740   48.7870 C.ar   65  TRP65       0.0015
    138  N        -23.8640   30.3540   52.7480 N.3    67  PHE67      -0.1241
    139  CA       -24.2410   29.1620   51.9770 C.3    67  PHE67       0.1605
    140  C        -25.7280   29.1980   51.6420 C.2    67  PHE67       0.2264
    141  O        -26.5340   29.2950   52.5600 O.2    67  PHE67      -0.2867
    142  CB       -23.9820   27.8720   52.7870 C.3    67  PHE67       0.0534
    143  CG       -22.5670   27.3680   52.9700 C.ar   67  PHE67      -0.0203
    144  CD1      -21.4750   28.2100   52.7950 C.ar   67  PHE67      -0.0042
    145  CD2      -22.3300   26.0660   53.3840 C.ar   67  PHE67      -0.0042
    146  CE1      -20.1780   27.7430   53.0010 C.ar   67  PHE67      -0.0003
    147  CE2      -21.0340   25.6050   53.5910 C.ar   67  PHE67      -0.0003
    148  CZ       -19.9680   26.4470   53.4060 C.ar   67  PHE67      -0.0000
    149  N        -25.0080   23.3240   46.8700 N.3    74  VAL74      -0.1245
    150  CA       -24.5660   24.3420   47.8300 C.3    74  VAL74       0.1561
    151  C        -23.8440   25.4800   47.0940 C.2    74  VAL74       0.2260
    152  O        -22.7610   25.2590   46.5520 O.2    74  VAL74      -0.2867
    153  CB       -23.6380   23.7120   48.9040 C.3    74  VAL74       0.0252
    154  CG1      -23.2050   24.7460   49.9470 C.3    74  VAL74       0.0019
    155  CG2      -24.3130   22.5200   49.5730 C.3    74  VAL74       0.0019
    156  N        -21.9520   28.8690   47.7250 N.3    76  ALA76      -0.1245
    157  CA       -21.2790   29.6670   48.7540 C.3    76  ALA76       0.1562
    158  C        -20.8690   31.0180   48.1730 C.2    76  ALA76       0.2260
    159  O        -20.2790   31.0480   47.0950 O.2    76  ALA76      -0.2867
    160  CB       -20.0500   28.9260   49.2560 C.3    76  ALA76       0.0290
    161  N        -19.1950   35.2000   49.0180 N.3    78  LEU78      -0.1245
    162  CA       -18.4280   36.1390   49.8480 C.3    78  LEU78       0.1561
    163  C        -18.2880   37.4380   49.0440 C.2    78  LEU78       0.2260
    164  O        -17.3730   37.5630   48.2280 O.2    78  LEU78      -0.2867
    165  CB       -17.0460   35.5490   50.1980 C.3    78  LEU78       0.0270
    166  CG       -16.0580   36.4500   50.9600 C.3    78  LEU78       0.0019
    167  CD1      -16.5450   36.7370   52.3630 C.3    78  LEU78       0.0001
    168  CD2      -14.6910   35.8000   51.0440 C.3    78  LEU78       0.0001
    169  N        -18.8290   30.3480   44.7460 N.3    83  GLN83      -0.1245
    170  CA       -18.3000   28.9930   44.5760 C.3    83  GLN83       0.1566
    171  C        -19.4670   28.0120   44.6550 C.2    83  GLN83       0.2260
    172  O        -20.1850   28.0100   45.6550 O.2    83  GLN83      -0.2867
    173  CB       -17.2710   28.6500   45.6570 C.3    83  GLN83       0.0367
    174  CG       -16.0050   29.5010   45.6240 C.3    83  GLN83       0.0905
    175  CD       -14.9380   29.0110   46.5810 C.2    83  GLN83       0.2608
    176  OE1      -15.0370   27.9360   47.1840 O.2    83  GLN83      -0.2717
    177  NE2      -13.8720   29.7830   46.7300 N.am   83  GLN83      -0.0878
    178  N        -21.0180   24.1020   44.7330 N.3    85  ARG85      -0.1245
    179  CA       -20.6790   22.7510   45.1760 C.3    85  ARG85       0.1563
    180  C        -21.9020   21.8440   45.2010 C.2    85  ARG85       0.2260
    181  O        -23.0230   22.3220   45.3680 O.2    85  ARG85      -0.2867
    182  CB       -20.0620   22.7930   46.5860 C.3    85  ARG85       0.0307
    183  CG       -18.5680   23.0500   46.6030 C.3    85  ARG85       0.0489
    184  CD       -18.0510   23.1590   48.0220 C.3    85  ARG85       0.2205
    185  NE       -16.6310   23.5090   48.0650 N.pl3  85  ARG85      -0.0865
    186  CZ       -16.1270   24.7290   47.8820 C.cat  85  ARG85       0.5346
    187  NH1      -16.9290   25.7590   47.6260 N.pl3  85  ARG85       0.1354
    188  NH2      -14.8160   24.9290   47.9430 N.pl3  85  ARG85       0.1354
    189  N        -23.0250   18.0940   47.1180 N.3    87  VAL87      -0.1245
    190  CA       -22.6650   17.0450   48.0740 C.3    87  VAL87       0.1561
    191  C        -23.0120   15.7310   47.3600 C.2    87  VAL87       0.2260
    192  O        -24.1890   15.3940   47.2430 O.2    87  VAL87      -0.2867
    193  CB       -23.3980   17.1870   49.4380 C.3    87  VAL87       0.0252
    194  CG1      -22.8430   16.1930   50.4520 C.3    87  VAL87       0.0019
    195  CG2      -23.2890   18.6090   49.9930 C.3    87  VAL87       0.0019
    196  N        -18.6850   13.9120   54.5020 N.3    97  HIS97      -0.1241
    197  CA       -19.2930   13.9700   53.1790 C.3    97  HIS97       0.1621
    198  C        -18.2630   14.3600   52.1250 C.2    97  HIS97       0.2264
    199  O        -17.2000   14.8760   52.4670 O.2    97  HIS97      -0.2867
    200  CB       -20.4930   14.9320   53.1800 C.3    97  HIS97       0.0745
    201  CG       -20.1640   16.3170   53.6260 C.ar   97  HIS97       0.0817
    202  ND1      -20.2670   16.6940   54.9490 N.ar   97  HIS97      -0.2268
    203  CD2      -19.7260   17.3690   52.9040 C.ar   97  HIS97       0.1154
    204  CE1      -19.9090   17.9660   54.9870 C.ar   97  HIS97       0.1986
    205  NE2      -19.5740   18.4110   53.7780 N.ar   97  HIS97      -0.2212
    206  N        -17.6910   16.4520   48.4490 N.3    99  ASP99      -0.1239
    207  CA       -18.2320   17.4940   47.5780 C.3    99  ASP99       0.1674
    208  C        -17.5540   17.5050   46.2340 C.2    99  ASP99       0.2266
    209  O        -16.3690   17.2040   46.1420 O.2    99  ASP99      -0.2867
    210  CB       -18.0110   18.8840   48.1900 C.3    99  ASP99       0.1410
    211  CG       -18.7420   19.1430   49.4770 C.2    99  ASP99       0.3668
    212  OD1      -19.8060   18.5330   49.6840 O.co2  99  ASP99      -0.2456
    213  OD2      -18.2690   19.9860   50.2600 O.co2  99  ASP99      -0.2456
    214  N        -13.6170   17.2970   47.2130 N.3   109  GLU109     -0.1245
    215  CA       -13.2220   17.5520   48.5950 C.3   109  GLU109      0.1567
    216  C        -13.8990   16.5960   49.5610 C.2   109  GLU109      0.2260
    217  O        -15.0470   16.2310   49.3320 O.2   109  GLU109     -0.2867
    218  CB       -13.6690   18.9620   49.0000 C.3   109  GLU109      0.0388
    219  CG       -12.9730   20.1040   48.2830 C.3   109  GLU109      0.1160
    220  CD       -13.5300   21.4720   48.6310 C.2   109  GLU109      0.3649
    221  OE1      -14.6990   21.5530   49.0750 O.co2 109  GLU109     -0.2457
    222  OE2      -12.8020   22.4730   48.4460 O.co2 109  GLU109     -0.2457
    223  N        -15.0480   16.5270   53.5800 N.3   111  TRP111     -0.1241
    224  CA       -15.2410   17.3020   54.7970 C.3   111  TRP111      0.1605
    225  C        -15.7110   16.3430   55.8810 C.2   111  TRP111      0.2264
    226  O        -16.4900   15.4380   55.5880 O.2   111  TRP111     -0.2867
    227  CB       -16.2950   18.3870   54.5800 C.3   111  TRP111      0.0550
    228  CG       -15.8510   19.5100   53.6970 C.ar  111  TRP111      0.0003
    229  CD1      -15.8830   19.5450   52.3350 C.ar  111  TRP111      0.0946
    230  CD2      -15.3750   20.7910   54.1220 C.ar  111  TRP111      0.0152
    231  NE1      -15.4340   20.7640   51.8830 N.ar  111  TRP111     -0.2442
    232  CE2      -15.1280   21.5530   52.9610 C.ar  111  TRP111      0.0810
    233  CE3      -15.1310   21.3710   55.3760 C.ar  111  TRP111      0.0012
    234  CZ2      -14.6290   22.8580   53.0170 C.ar  111  TRP111      0.0191
    235  CZ3      -14.6450   22.6670   55.4290 C.ar  111  TRP111      0.0001
    236  CH2      -14.3990   23.3950   54.2610 C.ar  111  TRP111      0.0015
@<TRIPOS>BOND
     1   170   171    1
     2   170   169    1
     3   170   173    1
     4   171   172    2
     5   178   179    1
     6   179   180    1
     7   179   182    1
     8   180   181    2
     9   174   173    1
    10   174   175    1
    11   209   208    2
    12   208   207    1
    13   152   151    2
    14   175   177   am
    15   175   176    2
    16   182   183    1
    17   183   184    1
    18   149   150    1
    19   151   150    1
    20   159   158    2
    21   189   190    1
    22   214   215    1
    23   192   191    2
    24   191   190    1
    25   207   210    1
    26   207   206    1
    27   187   186    1
    28   156   157    1
    29   150   153    1
    30   186   188    1
    31   186   185    2
    32   184   185    1
    33   190   193    1
    34   158   157    1
    35   210   211    1
    36   164   163    2
    37   219   220    1
    38   219   218    1
    39   222   220   ar
    40   215   218    1
    41   215   216    1
    42   220   221   ar
    43   157   160    1
    44   137   136   ar
    45   137   135   ar
    46   136   134   ar
    47   153   155    1
    48   153   154    1
    49   161   162    1
    50   163   162    1
    51   217   216    2
    52   193   195    1
    53   193   194    1
    54   211   212   ar
    55   211   213   ar
    56    47    45    1
    57   162   165    1
    58   135   133   ar
    59   134   131   ar
    60   165   166    1
    61    45    46    1
    62    45    44    2
    63    44    43    1
    64    37    38    1
    65   166   168    1
    66   166   167    1
    67   133   131   ar
    68   133   132   ar
    69    43    42    1
    70   131   129   ar
    71    42    41    1
    72   140   139    1
    73   140   141    2
    74   231   229   ar
    75   231   232   ar
    76   139   138    1
    77   139   142    1
    78    38    41    1
    79    38    39    1
    80   198   199    2
    81   198   197    1
    82   229   228   ar
    83   132   130   ar
    84   129   128    1
    85   129   130   ar
    86   142   143    1
    87   144   143   ar
    88   144   146   ar
    89   203   201   ar
    90   203   205   ar
    91   232   234   ar
    92   232   230   ar
    93   143   145   ar
    94   146   148   ar
    95   234   236   ar
    96    11    10   ar
    97    11     9   ar
    98   197   200    1
    99   197   196    1
   100   200   201    1
   101    55    53    1
   102    39    40    2
   103   128   125    1
   104   145   147   ar
   105   148   147   ar
   106   223   224    1
   107   201   202   ar
   108   228   230   ar
   109   228   227    1
   110    10     8   ar
   111   205   204   ar
   112   125   126    1
   113   125   124    1
   114     9     7   ar
   115   126   127    2
   116   230   233   ar
   117   116   115   ar
   118   116   114   ar
   119   115   113   ar
   120   236   235   ar
   121   123   121    1
   122   105   104    1
   123   227   224    1
   124   122   121    1
   125    53    54    1
   126    53    52    1
   127   121   118    1
   128   224   225    1
   129   114   112   ar
   130   113   111   ar
   131   202   204   ar
   132    76    77    1
   133    52    49    1
   134     8     6   ar
   135     7     6   ar
   136   103   104    1
   137   103   102    1
   138   233   235   ar
   139   112   111   ar
   140    79    78    2
   141   111   110    1
   142   226   225    2
   143     6     5    1
   144   102    99    1
   145   118   119    1
   146   118   117    1
   147   110   107    1
   148    80    77    1
   149    80    81    1
   150    77    78    1
   151    78    84   am
   152   119   120    2
   153    97    95    1
   154    49    48    1
   155    49    50    1
   156    95    96    1
   157    95    92    1
   158     1     2    1
   159    83    81    1
   160    94    93    2
   161     5     2    1
   162    81    82    1
   163    84    85    1
   164    84    90    1
   165    91    92    1
   166    91    86   am
   167    51    50    2
   168    85    86    1
   169    85    88    1
   170    99    98    1
   171    99   100    1
   172   107   108    1
   173   107   106    1
   174    92    93    1
   175     2     3    1
   176   108   109    2
   177    86    87    2
   178   100   101    2
   179    57    56    1
   180    57    58    1
   181    88    89    1
   182    90    89    1
   183    32    34   ar
   184    32    30   ar
   185    29    30    1
   186    29    26    1
   187    34    35   ar
   188    30    31   ar
   189    28    27    2
   190    27    26    1
   191     3     4    2
   192    35    36    1
   193    35    33   ar
   194    31    33   ar
   195    58    59    2
   196    58    60   am
   197    26    25    1
   198    60    61    1
   199    12    13    1
   200    63    62    2
   201    13    14    1
   202    62    61    1
   203    62    69   am
   204    61    64    1
   205    19    18    2
   206    14    15    2
   207    69    70    1
   208    69    75    1
   209    70    71    1
   210    70    73    1
   211    64    65    1
   212    65    66    1
   213    71    72    2
   214    18    17    1
   215    75    74    1
   216    73    74    1
   217    16    17    1
   218    20    17    1
   219    20    21    1
   220    68    66   ar
   221    66    67   ar
   222    21    22    1
   223    22    23   ar
   224    22    24   ar
