@<TRIPOS>MOLECULE
tmp/3zuwB03.pdb
 199 191 0 0 0
SMALL
GASTEIGER

@<TRIPOS>ATOM
      1  N         16.0140   98.4040   17.5500 N.3   175  ILE175     -0.1245
      2  CA        14.9890   99.2030   18.1750 C.3   175  ILE175      0.1561
      3  C         14.8140   98.7990   19.6690 C.2   175  ILE175      0.2260
      4  O         14.8770   99.6470   20.5460 O.2   175  ILE175     -0.2867
      5  CB        13.6930   99.0790   17.4110 C.3   175  ILE175      0.0252
      6  CG1       13.8490   99.7110   16.0110 C.3   175  ILE175      0.0019
      7  CG2       12.5220   99.6670   18.2250 C.3   175  ILE175      0.0019
      8  CD1       12.6950   99.3380   15.0590 C.3   175  ILE175      0.0001
      9  N         17.6050  100.2350   21.6940 N.3   178  SER178     -0.1202
     10  CA        17.4320  101.6270   21.8210 C.3   178  SER178      0.2020
     11  C         16.4560  101.9210   22.9880 C.2   178  SER178      0.2618
     12  O         16.7290  102.7820   23.8170 O.2   178  SER178     -0.2717
     13  CB        16.9110  102.1810   20.4660 C.3   178  SER178      0.2103
     14  OG        18.0210  102.1900   19.5510 O.3   178  SER178     -0.2182
     15  N         15.3480  101.1880   23.0510 N.am  179  PHE179     -0.1975
     16  CA        14.4020  101.3160   24.1310 C.3   179  PHE179      0.1639
     17  C         15.0220  100.9280   25.4560 C.2   179  PHE179      0.2290
     18  O         14.8970  101.7350   26.3820 O.2   179  PHE179     -0.2864
     19  CB        13.1100  100.5660   23.8680 C.3   179  PHE179      0.0560
     20  CG        12.2080  101.2740   22.9030 C.ar  179  PHE179     -0.0200
     21  CD1       11.6600  102.5340   23.2210 C.ar  179  PHE179     -0.0042
     22  CD2       11.8530  100.6800   21.6880 C.ar  179  PHE179     -0.0042
     23  CE1       10.7760  103.1980   22.3320 C.ar  179  PHE179     -0.0003
     24  CE2       10.9840  101.3450   20.7970 C.ar  179  PHE179     -0.0003
     25  CZ        10.4860  102.6220   21.1090 C.ar  179  PHE179     -0.0000
     26  N         17.4530  103.8170   26.4190 N.3   182  THR182     -0.1218
     27  CA        16.7040  105.0360   26.6800 C.3   182  THR182      0.1862
     28  C         15.9350  104.9190   28.0160 C.2   182  THR182      0.2287
     29  O         15.9380  105.8520   28.8290 O.2   182  THR182     -0.2866
     30  CB        15.7650  105.3750   25.4770 C.3   182  THR182      0.1770
     31  OG1       16.5780  105.5060   24.3200 O.3   182  THR182     -0.2211
     32  CG2       15.0100  106.6940   25.6480 C.3   182  THR182      0.0375
     33  N         18.4170  105.5090   30.8310 N.3   185  LEU185     -0.1231
     34  CA        18.6570  106.9360   30.8170 C.3   185  LEU185      0.1693
     35  C         17.5280  107.6950   31.5400 C.2   185  LEU185      0.2591
     36  O         17.8030  108.4290   32.4680 O.2   185  LEU185     -0.2718
     37  CB        18.6810  107.4600   29.3690 C.3   185  LEU185      0.0284
     38  CG        19.4910  108.7300   29.0010 C.3   185  LEU185      0.0019
     39  CD1       19.1620  109.1670   27.5720 C.3   185  LEU185      0.0001
     40  CD2       19.5150  109.8990   29.9450 C.3   185  LEU185      0.0001
     41  N         16.2900  107.4490   31.1090 N.am  186  ALA186     -0.1980
     42  CA        15.1090  107.9930   31.7400 C.3   186  ALA186      0.1597
     43  C         15.0110  107.6600   33.2620 C.2   186  ALA186      0.2287
     44  O         14.6970  108.5600   34.0970 O.2   186  ALA186     -0.2864
     45  CB        13.8820  107.5290   31.0460 C.3   186  ALA186      0.0319
     46  N         17.5540  109.6910   35.1710 N.3   189  LEU189     -0.1231
     47  CA        17.1050  111.0890   35.2090 C.3   189  LEU189      0.1693
     48  C         15.9410  111.2450   36.1670 C.2   189  LEU189      0.2592
     49  O         15.9980  112.1320   37.0390 O.2   189  LEU189     -0.2718
     50  CB        16.6870  111.5670   33.8290 C.3   189  LEU189      0.0284
     51  CG        17.8960  111.8050   32.9060 C.3   189  LEU189      0.0019
     52  CD1       17.4410  112.0650   31.4710 C.3   189  LEU189      0.0001
     53  CD2       18.8400  112.8600   33.3940 C.3   189  LEU189      0.0001
     54  N         14.9580  110.3270   36.0890 N.am  190  HIS190     -0.1976
     55  CA        13.8110  110.3920   36.9660 C.3   190  HIS190      0.1656
     56  C         14.1310  110.3410   38.4550 C.2   190  HIS190      0.2291
     57  O         13.7340  111.2340   39.2120 O.2   190  HIS190     -0.2864
     58  CB        12.7010  109.4240   36.6170 C.3   190  HIS190      0.0771
     59  CG        11.4990  109.5620   37.5140 C.ar  190  HIS190      0.0820
     60  ND1       10.7060  110.6770   37.5250 N.ar  190  HIS190     -0.2267
     61  CD2       10.9450  108.7120   38.4150 C.ar  190  HIS190      0.1154
     62  CE1        9.6760  110.4900   38.3310 C.ar  190  HIS190      0.1986
     63  NE2        9.8590  109.3520   38.9630 N.ar  190  HIS190     -0.2212
     64  N         16.0370  113.3280   39.4610 N.3   193  LEU193     -0.1231
     65  CA        15.3520  114.5950   39.4860 C.3   193  LEU193      0.1693
     66  C         14.5410  114.7410   40.8180 C.2   193  LEU193      0.2591
     67  O         14.7730  115.6920   41.5930 O.2   193  LEU193     -0.2718
     68  CB        14.4560  114.7560   38.2620 C.3   193  LEU193      0.0284
     69  CG        13.7720  116.1600   38.1240 C.3   193  LEU193      0.0019
     70  CD1       14.8230  117.3220   38.1500 C.3   193  LEU193      0.0001
     71  CD2       12.9050  116.2250   36.8800 C.3   193  LEU193      0.0001
     72  N         13.6990  113.7400   41.1120 N.am  194  VAL194     -0.1980
     73  CA        12.8960  113.7270   42.2990 C.3   194  VAL194      0.1595
     74  C         13.7410  113.8630   43.5640 C.2   194  VAL194      0.2287
     75  O         13.4170  114.6300   44.4850 O.2   194  VAL194     -0.2864
     76  CB        12.0010  112.4650   42.3640 C.3   194  VAL194      0.0276
     77  CG1       11.1660  112.4310   43.6850 C.3   194  VAL194      0.0022
     78  CG2       11.0570  112.4390   41.1960 C.3   194  VAL194      0.0022
     79  N          7.5170  120.6670   42.1530 N.3   209  PRO209     -0.2116
     80  CA         7.6230  120.1510   40.7980 C.3   209  PRO209      0.1372
     81  C          7.9160  121.2790   39.8150 C.2   209  PRO209      0.2244
     82  O          8.5080  121.0190   38.7490 O.2   209  PRO209     -0.2868
     83  CB         6.2510  119.5200   40.5200 C.3   209  PRO209      0.0268
     84  CG         5.3140  119.9500   41.6930 C.3   209  PRO209      0.0207
     85  CD         6.2950  120.2090   42.8600 C.3   209  PRO209      0.0892
     86  N         11.3090  121.2960   39.0850 N.3   212  GLU212     -0.1231
     87  CA        11.7200  120.0730   38.3770 C.3   212  GLU212      0.1699
     88  C         11.5210  120.3710   36.9040 C.2   212  GLU212      0.2592
     89  O         12.4230  120.1370   36.1040 O.2   212  GLU212     -0.2718
     90  CB        10.8750  118.8620   38.8010 C.3   212  GLU212      0.0402
     91  CG        11.1840  118.3290   40.2330 C.3   212  GLU212      0.1161
     92  CD        10.2760  117.1570   40.5940 C.2   212  GLU212      0.3649
     93  OE1        9.0380  117.2610   40.4480 O.co2 212  GLU212     -0.2457
     94  OE2       10.8070  116.0820   40.9090 O.co2 212  GLU212     -0.2457
     95  N         10.3630  120.9470   36.5670 N.am  213  ASP213     -0.1974
     96  CA        10.1220  121.4410   35.2200 C.3   213  ASP213      0.1709
     97  C         11.2070  122.4950   34.8790 C.2   213  ASP213      0.2293
     98  O         11.7980  122.4560   33.8070 O.2   213  ASP213     -0.2864
     99  CB         8.7680  122.1040   35.1340 C.3   213  ASP213      0.1436
    100  CG         7.6160  121.1070   34.9640 C.2   213  ASP213      0.3671
    101  OD1        7.8320  119.9970   34.4410 O.co2 213  ASP213     -0.2456
    102  OD2        6.4430  121.4840   35.2480 O.co2 213  ASP213     -0.2456
    103  N         14.7420  121.1450   33.9690 N.3   216  PHE216     -0.1241
    104  CA        14.8500  120.4700   32.7030 C.3   216  PHE216      0.1605
    105  C         14.7000  121.4150   31.5290 C.2   216  PHE216      0.2264
    106  O         15.3380  121.1960   30.4890 O.2   216  PHE216     -0.2867
    107  CB        13.9370  119.1960   32.5880 C.3   216  PHE216      0.0534
    108  CG        14.7170  117.9290   32.6950 C.ar  216  PHE216     -0.0203
    109  CD1       15.3780  117.4240   31.5870 C.ar  216  PHE216     -0.0042
    110  CD2       14.9440  117.3390   33.9350 C.ar  216  PHE216     -0.0042
    111  CE1       16.2360  116.3000   31.7010 C.ar  216  PHE216     -0.0003
    112  CE2       15.7900  116.2090   34.0690 C.ar  216  PHE216     -0.0003
    113  CZ        16.4460  115.7040   32.9430 C.ar  216  PHE216     -0.0000
    114  N         17.6460  121.3540   28.8280 N.3   220  VAL220     -0.1245
    115  CA        17.5600  120.8720   27.4610 C.3   220  VAL220      0.1561
    116  C         16.4710  121.5670   26.6670 C.2   220  VAL220      0.2260
    117  O         16.2560  121.2390   25.4830 O.2   220  VAL220     -0.2867
    118  CB        17.2880  119.3160   27.3640 C.3   220  VAL220      0.0252
    119  CG1       18.4190  118.4710   28.0290 C.3   220  VAL220      0.0019
    120  CG2       15.9330  118.9600   27.9880 C.3   220  VAL220      0.0019
    121  N         13.2720  121.5250   27.4490 N.3   222  TYR222     -0.1227
    122  CA        11.9880  120.8070   27.4950 C.3   222  TYR222      0.1736
    123  C         11.8500  119.9950   28.7610 C.2   222  TYR222      0.2596
    124  O         12.8370  119.5180   29.3110 O.2   222  TYR222     -0.2718
    125  CB        11.7180  119.9290   26.2600 C.3   222  TYR222      0.0548
    126  CG        10.4370  119.1630   26.3720 C.ar  222  TYR222     -0.0200
    127  CD1        9.2330  119.7980   26.1660 C.ar  222  TYR222     -0.0009
    128  CD2       10.4250  117.7620   26.6440 C.ar  222  TYR222     -0.0009
    129  CE1        8.0110  119.1020   26.2260 C.ar  222  TYR222      0.0417
    130  CE2        9.1970  117.0510   26.7380 C.ar  222  TYR222      0.0417
    131  CZ         7.9990  117.7390   26.5430 C.ar  222  TYR222      0.1957
    132  OH         6.7740  117.1250   26.6100 O.3   222  TYR222     -0.2866
    133  N         10.6310  119.9230   29.2830 N.am  223  SER223     -0.1938
    134  CA        10.4350  119.0720   30.4200 C.3   223  SER223      0.2055
    135  C          9.1670  118.2850   30.1880 C.2   223  SER223      0.2643
    136  O          8.1180  118.8400   29.8290 O.2   223  SER223     -0.2714
    137  CB        10.3220  119.9140   31.6810 C.3   223  SER223      0.2130
    138  OG         9.7670  119.0960   32.6980 O.3   223  SER223     -0.2179
    139  N          9.2560  116.9800   30.3090 N.am  224  ILE224     -0.1963
    140  CA         8.0690  116.1790   29.9770 C.3   224  ILE224      0.1727
    141  C          6.9970  116.2550   31.0600 C.2   224  ILE224      0.2617
    142  O          5.8380  115.9620   30.7900 O.2   224  ILE224     -0.2715
    143  CB         8.4310  114.6960   29.6160 C.3   224  ILE224      0.0290
    144  CG1        7.3360  114.0560   28.7400 C.3   224  ILE224      0.0022
    145  CG2        8.7180  113.8340   30.9110 C.3   224  ILE224      0.0023
    146  CD1        7.7980  112.6850   28.1600 C.3   224  ILE224      0.0001
    147  N          7.3590  116.6470   32.2820 N.am  225  GLY225     -0.1940
    148  CA         6.3210  116.7400   33.3570 C.3   225  GLY225      0.2014
    149  C          6.1390  115.4550   34.2010 C.2   225  GLY225      0.2639
    150  O          6.5530  114.3520   33.7790 O.2   225  GLY225     -0.2714
    151  N          5.5620  115.5920   35.3940 N.am  226  THR226     -0.1950
    152  CA         5.5520  114.5270   36.3560 C.3   226  THR226      0.1897
    153  C          4.5870  113.3820   35.9970 C.2   226  THR226      0.2313
    154  O          4.9170  112.2520   36.2650 O.2   226  THR226     -0.2863
    155  CB         5.2990  115.0630   37.8170 C.3   226  THR226      0.1794
    156  OG1        3.9620  115.5860   37.9350 O.3   226  THR226     -0.2208
    157  CG2        6.3570  116.1710   38.2140 C.3   226  THR226      0.0378
    158  N          6.5760  111.6580   32.6850 N.3   229  ILE229     -0.1231
    159  CA         7.7740  110.8740   32.8980 C.3   229  ILE229      0.1692
    160  C          7.4590  109.4360   33.3290 C.2   229  ILE229      0.2592
    161  O          8.2340  108.5150   33.0680 O.2   229  ILE229     -0.2718
    162  CB         8.7260  111.5050   33.9090 C.3   229  ILE229      0.0266
    163  CG1        9.9870  110.6240   34.0430 C.3   229  ILE229      0.0019
    164  CG2        8.0810  111.6050   35.3090 C.3   229  ILE229      0.0020
    165  CD1       10.8500  110.5750   32.8090 C.3   229  ILE229      0.0001
    166  N          6.3220  109.2570   33.9760 N.am  230  HIS230     -0.1976
    167  CA         5.8580  107.9350   34.4370 C.3   230  HIS230      0.1656
    168  C          5.2070  107.1920   33.2590 C.2   230  HIS230      0.2291
    169  O          5.3860  105.9720   33.0920 O.2   230  HIS230     -0.2864
    170  CB         4.9010  108.0870   35.6910 C.3   230  HIS230      0.0771
    171  CG         5.6300  108.5310   36.9420 C.ar  230  HIS230      0.0820
    172  ND1        5.5620  109.8290   37.4310 N.ar  230  HIS230     -0.2267
    173  CD2        6.5160  107.8670   37.7480 C.ar  230  HIS230      0.1154
    174  CE1        6.3620  109.9360   38.4930 C.ar  230  HIS230      0.1986
    175  NE2        6.9430  108.7560   38.7190 N.ar  230  HIS230     -0.2212
    176  N          6.2740  107.6770   30.2780 N.3   232  LEU232     -0.1245
    177  CA         7.4050  107.4970   29.4260 C.3   232  LEU232      0.1561
    178  C          8.1880  106.2180   29.8780 C.2   232  LEU232      0.2260
    179  O          8.3820  105.2920   29.0600 O.2   232  LEU232     -0.2867
    180  CB         8.3040  108.7790   29.4560 C.3   232  LEU232      0.0270
    181  CG         9.5380  108.6480   28.5990 C.3   232  LEU232      0.0019
    182  CD1        9.1600  108.4550   27.0890 C.3   232  LEU232      0.0001
    183  CD2       10.6150  109.6870   28.7450 C.3   232  LEU232      0.0001
    184  N          6.2210  103.2750   28.9670 N.3   235  LEU235     -0.1231
    185  CA         6.2470  103.0490   27.5300 C.3   235  LEU235      0.1693
    186  C          7.6280  102.5350   27.0320 C.2   235  LEU235      0.2591
    187  O          7.6810  101.7390   26.1100 O.2   235  LEU235     -0.2718
    188  CB         5.8060  104.3150   26.7740 C.3   235  LEU235      0.0284
    189  CG         6.1210  104.4440   25.2770 C.3   235  LEU235      0.0019
    190  CD1        5.2180  103.5190   24.3830 C.3   235  LEU235      0.0001
    191  CD2        6.2310  105.9000   24.7180 C.3   235  LEU235      0.0001
    192  N          8.7150  103.0860   27.5610 N.am  236  LEU236     -0.1980
    193  CA        10.0020  102.7610   27.0620 C.3   236  LEU236      0.1596
    194  C         10.2490  101.2840   27.3990 C.2   236  LEU236      0.2287
    195  O         10.8460  100.5440   26.5880 O.2   236  LEU236     -0.2864
    196  CB        11.1250  103.6460   27.6570 C.3   236  LEU236      0.0297
    197  CG        11.1080  105.1340   27.2920 C.3   236  LEU236      0.0022
    198  CD1       12.2020  105.8450   28.0450 C.3   236  LEU236      0.0001
    199  CD2       11.3240  105.4020   25.7960 C.3   236  LEU236      0.0001
@<TRIPOS>BOND
     1     8     6    1
     2     6     5    1
     3     5     2    1
     4     5     7    1
     5     1     2    1
     6     2     3    1
     7    14    13    1
     8     3     4    2
     9    13    10    1
    10    24    25   ar
    11    24    22   ar
    12    25    23   ar
    13    22    20   ar
    14     9    10    1
    15    10    11    1
    16    23    21   ar
    17    20    21   ar
    18    20    19    1
    19    11    15   am
    20    11    12    2
    21    15    16    1
    22    19    16    1
    23    16    17    1
    24    31    30    1
    25   190   189    1
    26   191   189    1
    27   189   188    1
    28    17    18    2
    29    30    32    1
    30    30    27    1
    31   117   116    2
    32   199   197    1
    33   187   186    2
    34   127   129   ar
    35   127   126   ar
    36   129   131   ar
    37   125   126    1
    38   125   122    1
    39   126   128   ar
    40    26    27    1
    41   131   132    1
    42   131   130   ar
    43   195   194    2
    44   128   130   ar
    45   116   115    1
    46    27    28    1
    47   188   185    1
    48   186   185    1
    49   186   192   am
    50   193   194    1
    51   193   192    1
    52   193   196    1
    53   182   181    1
    54   197   196    1
    55   197   198    1
    56   118   115    1
    57   118   120    1
    58   118   119    1
    59   121   122    1
    60   115   114    1
    61   122   123    1
    62   185   184    1
    63    39    38    1
    64    28    29    2
    65   146   144    1
    66   181   183    1
    67   181   180    1
    68   144   143    1
    69   123   133   am
    70   123   124    2
    71    38    37    1
    72    38    40    1
    73   179   178    2
    74   133   134    1
    75    37    34    1
    76   177   180    1
    77   177   178    1
    78   177   176    1
    79   143   140    1
    80   143   145    1
    81   136   135    2
    82   140   139    1
    83   140   141    1
    84   135   139   am
    85   135   134    1
    86   134   137    1
    87   106   105    2
    88   142   141    2
    89    34    33    1
    90    34    35    1
    91    45    42    1
    92   141   147   am
    93    41    35   am
    94    41    42    1
    95    52    51    1
    96   105   104    1
    97    35    36    2
    98   109   111   ar
    99   109   108   ar
   100   137   138    1
   101   111   113   ar
   102    42    43    1
   103   147   148    1
   104   107   108    1
   105   107   104    1
   106   158   159    1
   107   108   110   ar
   108   104   103    1
   109   165   163    1
   110   159   160    1
   111   159   162    1
   112    51    53    1
   113    51    50    1
   114   113   112   ar
   115   161   160    2
   116   169   168    2
   117   168   167    1
   118    43    44    2
   119   160   166   am
   120   148   149    1
   121   150   149    2
   122    98    97    2
   123    50    47    1
   124   162   163    1
   125   162   164    1
   126   110   112   ar
   127   166   167    1
   128   149   151   am
   129   167   170    1
   130   101   100   ar
   131    97    96    1
   132   100    99    1
   133   100   102   ar
   134    99    96    1
   135    46    47    1
   136    47    48    1
   137    96    95    1
   138   151   152    1
   139   170   171    1
   140   153   154    2
   141   153   152    1
   142    54    48   am
   143    54    55    1
   144    89    88    2
   145    48    49    2
   146   152   155    1
   147    95    88   am
   148    58    55    1
   149    58    59    1
   150    71    69    1
   151    88    87    1
   152   171   172   ar
   153   171   173   ar
   154    55    56    1
   155   172   174   ar
   156    59    60   ar
   157    59    61   ar
   158    60    62   ar
   159   173   175   ar
   160   155   156    1
   161   155   157    1
   162    69    70    1
   163    69    68    1
   164    68    65    1
   165    62    63   ar
   166    87    90    1
   167    87    86    1
   168    61    63   ar
   169    56    57    2
   170   174   175   ar
   171    82    81    2
   172    90    91    1
   173    64    65    1
   174    65    66    1
   175    81    80    1
   176    91    92    1
   177    93    92   ar
   178    83    80    1
   179    83    84    1
   180    92    94   ar
   181    80    79    1
   182    66    72   am
   183    66    67    2
   184    72    73    1
   185    78    76    1
   186    84    85    1
   187    79    85    1
   188    73    76    1
   189    73    74    1
   190    76    77    1
   191    74    75    2
