@<TRIPOS>MOLECULE
tmp/3zuyA03.pdb
 85 80 0 0 0
SMALL
GASTEIGER

@<TRIPOS>ATOM
      1  N          4.9960   75.8580   64.3650 N.3    56  PRO56      -0.2116
      2  CA         4.2190   74.6170   64.1500 C.3    56  PRO56       0.1372
      3  C          4.8430   73.6340   63.1460 C.2    56  PRO56       0.2244
      4  O          4.5840   72.4340   63.2460 O.2    56  PRO56      -0.2868
      5  CB         2.8280   75.1130   63.7270 C.3    56  PRO56       0.0268
      6  CG         3.0280   76.4930   63.2670 C.3    56  PRO56       0.0207
      7  CD         4.2030   77.0550   64.0130 C.3    56  PRO56       0.0892
      8  N          6.8570   70.4250   64.3330 N.3    59  PHE59      -0.1241
      9  CA         6.1120   69.2420   64.7290 C.3    59  PHE59       0.1605
     10  C          5.6800   68.4090   63.5120 C.2    59  PHE59       0.2264
     11  O          4.9510   67.4330   63.6760 O.2    59  PHE59      -0.2867
     12  CB         4.9010   69.6630   65.5600 C.3    59  PHE59       0.0534
     13  CG         5.2690   70.2600   66.8940 C.ar   59  PHE59      -0.0203
     14  CD1        5.4460   69.4500   68.0100 C.ar   59  PHE59      -0.0042
     15  CD2        5.4320   71.6360   67.0380 C.ar   59  PHE59      -0.0042
     16  CE1        5.7660   70.0050   69.2450 C.ar   59  PHE59      -0.0003
     17  CE2        5.7610   72.1890   68.2730 C.ar   59  PHE59      -0.0003
     18  CZ         5.9170   71.3700   69.3700 C.ar   59  PHE59      -0.0000
     19  N          6.3280   64.8120   63.7530 N.3    62  LEU62      -0.1231
     20  CA         5.4330   64.1270   64.6860 C.3    62  LEU62       0.1693
     21  C          4.1900   63.6330   63.9450 C.2    62  LEU62       0.2592
     22  O          3.6270   62.6090   64.3200 O.2    62  LEU62      -0.2718
     23  CB         5.0390   65.0200   65.8840 C.3    62  LEU62       0.0284
     24  CG         4.0090   64.4260   66.8740 C.3    62  LEU62       0.0019
     25  CD1        4.5770   63.2170   67.6180 C.3    62  LEU62       0.0001
     26  CD2        3.5230   65.4750   67.8650 C.3    62  LEU62       0.0001
     27  N          3.7510   64.3610   62.9110 N.am   63  PHE63      -0.1976
     28  CA         2.5670   63.9380   62.1600 C.3    63  PHE63       0.1639
     29  C          2.9240   63.0640   60.9680 C.2    63  PHE63       0.2290
     30  O          2.0880   62.2860   60.5340 O.2    63  PHE63      -0.2864
     31  CB         1.6730   65.1320   61.7690 C.3    63  PHE63       0.0560
     32  CG         1.4000   66.0380   62.9430 C.ar   63  PHE63      -0.0200
     33  CD1        0.7560   65.5590   64.0780 C.ar   63  PHE63      -0.0042
     34  CD2        1.8040   67.3650   62.9250 C.ar   63  PHE63      -0.0042
     35  CE1        0.5760   66.3770   65.1970 C.ar   63  PHE63      -0.0003
     36  CE2        1.6020   68.1900   64.0400 C.ar   63  PHE63      -0.0003
     37  CZ         0.9910   67.6900   65.1680 C.ar   63  PHE63      -0.0000
     38  N          7.7160   59.0330   68.9400 N.3    70  ILE70      -0.1245
     39  CA         7.2520   58.2550   70.0850 C.3    70  ILE70       0.1561
     40  C          8.3390   57.3660   70.6870 C.2    70  ILE70       0.2260
     41  O          8.4490   57.3100   71.9120 O.2    70  ILE70      -0.2867
     42  CB         5.8750   57.5620   69.8510 C.3    70  ILE70       0.0252
     43  CG1        4.7660   58.6140   69.5440 C.3    70  ILE70       0.0019
     44  CG2        5.4520   56.6800   71.0420 C.3    70  ILE70       0.0019
     45  CD1        4.6530   59.8990   70.5810 C.3    70  ILE70       0.0001
     46  N          8.1360   67.5410   72.5360 N.3   133  VAL133     -0.1245
     47  CA         7.0810   66.6470   73.0260 C.3   133  VAL133      0.1561
     48  C          7.3380   66.2660   74.4930 C.2   133  VAL133      0.2260
     49  O          6.4640   66.4400   75.3350 O.2   133  VAL133     -0.2867
     50  CB         6.8670   65.4040   72.1190 C.3   133  VAL133      0.0252
     51  CG1        5.8040   64.4650   72.7070 C.3   133  VAL133      0.0019
     52  CG2        6.4880   65.8220   70.6900 C.3   133  VAL133      0.0019
     53  N          6.6280   69.2480   76.6670 N.3   136  LEU136     -0.1231
     54  CA         5.1830   69.5430   76.7880 C.3   136  LEU136      0.1693
     55  C          4.4470   68.5890   77.6980 C.2   136  LEU136      0.2591
     56  O          3.4910   69.0030   78.3290 O.2   136  LEU136     -0.2718
     57  CB         4.4840   69.6140   75.4110 C.3   136  LEU136      0.0284
     58  CG         4.8500   70.8330   74.5500 C.3   136  LEU136      0.0019
     59  CD1        4.4390   70.6280   73.0830 C.3   136  LEU136      0.0001
     60  CD2        4.2530   72.1240   75.1150 C.3   136  LEU136      0.0001
     61  N          4.8720   67.3110   77.7530 N.am  137  ILE137     -0.1980
     62  CA         4.2540   66.2740   78.6010 C.3   137  ILE137      0.1595
     63  C          4.8970   66.1750   80.0020 C.2   137  ILE137      0.2287
     64  O          4.2760   65.6260   80.8980 O.2   137  ILE137     -0.2864
     65  CB         4.1130   64.9090   77.8600 C.3   137  ILE137      0.0276
     66  CG1        5.4680   64.1740   77.7130 C.3   137  ILE137      0.0022
     67  CG2        3.4110   65.0970   76.4820 C.3   137  ILE137      0.0022
     68  CD1        5.3570   62.7850   77.0260 C.3   137  ILE137      0.0001
     69  N          5.6930   80.4830   71.8750 N.3   177  LEU177     -0.1245
     70  CA         5.1210   79.8750   70.6720 C.3   177  LEU177      0.1561
     71  C          4.0180   80.7510   70.0520 C.2   177  LEU177      0.2260
     72  O          4.0030   80.9080   68.8270 O.2   177  LEU177     -0.2867
     73  CB         4.6580   78.4280   70.9560 C.3   177  LEU177      0.0270
     74  CG         4.0770   77.5780   69.8090 C.3   177  LEU177      0.0019
     75  CD1        5.0570   77.4240   68.6540 C.3   177  LEU177      0.0001
     76  CD2        3.7260   76.1980   70.3010 C.3   177  LEU177      0.0001
     77  N          3.9070   83.0790   66.4370 N.3   181  LYS181     -0.1245
     78  CA         2.7580   83.0980   65.5200 C.3   181  LYS181      0.1561
     79  C          2.2820   84.5330   65.2540 C.2   181  LYS181      0.2260
     80  O          1.9560   84.8680   64.1140 O.2   181  LYS181     -0.2867
     81  CB         1.5970   82.2450   66.0620 C.3   181  LYS181      0.0271
     82  CG         1.8550   80.7400   66.0310 C.3   181  LYS181      0.0035
     83  CD         0.5430   79.9620   66.0070 C.3   181  LYS181      0.0206
     84  CE         0.7600   78.4750   65.8810 C.3   181  LYS181      0.1093
     85  NZ        -0.5280   77.7360   65.8200 N.3   181  LYS181     -0.1314
@<TRIPOS>BOND
     1    30    29    2
     2    29    28    1
     3    31    28    1
     4    31    32    1
     5    28    27    1
     6    27    21   am
     7    34    32   ar
     8    34    36   ar
     9    32    33   ar
    10     3     4    2
    11     3     2    1
    12     6     5    1
    13     6     7    1
    14    10    11    2
    15    10     9    1
    16     5     2    1
    17    19    20    1
    18    21    22    2
    19    21    20    1
    20     7     1    1
    21    36    37   ar
    22    33    35   ar
    23    80    79    2
    24     2     1    1
    25     8     9    1
    26    20    23    1
    27     9    12    1
    28    37    35   ar
    29    79    78    1
    30    78    81    1
    31    78    77    1
    32    12    13    1
    33    85    84    1
    34    84    83    1
    35    23    24    1
    36    83    82    1
    37    82    81    1
    38    24    25    1
    39    24    26    1
    40    13    15   ar
    41    13    14   ar
    42    15    17   ar
    43    14    16   ar
    44    17    18   ar
    45    75    74    1
    46    72    71    2
    47    38    39    1
    48    16    18   ar
    49    43    42    1
    50    43    45    1
    51    74    76    1
    52    74    73    1
    53    42    39    1
    54    42    44    1
    55    71    70    1
    56    39    40    1
    57    70    73    1
    58    70    69    1
    59    40    41    2
    60    52    50    1
    61    50    51    1
    62    50    47    1
    63    46    47    1
    64    47    48    1
    65    59    58    1
    66    48    49    2
    67    58    60    1
    68    58    57    1
    69    57    54    1
    70    67    65    1
    71    53    54    1
    72    54    55    1
    73    68    66    1
    74    55    61   am
    75    55    56    2
    76    66    65    1
    77    61    62    1
    78    65    62    1
    79    62    63    1
    80    63    64    2
