@<TRIPOS>MOLECULE
tmp/3zuyA07.pdb
 177 173 0 0 0
SMALL
GASTEIGER

@<TRIPOS>ATOM
      1  N         28.4220   61.7910   85.4520 N.3   229  VAL229     -0.1231
      2  CA        29.1440   61.2340   84.3030 C.3   229  VAL229      0.1692
      3  C         28.5880   59.8580   83.9090 C.2   229  VAL229      0.2591
      4  O         28.4100   59.5870   82.7220 O.2   229  VAL229     -0.2718
      5  CB        30.6870   61.1820   84.6100 C.3   229  VAL229      0.0266
      6  CG1       31.4590   60.4900   83.4920 C.3   229  VAL229      0.0020
      7  CG2       31.2420   62.5800   84.8520 C.3   229  VAL229      0.0020
      8  N         28.3300   58.9870   84.9020 N.am  230  LEU230     -0.1980
      9  CA        27.7830   57.6420   84.6740 C.3   230  LEU230      0.1596
     10  C         26.3220   57.7060   84.2230 C.2   230  LEU230      0.2287
     11  O         25.9200   56.9420   83.3410 O.2   230  LEU230     -0.2864
     12  CB        27.9170   56.7720   85.9400 C.3   230  LEU230      0.0297
     13  CG        29.3400   56.3500   86.3260 C.3   230  LEU230      0.0022
     14  CD1       29.4110   55.9600   87.7900 C.3   230  LEU230      0.0001
     15  CD2       29.8510   55.2200   85.4330 C.3   230  LEU230      0.0001
     16  N         26.4880   59.2310   80.6090 N.3   233  GLY233     -0.1210
     17  CA        27.2180   58.2460   79.8040 C.3   233  GLY233      0.1956
     18  C         26.4010   57.0190   79.4440 C.2   233  GLY233      0.2611
     19  O         26.3150   56.6740   78.2640 O.2   233  GLY233     -0.2717
     20  N         25.7630   56.3710   80.4560 N.am  234  ILE234     -0.1979
     21  CA        24.8710   55.2070   80.2770 C.3   234  ILE234      0.1595
     22  C         23.6420   55.6250   79.4530 C.2   234  ILE234      0.2287
     23  O         23.1540   54.8320   78.6420 O.2   234  ILE234     -0.2864
     24  CB        24.4960   54.4920   81.6170 C.3   234  ILE234      0.0276
     25  CG1       25.7480   53.8760   82.2950 C.3   234  ILE234      0.0022
     26  CG2       23.3890   53.4250   81.4210 C.3   234  ILE234      0.0022
     27  CD1       25.5740   53.5350   83.7770 C.3   234  ILE234      0.0001
     28  N         23.7290   57.7380   77.0220 N.3   236  TYR236     -0.1227
     29  CA        24.1580   57.6930   75.6160 C.3   236  TYR236      0.1736
     30  C         24.1830   56.2430   75.1350 C.2   236  TYR236      0.2595
     31  O         23.7400   55.9630   74.0250 O.2   236  TYR236     -0.2718
     32  CB        25.5650   58.3090   75.4000 C.3   236  TYR236      0.0548
     33  CG        25.7130   59.7910   75.6840 C.ar  236  TYR236     -0.0200
     34  CD1       24.7330   60.7000   75.2950 C.ar  236  TYR236     -0.0009
     35  CD2       26.8760   60.2950   76.2540 C.ar  236  TYR236     -0.0009
     36  CE1       24.8800   62.0680   75.5290 C.ar  236  TYR236      0.0417
     37  CE2       27.0400   61.6610   76.4830 C.ar  236  TYR236      0.0417
     38  CZ        26.0370   62.5450   76.1270 C.ar  236  TYR236      0.1957
     39  OH        26.1880   63.8900   76.3900 O.3   236  TYR236     -0.2866
     40  N         24.7140   55.3240   75.9710 N.am  237  LEU237     -0.1980
     41  CA        24.8450   53.9010   75.6440 C.3   237  LEU237      0.1596
     42  C         23.5180   53.2230   75.3960 C.2   237  LEU237      0.2287
     43  O         23.3560   52.6120   74.3440 O.2   237  LEU237     -0.2864
     44  CB        25.6590   53.1340   76.7000 C.3   237  LEU237      0.0297
     45  CG        27.1750   53.2260   76.5870 C.3   237  LEU237      0.0022
     46  CD1       27.8400   52.7360   77.8600 C.3   237  LEU237      0.0001
     47  CD2       27.6970   52.4570   75.3670 C.3   237  LEU237      0.0001
     48  N         21.6460   54.7670   72.2590 N.3   240  PHE240     -0.1227
     49  CA        22.1610   54.2510   70.9870 C.3   240  PHE240      0.1736
     50  C         21.5490   52.8960   70.6670 C.2   240  PHE240      0.2595
     51  O         21.0630   52.7010   69.5510 O.2   240  PHE240     -0.2718
     52  CB        23.7040   54.1620   70.9890 C.3   240  PHE240      0.0547
     53  CG        24.2850   53.7070   69.6630 C.ar  240  PHE240     -0.0202
     54  CD1       24.4630   54.6060   68.6150 C.ar  240  PHE240     -0.0042
     55  CD2       24.6470   52.3800   69.4620 C.ar  240  PHE240     -0.0042
     56  CE1       24.9840   54.1840   67.3890 C.ar  240  PHE240     -0.0003
     57  CE2       25.1740   51.9590   68.2360 C.ar  240  PHE240     -0.0003
     58  CZ        25.3380   52.8630   67.2080 C.ar  240  PHE240     -0.0000
     59  N         21.5640   51.9690   71.6480 N.am  241  PHE241     -0.1976
     60  CA        21.0100   50.6300   71.4710 C.3   241  PHE241      0.1639
     61  C         19.4990   50.5980   71.3470 C.2   241  PHE241      0.2290
     62  O         18.9840   49.7440   70.6380 O.2   241  PHE241     -0.2864
     63  CB        21.5720   49.6340   72.4950 C.3   241  PHE241      0.0560
     64  CG        23.0000   49.2650   72.1670 C.ar  241  PHE241     -0.0200
     65  CD1       23.2830   48.2670   71.2380 C.ar  241  PHE241     -0.0042
     66  CD2       24.0610   49.9530   72.7370 C.ar  241  PHE241     -0.0042
     67  CE1       24.6020   47.9470   70.9110 C.ar  241  PHE241     -0.0003
     68  CE2       25.3790   49.6360   72.4050 C.ar  241  PHE241     -0.0003
     69  CZ        25.6410   48.6370   71.4920 C.ar  241  PHE241     -0.0000
     70  N         19.0120   51.6730   67.6600 N.3   244  LYS244     -0.1245
     71  CA        19.5180   50.5900   66.8240 C.3   244  LYS244      0.1561
     72  C         18.5850   49.3670   66.8480 C.2   244  LYS244      0.2260
     73  O         18.2350   48.8630   65.7780 O.2   244  LYS244     -0.2867
     74  CB        20.9390   50.2030   67.2770 C.3   244  LYS244      0.0271
     75  CG        21.7330   49.4270   66.2430 C.3   244  LYS244      0.0035
     76  CD        23.0960   49.0160   66.7800 C.3   244  LYS244      0.0206
     77  CE        23.9400   48.3140   65.7360 C.3   244  LYS244      0.1093
     78  NZ        23.4540   46.9360   65.4470 N.3   244  LYS244     -0.1314
     79  N         20.8440   55.2610   60.8980 N.3   250  TYR250     -0.1241
     80  CA        22.0350   55.8420   61.5270 C.3   250  TYR250      0.1605
     81  C         21.8770   57.2930   61.9930 C.2   250  TYR250      0.2264
     82  O         22.3390   57.6190   63.0910 O.2   250  TYR250     -0.2867
     83  CB        23.2810   55.6580   60.6370 C.3   250  TYR250      0.0534
     84  CG        24.5860   56.0640   61.2920 C.ar  250  TYR250     -0.0201
     85  CD1       24.9880   55.5050   62.5030 C.ar  250  TYR250     -0.0009
     86  CD2       25.4310   56.9910   60.6900 C.ar  250  TYR250     -0.0009
     87  CE1       26.1910   55.8700   63.1050 C.ar  250  TYR250      0.0417
     88  CE2       26.6480   57.3450   61.2700 C.ar  250  TYR250      0.0417
     89  CZ        27.0210   56.7860   62.4810 C.ar  250  TYR250      0.1957
     90  OH        28.2120   57.1460   63.0580 O.3   250  TYR250     -0.2866
     91  N         19.8190   57.1760   65.0280 N.3   253  GLN253     -0.1245
     92  CA        20.6020   56.5510   66.1060 C.3   253  GLN253      0.1566
     93  C         21.4710   57.5830   66.8230 C.2   253  GLN253      0.2260
     94  O         21.6540   57.4900   68.0350 O.2   253  GLN253     -0.2867
     95  CB        21.4910   55.4180   65.5600 C.3   253  GLN253      0.0367
     96  CG        20.7400   54.1300   65.2330 C.3   253  GLN253      0.0905
     97  CD        21.5900   53.1690   64.4420 C.2   253  GLN253      0.2608
     98  OE1       22.7610   52.9190   64.7570 O.2   253  GLN253     -0.2717
     99  NE2       21.0150   52.6050   63.3880 N.am  253  GLN253     -0.0878
    100  N         20.6560   58.9740   70.7620 N.3   257  THR257     -0.1218
    101  CA        21.7550   58.8340   71.7210 C.3   257  THR257      0.1862
    102  C         21.8930   60.1590   72.4950 C.2   257  THR257      0.2287
    103  O         21.8150   60.1670   73.7210 O.2   257  THR257     -0.2866
    104  CB        23.0580   58.5050   70.9870 C.3   257  THR257      0.1770
    105  OG1       22.9080   57.2700   70.3070 O.3   257  THR257     -0.2211
    106  CG2       24.2510   58.4160   71.9250 C.3   257  THR257      0.0375
    107  N         28.3780   69.3050   82.8570 N.3   292  TRP292     -0.1241
    108  CA        28.8430   68.0580   82.2490 C.3   292  TRP292      0.1605
    109  C         28.2910   67.6190   80.8960 C.2   292  TRP292      0.2264
    110  O         29.0960   67.2630   80.0500 O.2   292  TRP292     -0.2867
    111  CB        28.8280   66.8830   83.2280 C.3   292  TRP292      0.0550
    112  CG        29.4820   65.6670   82.6410 C.ar  292  TRP292      0.0003
    113  CD1       28.8690   64.5130   82.2600 C.ar  292  TRP292      0.0946
    114  CD2       30.8630   65.5400   82.2500 C.ar  292  TRP292      0.0152
    115  NE1       29.7840   63.6610   81.6810 N.ar  292  TRP292     -0.2442
    116  CE2       31.0230   64.2560   81.6910 C.ar  292  TRP292      0.0810
    117  CE3       31.9810   66.3880   82.3270 C.ar  292  TRP292      0.0012
    118  CZ2       32.2470   63.8100   81.1770 C.ar  292  TRP292      0.0191
    119  CZ3       33.1970   65.9430   81.8240 C.ar  292  TRP292      0.0001
    120  CH2       33.3250   64.6630   81.2680 C.ar  292  TRP292      0.0015
    121  N         30.2450   66.3320   77.4490 N.3   296  SER296     -0.1217
    122  CA        30.1470   64.9830   76.8950 C.3   296  SER296      0.1889
    123  C         29.3880   64.9610   75.5630 C.2   296  SER296      0.2288
    124  O         29.7070   64.1610   74.6940 O.2   296  SER296     -0.2866
    125  CB        29.5120   64.0320   77.9010 C.3   296  SER296      0.2089
    126  OG        28.1690   64.3980   78.1610 O.3   296  SER296     -0.2183
    127  N         31.7630   66.3160   72.8470 N.3   299  LEU299     -0.1231
    128  CA        32.8050   65.3260   72.4910 C.3   299  LEU299      0.1693
    129  C         32.2570   64.2230   71.6000 C.2   299  LEU299      0.2591
    130  O         32.9410   63.7920   70.6750 O.2   299  LEU299     -0.2718
    131  CB        33.4570   64.6900   73.7290 C.3   299  LEU299      0.0284
    132  CG        34.5070   65.5110   74.4520 C.3   299  LEU299      0.0019
    133  CD1       34.7790   64.9320   75.8200 C.3   299  LEU299      0.0001
    134  CD2       35.7870   65.6070   73.6430 C.3   299  LEU299      0.0001
    135  N         31.0260   63.7510   71.9100 N.am  300  LEU300     -0.1980
    136  CA        30.3370   62.7110   71.1530 C.3   300  LEU300      0.1596
    137  C         29.9090   63.2690   69.7890 C.2   300  LEU300      0.2287
    138  O         30.0750   62.5790   68.7860 O.2   300  LEU300     -0.2864
    139  CB        29.1400   62.1580   71.9600 C.3   300  LEU300      0.0297
    140  CG        28.3280   61.0160   71.3180 C.3   300  LEU300      0.0022
    141  CD1       29.1510   59.7310   71.1890 C.3   300  LEU300      0.0001
    142  CD2       27.0920   60.7390   72.1100 C.3   300  LEU300      0.0001
    143  N         33.0730   63.5560   67.5850 N.3   303  TYR303     -0.1227
    144  CA        33.4650   62.2430   67.0450 C.3   303  TYR303      0.1736
    145  C         32.6520   61.9040   65.7920 C.2   303  TYR303      0.2595
    146  O         33.2270   61.4490   64.8090 O.2   303  TYR303     -0.2718
    147  CB        33.3620   61.1280   68.1220 C.3   303  TYR303      0.0548
    148  CG        33.5220   59.7210   67.5720 C.ar  303  TYR303     -0.0200
    149  CD1       34.7840   59.1800   67.3390 C.ar  303  TYR303     -0.0009
    150  CD2       32.4120   58.9330   67.2840 C.ar  303  TYR303     -0.0009
    151  CE1       34.9340   57.8950   66.8130 C.ar  303  TYR303      0.0417
    152  CE2       32.5490   57.6550   66.7440 C.ar  303  TYR303      0.0417
    153  CZ        33.8110   57.1360   66.5220 C.ar  303  TYR303      0.1957
    154  OH        33.9290   55.8660   66.0130 O.3   303  TYR303     -0.2866
    155  N         31.3150   62.1550   65.8280 N.am  304  TRP304     -0.1976
    156  CA        30.4160   61.8910   64.7040 C.3   304  TRP304      0.1640
    157  C         30.5490   62.8550   63.5420 C.2   304  TRP304      0.2290
    158  O         30.4650   62.4190   62.3890 O.2   304  TRP304     -0.2864
    159  CB        28.9730   61.7430   65.1690 C.3   304  TRP304      0.0576
    160  CG        28.6980   60.4000   65.7730 C.ar  304  TRP304      0.0006
    161  CD1       29.2430   59.2000   65.4020 C.ar  304  TRP304      0.0946
    162  CD2       27.7620   60.1110   66.8190 C.ar  304  TRP304      0.0152
    163  NE1       28.7280   58.1890   66.1760 N.ar  304  TRP304     -0.2442
    164  CE2       27.7900   58.7130   67.0310 C.ar  304  TRP304      0.0810
    165  CE3       26.8570   60.8910   67.5600 C.ar  304  TRP304      0.0012
    166  CZ2       26.9720   58.0850   67.9760 C.ar  304  TRP304      0.0191
    167  CZ3       26.0550   60.2690   68.5010 C.ar  304  TRP304      0.0001
    168  CH2       26.1210   58.8840   68.7080 C.ar  304  TRP304      0.0015
    169  N         33.5320   61.7370   61.7460 N.3   307  LYS307     -0.1245
    170  CA        33.2320   60.4790   61.0600 C.3   307  LYS307      0.1561
    171  C         32.4400   60.7250   59.7800 C.2   307  LYS307      0.2260
    172  O         32.7790   60.1530   58.7440 O.2   307  LYS307     -0.2867
    173  CB        32.4670   59.5300   62.0010 C.3   307  LYS307      0.0271
    174  CG        32.4220   58.0880   61.5190 C.3   307  LYS307      0.0035
    175  CD        31.4550   57.2520   62.3370 C.3   307  LYS307      0.0206
    176  CE        31.0840   55.9790   61.6160 C.3   307  LYS307      0.1093
    177  NZ        30.1010   55.1740   62.3850 N.3   307  LYS307     -0.1314
@<TRIPOS>BOND
     1   172   171    2
     2   171   170    1
     3    83    84    1
     4    83    80    1
     5    86    88   ar
     6    86    84   ar
     7    79    80    1
     8   170   169    1
     9   170   173    1
    10    88    89   ar
    11    84    85   ar
    12   174   173    1
    13   174   175    1
    14    80    81    1
    15   176   175    1
    16   176   177    1
    17    81    82    2
    18   158   157    2
    19    89    90    1
    20    89    87   ar
    21    85    87   ar
    22    99    97   am
    23   157   156    1
    24    97    98    2
    25    97    96    1
    26   156   159    1
    27   156   155    1
    28   146   145    2
    29    91    92    1
    30   159   160    1
    31    96    95    1
    32   161   160   ar
    33   161   163   ar
    34    78    77    1
    35    95    92    1
    36    77    76    1
    37   160   162   ar
    38    73    72    2
    39   145   155   am
    40   145   144    1
    41   154   153    1
    42    92    93    1
    43   163   164   ar
    44    75    76    1
    45    75    74    1
    46   153   152   ar
    47   153   151   ar
    48   152   150   ar
    49   151   149   ar
    50   162   164   ar
    51   162   165   ar
    52    93    94    2
    53    71    72    1
    54    71    74    1
    55    71    70    1
    56   164   166   ar
    57   144   143    1
    58   144   147    1
    59    58    56   ar
    60    58    57   ar
    61   150   148   ar
    62   149   148   ar
    63    56    54   ar
    64   165   167   ar
    65   148   147    1
    66   166   168   ar
    67    57    55   ar
    68   167   168   ar
    69    54    53   ar
    70   138   137    2
    71    55    53   ar
    72    51    50    2
    73    53    52    1
    74   137   136    1
    75   105   104    1
    76    62    61    2
    77    50    49    1
    78    50    59   am
    79   130   129    2
    80   100   101    1
    81    67    65   ar
    82    67    69   ar
    83   104   101    1
    84   104   106    1
    85    49    52    1
    86    49    48    1
    87   136   135    1
    88   136   139    1
    89   141   140    1
    90    65    64   ar
    91   140   139    1
    92   140   142    1
    93    61    60    1
    94    60    59    1
    95    60    63    1
    96    69    68   ar
    97   129   135   am
    98   129   128    1
    99   101   102    1
   100    64    63    1
   101    64    66   ar
   102    68    66   ar
   103   128   127    1
   104   128   131    1
   105   102   103    2
   106   134   132    1
   107   131   132    1
   108    31    30    2
   109    43    42    2
   110   132   133    1
   111   124   123    2
   112    30    29    1
   113    30    40   am
   114    34    36   ar
   115    34    33   ar
   116    47    45    1
   117    42    41    1
   118    32    29    1
   119    32    33    1
   120    36    38   ar
   121   123   122    1
   122    29    28    1
   123    41    40    1
   124    41    44    1
   125    33    35   ar
   126    38    39    1
   127    38    37   ar
   128    35    37   ar
   129    45    44    1
   130    45    46    1
   131   122   121    1
   132   122   125    1
   133   125   126    1
   134    19    18    2
   135    23    22    2
   136    18    17    1
   137    18    20   am
   138    22    21    1
   139    17    16    1
   140   110   109    2
   141    21    20    1
   142    21    24    1
   143   109   108    1
   144   118   120   ar
   145   118   116   ar
   146   120   119   ar
   147    26    24    1
   148    24    25    1
   149   115   116   ar
   150   115   113   ar
   151   116   114   ar
   152   119   117   ar
   153   108   107    1
   154   108   111    1
   155   114   117   ar
   156   114   112   ar
   157   113   112   ar
   158    25    27    1
   159   112   111    1
   160     4     3    2
   161    11    10    2
   162     6     5    1
   163     3     2    1
   164     3     8   am
   165    10     9    1
   166     2     5    1
   167     2     1    1
   168     5     7    1
   169     9     8    1
   170     9    12    1
   171    15    13    1
   172    12    13    1
   173    13    14    1
