@<TRIPOS>MOLECULE
tmp/3zuyA02.pdb
 75 72 0 0 0
SMALL
GASTEIGER

@<TRIPOS>ATOM
      1  N         28.8220   80.8930   73.3040 N.3    11  GLY11      -0.1210
      2  CA        27.9650   79.7570   72.9760 C.3    11  GLY11       0.1956
      3  C         28.7560   78.5010   72.6670 C.2    11  GLY11       0.2612
      4  O         28.4300   77.4190   73.1610 O.2    11  GLY11      -0.2717
      5  N         29.8340   78.6620   71.8880 N.am   12  LYS12      -0.1965
      6  CA        30.7540   77.6000   71.4710 C.3    12  LYS12       0.1728
      7  C         31.7660   77.2010   72.5620 C.2    12  LYS12       0.2617
      8  O         32.5680   76.2910   72.3350 O.2    12  LYS12      -0.2715
      9  CB        31.4770   78.0030   70.1720 C.3    12  LYS12       0.0311
     10  CG        30.5630   78.0320   68.9520 C.3    12  LYS12       0.0038
     11  CD        31.3040   78.4740   67.7000 C.3    12  LYS12       0.0206
     12  CE        30.4010   78.4810   66.4930 C.3    12  LYS12       0.1093
     13  NZ        31.1140   78.9530   65.2780 N.3    12  LYS12      -0.1314
     14  N         31.7400   77.8850   73.7310 N.am   13  THR13      -0.1937
     15  CA        32.6120   77.6340   74.8870 C.3    13  THR13       0.2028
     16  C         31.7900   77.6080   76.1840 C.2    13  THR13       0.2642
     17  O         32.3650   77.7970   77.2680 O.2    13  THR13      -0.2714
     18  CB        33.6770   78.7330   75.0180 C.3    13  THR13       0.1808
     19  OG1       33.0240   79.9890   75.1680 O.3    13  THR13      -0.2208
     20  CG2       34.6740   78.7590   73.8670 C.3    13  THR13       0.0379
     21  N         30.4430   77.3990   76.0760 N.am   14  PHE14      -0.1959
     22  CA        29.5190   77.4000   77.2050 C.3    14  PHE14       0.1771
     23  C         30.0310   76.6770   78.4270 C.2    14  PHE14       0.2620
     24  O         30.1530   77.3030   79.4830 O.2    14  PHE14      -0.2715
     25  CB        28.0990   76.9110   76.8260 C.3    14  PHE14       0.0574
     26  CG        27.2130   76.7080   78.0380 C.ar   14  PHE14      -0.0200
     27  CD1       26.7290   77.7960   78.7580 C.ar   14  PHE14      -0.0042
     28  CD2       26.9270   75.4280   78.5060 C.ar   14  PHE14      -0.0042
     29  CE1       25.9650   77.6090   79.9100 C.ar   14  PHE14      -0.0003
     30  CE2       26.1590   75.2440   79.6640 C.ar   14  PHE14      -0.0003
     31  CZ        25.6770   76.3340   80.3500 C.ar   14  PHE14      -0.0000
     32  N         30.3150   75.3640   78.2920 N.am   15  SER15      -0.1936
     33  CA        30.7770   74.5040   79.3870 C.3    15  SER15       0.2055
     34  C         31.8650   75.1420   80.2110 C.2    15  SER15       0.2642
     35  O         31.8030   75.0590   81.4300 O.2    15  SER15      -0.2714
     36  CB        31.2790   73.1720   78.8560 C.3    15  SER15       0.2130
     37  OG        30.2470   72.4470   78.2140 O.3    15  SER15      -0.2179
     38  N         32.8440   75.7990   79.5460 N.am   16  LEU16      -0.1977
     39  CA        33.9760   76.4690   80.1830 C.3    16  LEU16       0.1596
     40  C         33.5180   77.6460   81.0440 C.2    16  LEU16       0.2287
     41  O         33.9210   77.7430   82.2010 O.2    16  LEU16      -0.2864
     42  CB        35.0160   76.9000   79.1350 C.3    16  LEU16       0.0297
     43  CG        35.5600   75.8050   78.2060 C.3    16  LEU16       0.0022
     44  CD1       36.5880   76.3770   77.2510 C.3    16  LEU16       0.0001
     45  CD2       36.1700   74.6390   79.0000 C.3    16  LEU16       0.0001
     46  N         23.6150   69.8990   69.3710 N.3   116  MET116     -0.1245
     47  CA        24.5410   68.7570   69.3420 C.3   116  MET116      0.1570
     48  C         24.2320   67.7990   68.1950 C.2   116  MET116      0.2261
     49  O         25.1660   67.3720   67.5010 O.2   116  MET116     -0.2867
     50  CB        24.5850   68.0130   70.6820 C.3   116  MET116      0.0387
     51  CG        25.0980   68.8480   71.8280 C.3   116  MET116      0.0595
     52  SD        26.7510   69.5700   71.6300 S.3   116  MET116     -0.1393
     53  CE        26.9030   70.3020   73.2920 C.3   116  MET116      0.0692
     54  N         26.9920   69.1110   78.3830 N.3   294  ASN294     -0.1225
     55  CA        27.4380   69.9360   77.2670 C.3   294  ASN294      0.1785
     56  C         28.8770   69.5220   76.8850 C.2   294  ASN294      0.2597
     57  O         29.1860   69.4940   75.6980 O.2   294  ASN294     -0.2718
     58  CB        27.3700   71.4080   77.6240 C.3   294  ASN294      0.1169
     59  CG        25.9800   71.9390   77.6250 C.2   294  ASN294      0.2627
     60  OD1       25.3040   71.9880   76.5940 O.2   294  ASN294     -0.2716
     61  ND2       25.5150   72.3220   78.7890 N.am  294  ASN294     -0.0877
     62  N         29.7100   69.1140   77.8660 N.am  295  ILE295     -0.1980
     63  CA        31.0880   68.6480   77.5980 C.3   295  ILE295      0.1595
     64  C         31.0440   67.2790   76.9050 C.2   295  ILE295      0.2287
     65  O         31.7370   67.0860   75.9050 O.2   295  ILE295     -0.2864
     66  CB        32.0100   68.6030   78.8640 C.3   295  ILE295      0.0276
     67  CG1       32.2390   69.9970   79.4500 C.3   295  ILE295      0.0022
     68  CG2       33.3790   67.9510   78.5420 C.3   295  ILE295      0.0022
     69  CD1       32.8370   70.0520   80.9500 C.3   295  ILE295      0.0001
     70  N         29.2130   67.5350   73.3730 N.3   298  SER298     -0.1217
     71  CA        30.1070   68.1020   72.3550 C.3   298  SER298      0.1889
     72  C         31.1760   67.1120   71.9100 C.2   298  SER298      0.2288
     73  O         31.4610   67.0680   70.7190 O.2   298  SER298     -0.2866
     74  CB        30.7550   69.3970   72.8330 C.3   298  SER298      0.2089
     75  OG        31.8630   69.1080   73.6630 O.3   298  SER298     -0.2183
@<TRIPOS>BOND
     1    13    12    1
     2    12    11    1
     3    49    48    2
     4    11    10    1
     5    48    47    1
     6    10     9    1
     7    47    46    1
     8    47    50    1
     9     9     6    1
    10    50    51    1
    11    73    72    2
    12     6     5    1
    13     6     7    1
    14    52    51    1
    15    52    53    1
    16     5     3   am
    17    72    71    1
    18     8     7    2
    19    71    74    1
    20    71    70    1
    21     7    14   am
    22     3     2    1
    23     3     4    2
    24    74    75    1
    25     2     1    1
    26    14    15    1
    27    20    18    1
    28    15    18    1
    29    15    16    1
    30    18    19    1
    31    57    56    2
    32    65    64    2
    33    21    16   am
    34    21    22    1
    35    16    17    2
    36    60    59    2
    37    25    22    1
    38    25    26    1
    39    56    55    1
    40    56    62   am
    41    64    63    1
    42    22    23    1
    43    44    43    1
    44    55    58    1
    45    55    54    1
    46    63    62    1
    47    63    66    1
    48    58    59    1
    49    59    61   am
    50    26    28   ar
    51    26    27   ar
    52    43    45    1
    53    43    42    1
    54    37    36    1
    55    32    23   am
    56    32    33    1
    57    23    24    2
    58    28    30   ar
    59    68    66    1
    60    27    29   ar
    61    36    33    1
    62    66    67    1
    63    42    39    1
    64    33    34    1
    65    67    69    1
    66    38    39    1
    67    38    34   am
    68    30    31   ar
    69    29    31   ar
    70    39    40    1
    71    34    35    2
    72    40    41    2
