@<TRIPOS>MOLECULE
tmp/3zuyA00.pdb
 139 130 0 0 0
SMALL
GASTEIGER

@<TRIPOS>ATOM
      1  N         28.8220   80.8930   73.3040 N.3    11  GLY11      -0.1210
      2  CA        27.9650   79.7570   72.9760 C.3    11  GLY11       0.1956
      3  C         28.7560   78.5010   72.6670 C.2    11  GLY11       0.2611
      4  O         28.4300   77.4190   73.1610 O.2    11  GLY11      -0.2717
      5  N         29.8340   78.6620   71.8880 N.am   12  LYS12      -0.1979
      6  CA        30.7540   77.6000   71.4710 C.3    12  LYS12       0.1596
      7  C         31.7660   77.2010   72.5620 C.2    12  LYS12       0.2287
      8  O         32.5680   76.2910   72.3350 O.2    12  LYS12      -0.2864
      9  CB        31.4770   78.0030   70.1720 C.3    12  LYS12       0.0298
     10  CG        30.5630   78.0320   68.9520 C.3    12  LYS12       0.0038
     11  CD        31.3040   78.4740   67.7000 C.3    12  LYS12       0.0206
     12  CE        30.4010   78.4810   66.4930 C.3    12  LYS12       0.1093
     13  NZ        31.1140   78.9530   65.2780 N.3    12  LYS12      -0.1314
     14  N         30.4430   77.3990   76.0760 N.3    14  PHE14      -0.1241
     15  CA        29.5190   77.4000   77.2050 C.3    14  PHE14       0.1605
     16  C         30.0310   76.6770   78.4270 C.2    14  PHE14       0.2264
     17  O         30.1530   77.3030   79.4830 O.2    14  PHE14      -0.2867
     18  CB        28.0990   76.9110   76.8260 C.3    14  PHE14       0.0534
     19  CG        27.2130   76.7080   78.0380 C.ar   14  PHE14      -0.0203
     20  CD1       26.7290   77.7960   78.7580 C.ar   14  PHE14      -0.0042
     21  CD2       26.9270   75.4280   78.5060 C.ar   14  PHE14      -0.0042
     22  CE1       25.9650   77.6090   79.9100 C.ar   14  PHE14      -0.0003
     23  CE2       26.1590   75.2440   79.6640 C.ar   14  PHE14      -0.0003
     24  CZ        25.6770   76.3340   80.3500 C.ar   14  PHE14      -0.0000
     25  N         14.4090   81.1320   79.9500 N.3    46  ILE46      -0.1231
     26  CA        14.9930   80.1110   79.0600 C.3    46  ILE46       0.1692
     27  C         13.8550   79.3690   78.3300 C.2    46  ILE46       0.2591
     28  O         13.9140   79.1900   77.1230 O.2    46  ILE46      -0.2718
     29  CB        15.9700   79.1470   79.8090 C.3    46  ILE46       0.0266
     30  CG1       17.1720   79.9150   80.4200 C.3    46  ILE46       0.0019
     31  CG2       16.4700   78.0330   78.8750 C.3    46  ILE46       0.0020
     32  CD1       18.0410   79.1010   81.4250 C.3    46  ILE46       0.0001
     33  N         12.8030   78.9970   79.0570 N.am   47  MET47      -0.1979
     34  CA        11.6590   78.3120   78.4590 C.3    47  MET47       0.1605
     35  C         10.8550   79.1960   77.5120 C.2    47  MET47       0.2287
     36  O         10.3950   78.7080   76.4780 O.2    47  MET47      -0.2864
     37  CB        10.8150   77.6130   79.5210 C.3    47  MET47       0.0413
     38  CG        11.6150   76.5800   80.3140 C.3    47  MET47       0.0598
     39  SD        12.3190   75.2620   79.3000 S.3    47  MET47      -0.1393
     40  CE        13.9380   75.5240   79.5360 C.3    47  MET47       0.0692
     41  N         17.1210   68.1940   77.1140 N.3   110  GLY110     -0.1210
     42  CA        17.5790   69.5710   77.0470 C.3   110  GLY110      0.1956
     43  C         17.5820   70.0540   75.6160 C.2   110  GLY110      0.2613
     44  O         17.7850   69.2470   74.7030 O.2   110  GLY110     -0.2717
     45  N         17.3710   71.3690   75.4110 N.am  111  THR111     -0.1938
     46  CA        17.3700   71.9940   74.0770 C.3   111  THR111      0.2028
     47  C         18.7180   71.9460   73.3910 C.2   111  THR111      0.2642
     48  O         18.7780   71.9070   72.1600 O.2   111  THR111     -0.2714
     49  CB        16.7460   73.3910   74.0960 C.3   111  THR111      0.1808
     50  OG1       17.0830   74.0500   75.3200 O.3   111  THR111     -0.2208
     51  CG2       15.2370   73.3370   73.9620 C.3   111  THR111      0.0379
     52  N         19.7980   71.8770   74.1650 N.am  112  ALA112     -0.1977
     53  CA        21.1470   71.7800   73.6120 C.3   112  ALA112      0.1597
     54  C         21.3260   70.4870   72.8110 C.2   112  ALA112      0.2287
     55  O         22.2590   70.4120   72.0270 O.2   112  ALA112     -0.2864
     56  CB        22.1870   71.8730   74.7250 C.3   112  ALA112      0.0319
     57  N         21.1880   71.3710   69.0080 N.3   115  VAL115     -0.1231
     58  CA        22.4670   71.9020   68.4770 C.3   115  VAL115      0.1692
     59  C         23.5010   70.7750   68.3480 C.2   115  VAL115      0.2591
     60  O         24.1920   70.7090   67.3360 O.2   115  VAL115     -0.2718
     61  CB        23.0240   73.1000   69.3080 C.3   115  VAL115      0.0266
     62  CG1       24.0980   73.8430   68.5300 C.3   115  VAL115      0.0020
     63  CG2       21.9150   74.0740   69.6950 C.3   115  VAL115      0.0020
     64  N         23.6150   69.8990   69.3710 N.am  116  MET116     -0.1979
     65  CA        24.5410   68.7570   69.3420 C.3   116  MET116      0.1605
     66  C         24.2320   67.7990   68.1950 C.2   116  MET116      0.2287
     67  O         25.1660   67.3720   67.5010 O.2   116  MET116     -0.2864
     68  CB        24.5850   68.0130   70.6820 C.3   116  MET116      0.0413
     69  CG        25.0980   68.8480   71.8280 C.3   116  MET116      0.0598
     70  SD        26.7510   69.5700   71.6300 S.3   116  MET116     -0.1393
     71  CE        26.9030   70.3020   73.2920 C.3   116  MET116      0.0692
     72  N         25.4550   69.2510   64.9650 N.3   119  LEU119     -0.1245
     73  CA        26.9010   69.0780   64.8530 C.3   119  LEU119      0.1561
     74  C         27.2300   67.6090   64.5770 C.2   119  LEU119      0.2260
     75  O         28.1250   67.3350   63.7900 O.2   119  LEU119     -0.2867
     76  CB        27.6090   69.5680   66.1290 C.3   119  LEU119      0.0270
     77  CG        27.4530   71.0680   66.4720 C.3   119  LEU119      0.0019
     78  CD1       27.6470   71.3170   67.9760 C.3   119  LEU119      0.0001
     79  CD2       28.3920   71.9410   65.6260 C.3   119  LEU119      0.0001
     80  N         20.4460   83.6320   72.9070 N.3   195  PRO195     -0.2116
     81  CA        21.6060   82.8120   73.3080 C.3   195  PRO195      0.1372
     82  C         22.3810   83.3900   74.4910 C.2   195  PRO195      0.2244
     83  O         22.6590   82.6530   75.4380 O.2   195  PRO195     -0.2868
     84  CB        22.4580   82.7410   72.0370 C.3   195  PRO195      0.0268
     85  CG        21.4980   82.9610   70.9310 C.3   195  PRO195      0.0207
     86  CD        20.5050   83.9480   71.4630 C.3   195  PRO195      0.0892
     87  N         19.9360   83.4770   77.6990 N.3   198  SER198     -0.1202
     88  CA        19.8030   82.0930   78.1710 C.3   198  SER198      0.2020
     89  C         21.0550   81.6230   78.8830 C.2   198  SER198      0.2618
     90  O         20.9380   80.9790   79.9230 O.2   198  SER198     -0.2717
     91  CB        19.4750   81.1480   77.0210 C.3   198  SER198      0.2103
     92  OG        18.3490   81.6050   76.2940 O.3   198  SER198     -0.2182
     93  N         22.2590   81.9460   78.3330 N.am  199  VAL199     -0.1979
     94  CA        23.5330   81.5830   78.9630 C.3   199  VAL199      0.1595
     95  C         23.6510   82.2980   80.3180 C.2   199  VAL199      0.2287
     96  O         23.9910   81.6490   81.3020 O.2   199  VAL199     -0.2864
     97  CB        24.7580   81.7920   78.0310 C.3   199  VAL199      0.0276
     98  CG1       26.0780   81.8070   78.8120 C.3   199  VAL199      0.0022
     99  CG2       24.8000   80.7210   76.9450 C.3   199  VAL199      0.0022
    100  N         21.1110   80.6240   82.9000 N.3   202  ILE202     -0.1245
    101  CA        21.5900   79.3180   83.3680 C.3   202  ILE202      0.1561
    102  C         22.8400   79.3750   84.2680 C.2   202  ILE202      0.2260
    103  O         22.9240   78.5790   85.2030 O.2   202  ILE202     -0.2867
    104  CB        21.6660   78.2240   82.2620 C.3   202  ILE202      0.0252
    105  CG1       21.7340   76.7990   82.8740 C.3   202  ILE202      0.0019
    106  CG2       22.8360   78.4670   81.2970 C.3   202  ILE202      0.0019
    107  CD1       20.4090   76.2340   83.3770 C.3   202  ILE202      0.0001
    108  N         17.2370   68.4430   80.6200 N.3   264  ASN264     -0.1240
    109  CA        16.8780   69.7910   81.0370 C.3   264  ASN264      0.1653
    110  C         17.2050   69.7850   82.5510 C.2   264  ASN264      0.2266
    111  O         16.3000   69.7000   83.3930 O.2   264  ASN264     -0.2867
    112  CB        15.3850   70.0850   80.8290 C.3   264  ASN264      0.1155
    113  CG        15.0190   71.5500   81.0440 C.2   264  ASN264      0.2627
    114  OD1       15.7110   72.3180   81.7280 O.2   264  ASN264     -0.2716
    115  ND2       13.8840   71.9700   80.5230 N.am  264  ASN264     -0.0877
    116  N         24.1990   70.1320   84.1010 N.3   290  SER290     -0.1217
    117  CA        24.1540   71.2810   83.1860 C.3   290  SER290      0.1889
    118  C         25.5320   71.6470   82.6420 C.2   290  SER290      0.2288
    119  O         25.6380   72.0450   81.4900 O.2   290  SER290     -0.2866
    120  CB        23.5160   72.4880   83.8640 C.3   290  SER290      0.2089
    121  OG        22.1330   72.2590   84.0950 O.3   290  SER290     -0.2183
    122  N         26.9400   67.5450   80.7100 N.3   293  HIS293     -0.1226
    123  CA        26.3550   67.0280   79.4690 C.3   293  HIS293      0.1752
    124  C         26.7110   67.8080   78.2150 C.2   293  HIS293      0.2596
    125  O         26.7110   67.2470   77.1090 O.2   293  HIS293     -0.2718
    126  CB        24.8350   66.7780   79.5970 C.3   293  HIS293      0.0759
    127  CG        23.9470   67.9890   79.5220 C.ar  293  HIS293      0.0818
    128  ND1       22.5760   67.8580   79.3050 N.ar  293  HIS293     -0.2268
    129  CD2       24.2250   69.2990   79.7160 C.ar  293  HIS293      0.1154
    130  CE1       22.0860   69.0860   79.3380 C.ar  293  HIS293      0.1986
    131  NE2       23.0320   69.9830   79.5950 N.ar  293  HIS293     -0.2212
    132  N         26.9920   69.1110   78.3830 N.am  294  ASN294     -0.1974
    133  CA        27.4380   69.9360   77.2670 C.3   294  ASN294      0.1688
    134  C         28.8770   69.5220   76.8850 C.2   294  ASN294      0.2292
    135  O         29.1860   69.4940   75.6980 O.2   294  ASN294     -0.2864
    136  CB        27.3700   71.4080   77.6240 C.3   294  ASN294      0.1181
    137  CG        25.9800   71.9390   77.6250 C.2   294  ASN294      0.2629
    138  OD1       25.3040   71.9880   76.5940 O.2   294  ASN294     -0.2716
    139  ND2       25.5150   72.3220   78.7890 N.am  294  ASN294     -0.0877
@<TRIPOS>BOND
     1    75    74    2
     2    74    73    1
     3    73    72    1
     4    73    76    1
     5    13    12    1
     6    79    77    1
     7    76    77    1
     8    77    78    1
     9    12    11    1
    10    60    59    2
    11    67    66    2
    12    11    10    1
    13    66    65    1
    14    59    58    1
    15    59    64   am
    16    58    57    1
    17    58    61    1
    18    62    61    1
    19    10     9    1
    20    61    63    1
    21    65    64    1
    22    65    68    1
    23     9     6    1
    24    68    69    1
    25    85    86    1
    26    85    84    1
    27    86    80    1
    28     6     5    1
    29     6     7    1
    30    70    69    1
    31    70    71    1
    32     5     3   am
    33    55    54    2
    34    84    81    1
    35    48    47    2
    36     8     7    2
    37     3     2    1
    38     3     4    2
    39    54    53    1
    40    80    81    1
    41     2     1    1
    42    81    82    1
    43    47    46    1
    44    47    52   am
    45    53    52    1
    46    53    56    1
    47    51    49    1
    48    46    49    1
    49    46    45    1
    50    49    50    1
    51    82    83    2
    52    44    43    2
    53    45    43   am
    54    43    42    1
    55   135   134    2
    56    14    15    1
    57    92    91    1
    58    36    35    2
    59   138   137    2
    60    18    15    1
    61    18    19    1
    62   134   133    1
    63    99    97    1
    64    91    88    1
    65    42    41    1
    66   125   124    2
    67    28    27    2
    68    15    16    1
    69   133   136    1
    70   133   132    1
    71    35    34    1
    72   136   137    1
    73   137   139   am
    74    87    88    1
    75    97    98    1
    76    97    94    1
    77    19    21   ar
    78    19    20   ar
    79    88    89    1
    80   124   132   am
    81   124   123    1
    82    27    33   am
    83    27    26    1
    84    93    89   am
    85    93    94    1
    86    16    17    2
    87    34    33    1
    88    34    37    1
    89    21    23   ar
    90    20    22   ar
    91    31    29    1
    92    89    90    2
    93    94    95    1
    94    26    29    1
    95    26    25    1
    96    39    40    1
    97    39    38    1
    98   128   130   ar
    99   128   127   ar
   100   130   131   ar
   101   123   126    1
   102   123   122    1
   103    37    38    1
   104   127   126    1
   105   127   129   ar
   106   131   129   ar
   107    23    24   ar
   108    29    30    1
   109    22    24   ar
   110    95    96    2
   111    30    32    1
   112   115   113   am
   113   108   109    1
   114   112   109    1
   115   112   113    1
   116   109   110    1
   117   113   114    2
   118   106   104    1
   119   119   118    2
   120   104   105    1
   121   104   101    1
   122   110   111    2
   123   118   117    1
   124   105   107    1
   125   100   101    1
   126   117   120    1
   127   117   116    1
   128   101   102    1
   129   120   121    1
   130   102   103    2
