@<TRIPOS>MOLECULE
tmp/3zuyA04.pdb
 96 94 0 0 0
SMALL
GASTEIGER

@<TRIPOS>ATOM
      1  N         16.3140   83.1860   94.8500 N.3    37  PRO37      -0.2116
      2  CA        14.8630   83.4260   94.6740 C.3    37  PRO37       0.1372
      3  C         14.4590   83.7490   93.2290 C.2    37  PRO37       0.2244
      4  O         13.2590   83.7640   92.9190 O.2    37  PRO37      -0.2868
      5  CB        14.5810   84.6220   95.5930 C.3    37  PRO37       0.0268
      6  CG        15.7410   84.6950   96.5230 C.3    37  PRO37       0.0207
      7  CD        16.9120   84.2170   95.7200 C.3    37  PRO37       0.0892
      8  N         13.2780   80.3870   89.5050 N.3    40  PRO40      -0.2102
      9  CA        12.1130   80.1360   88.6390 C.3    40  PRO40       0.1504
     10  C         11.9750   81.1380   87.4980 C.2    40  PRO40       0.2575
     11  O         11.6000   80.7320   86.4010 O.2    40  PRO40      -0.2718
     12  CB        10.9130   80.2100   89.6000 C.3    40  PRO40       0.0282
     13  CG        11.4640   80.0800   90.9310 C.3    40  PRO40       0.0208
     14  CD        12.8520   80.6140   90.9040 C.3    40  PRO40       0.0893
     15  N         12.2780   82.4320   87.7470 N.am   41  TRP41      -0.1977
     16  CA        12.1840   83.4860   86.7310 C.3    41  TRP41       0.1640
     17  C         13.2500   83.2980   85.6650 C.2    41  TRP41       0.2290
     18  O         12.9570   83.4790   84.4840 O.2    41  TRP41      -0.2864
     19  CB        12.2560   84.8900   87.3550 C.3    41  TRP41       0.0576
     20  CG        11.0720   85.2020   88.2250 C.ar   41  TRP41       0.0006
     21  CD1       10.9640   84.9890   89.5690 C.ar   41  TRP41       0.0946
     22  CD2        9.7930   85.6920   87.7920 C.ar   41  TRP41       0.0152
     23  NE1        9.7070   85.3420   90.0060 N.ar   41  TRP41      -0.2442
     24  CE2        8.9690   85.7830   88.9380 C.ar   41  TRP41       0.0810
     25  CE3        9.2650   86.0750   86.5460 C.ar   41  TRP41       0.0012
     26  CZ2        7.6480   86.2370   88.8750 C.ar   41  TRP41       0.0191
     27  CZ3        7.9590   86.5390   86.4880 C.ar   41  TRP41       0.0001
     28  CH2        7.1660   86.6210   87.6410 C.ar   41  TRP41       0.0015
     29  N         12.2620   80.3450   83.6630 N.3    44  GLY44      -0.1210
     30  CA        11.0970   80.8480   82.9390 C.3    44  GLY44       0.1956
     31  C         11.4780   81.6250   81.6800 C.2    44  GLY44       0.2611
     32  O         10.7680   81.5510   80.6700 O.2    44  GLY44      -0.2717
     33  N         12.6180   82.3620   81.7230 N.am   45  ILE45      -0.1979
     34  CA        13.1130   83.1300   80.5720 C.3    45  ILE45       0.1595
     35  C         13.6880   82.1790   79.5080 C.2    45  ILE45       0.2287
     36  O         13.4290   82.3660   78.3140 O.2    45  ILE45      -0.2864
     37  CB        14.0510   84.3200   80.9600 C.3    45  ILE45       0.0276
     38  CG1       13.2960   85.3480   81.8450 C.3    45  ILE45       0.0022
     39  CG2       14.5780   85.0280   79.7140 C.3    45  ILE45       0.0022
     40  CD1       14.1730   86.2050   82.7950 C.3    45  ILE45       0.0001
     41  N         10.7550   80.5110   77.8200 N.3    48  PHE48      -0.1241
     42  CA        10.1040   81.4890   76.9470 C.3    48  PHE48       0.1605
     43  C         10.8700   81.5340   75.6070 C.2    48  PHE48       0.2264
     44  O         10.2450   81.4910   74.5540 O.2    48  PHE48      -0.2867
     45  CB        10.0460   82.8760   77.6170 C.3    48  PHE48       0.0534
     46  CG         9.4690   83.9650   76.7380 C.ar   48  PHE48      -0.0203
     47  CD1        8.1020   84.0260   76.4840 C.ar   48  PHE48      -0.0042
     48  CD2       10.2950   84.9090   76.1400 C.ar   48  PHE48      -0.0042
     49  CE1        7.5720   85.0170   75.6560 C.ar   48  PHE48      -0.0003
     50  CE2        9.7640   85.9010   75.3110 C.ar   48  PHE48      -0.0003
     51  CZ         8.4040   85.9530   75.0830 C.ar   48  PHE48      -0.0000
     52  N          4.1440   76.3910   85.5170 N.3   167  LYS167     -0.1231
     53  CA         4.5240   77.7980   85.6560 C.3   167  LYS167      0.1693
     54  C          5.8530   78.2100   85.0170 C.2   167  LYS167      0.2591
     55  O          5.9360   79.3220   84.5000 O.2   167  LYS167     -0.2718
     56  CB         4.5030   78.2180   87.1430 C.3   167  LYS167      0.0285
     57  CG         3.1010   78.2670   87.7380 C.3   167  LYS167      0.0035
     58  CD         3.0880   78.7520   89.1860 C.3   167  LYS167      0.0206
     59  CE         3.3060   77.6550   90.1990 C.3   167  LYS167      0.1093
     60  NZ         3.3960   78.1970   91.5780 N.3   167  LYS167     -0.1314
     61  N          6.8980   77.3750   85.1190 N.am  168  MET168     -0.1979
     62  CA         8.2590   77.7070   84.6350 C.3   168  MET168      0.1605
     63  C          8.5780   77.1560   83.2680 C.2   168  MET168      0.2287
     64  O          9.5690   77.5670   82.6670 O.2   168  MET168     -0.2864
     65  CB         9.3490   77.1460   85.5780 C.3   168  MET168      0.0413
     66  CG         9.2200   77.5370   87.0390 C.3   168  MET168      0.0598
     67  SD        10.6130   76.8830   88.0040 S.3   168  MET168     -0.1393
     68  CE        10.2370   75.1020   87.9930 C.3   168  MET168      0.0692
     69  N          3.8010   77.4240   80.8380 N.3   171  LEU171     -0.1231
     70  CA         3.3610   78.8170   80.7040 C.3   171  LEU171      0.1678
     71  C          4.3210   79.5790   79.7740 C.2   171  LEU171      0.2434
     72  O          3.8580   80.0510   78.7310 O.2   171  LEU171     -0.2733
     73  CB         3.2060   79.4960   82.1010 C.3   171  LEU171      0.0284
     74  CG         3.1460   81.0460   82.2170 C.3   171  LEU171      0.0019
     75  CD1        1.8620   81.6030   81.6330 C.3   171  LEU171      0.0001
     76  CD2        3.2130   81.4840   83.6780 C.3   171  LEU171      0.0001
     77  N          5.6590   79.6160   80.0390 N.am  172  PRO172     -0.2729
     78  CA         6.5610   80.3340   79.1150 C.3   172  PRO172      0.1401
     79  C          6.6770   79.7710   77.6980 C.2   172  PRO172      0.2269
     80  O          6.7650   80.5770   76.7700 O.2   172  PRO172     -0.2865
     81  CB         7.9010   80.3370   79.8440 C.3   172  PRO172      0.0296
     82  CG         7.5810   80.0130   81.2750 C.3   172  PRO172      0.0237
     83  CD         6.4070   79.1050   81.2090 C.3   172  PRO172      0.0939
     84  N          3.4780   80.7350   75.6270 N.3   175  LEU175     -0.1245
     85  CA         3.5980   82.1860   75.4440 C.3   175  LEU175      0.1561
     86  C          4.5610   82.5190   74.2870 C.2   175  LEU175      0.2260
     87  O          4.1730   83.2400   73.3730 O.2   175  LEU175     -0.2867
     88  CB         4.0910   82.8370   76.7420 C.3   175  LEU175      0.0270
     89  CG         3.0890   83.6500   77.5500 C.3   175  LEU175      0.0019
     90  CD1        1.9220   82.7880   78.0390 C.3   175  LEU175      0.0001
     91  CD2        3.7750   84.3090   78.7430 C.3   175  LEU175      0.0001
     92  N         12.9640   74.7940   94.5870 N.3   274  ALA274     -0.1245
     93  CA        11.5970   75.1160   94.9850 C.3   274  ALA274      0.1562
     94  C         10.9760   74.1130   95.9510 C.2   274  ALA274      0.2260
     95  O         10.2070   74.5230   96.8070 O.2   274  ALA274     -0.2867
     96  CB        10.7120   75.2500   93.7600 C.3   274  ALA274      0.0290
@<TRIPOS>BOND
     1    87    86    2
     2    86    85    1
     3    44    43    2
     4    51    50   ar
     5    51    49   ar
     6    50    48   ar
     7    85    84    1
     8    85    88    1
     9    43    42    1
    10    49    47   ar
    11    48    46   ar
    12    47    46   ar
    13    46    45    1
    14    88    89    1
    15    80    79    2
    16    42    45    1
    17    42    41    1
    18    89    90    1
    19    89    91    1
    20    79    78    1
    21    36    35    2
    22    72    71    2
    23    78    81    1
    24    78    77    1
    25    35    34    1
    26    39    37    1
    27    71    77   am
    28    71    70    1
    29    81    82    1
    30    77    83    1
    31    34    37    1
    32    34    33    1
    33    32    31    2
    34    70    69    1
    35    70    73    1
    36    37    38    1
    37    83    82    1
    38    75    74    1
    39    31    33   am
    40    31    30    1
    41    38    40    1
    42    73    74    1
    43    74    76    1
    44    64    63    2
    45    30    29    1
    46    63    62    1
    47    18    17    2
    48    55    54    2
    49    62    61    1
    50    62    65    1
    51    54    61   am
    52    54    53    1
    53    52    53    1
    54    65    66    1
    55    53    56    1
    56    17    16    1
    57    11    10    2
    58    27    25   ar
    59    27    28   ar
    60    25    22   ar
    61    16    19    1
    62    16    15    1
    63    66    67    1
    64    56    57    1
    65    19    20    1
    66    10    15   am
    67    10     9    1
    68    28    26   ar
    69    57    58    1
    70    22    20   ar
    71    22    24   ar
    72    68    67    1
    73    20    21   ar
    74     9     8    1
    75     9    12    1
    76    26    24   ar
    77    24    23   ar
    78    58    59    1
    79     8    14    1
    80    21    23   ar
    81    12    13    1
    82    59    60    1
    83    14    13    1
    84     4     3    2
    85     3     2    1
    86    96    93    1
    87    92    93    1
    88     2     1    1
    89     2     5    1
    90     1     7    1
    91    93    94    1
    92     5     6    1
    93     7     6    1
    94    94    95    2
