@<TRIPOS>MOLECULE
tmp/3zuyA01.pdb
 73 69 0 0 0
SMALL
GASTEIGER

@<TRIPOS>ATOM
      1  N          5.9950   61.0570   60.8190 N.3    65  HIS65      -0.1241
      2  CA         6.6520   59.8600   61.3490 C.3    65  HIS65       0.1621
      3  C          6.4060   59.7710   62.8650 C.2    65  HIS65       0.2264
      4  O          7.3470   59.8870   63.6550 O.2    65  HIS65      -0.2867
      5  CB         8.1420   59.8490   60.9660 C.3    65  HIS65       0.0745
      6  CG         8.3580   60.1630   59.5190 C.ar   65  HIS65       0.0817
      7  ND1        7.7820   59.3950   58.5230 N.ar   65  HIS65      -0.2268
      8  CD2        9.0080   61.2020   58.9480 C.ar   65  HIS65       0.1154
      9  CE1        8.1270   59.9690   57.3810 C.ar   65  HIS65       0.1986
     10  NE2        8.8670   61.0580   57.5870 N.ar   65  HIS65      -0.2212
     11  N          5.8070   57.2540   64.8940 N.3    67  LYS67      -0.1231
     12  CA         6.4650   56.1430   65.5900 C.3    67  LYS67       0.1693
     13  C          7.8940   56.4990   65.9630 C.2    67  LYS67       0.2591
     14  O          8.3460   56.1450   67.0500 O.2    67  LYS67      -0.2718
     15  CB         6.4170   54.8500   64.7670 C.3    67  LYS67       0.0285
     16  CG         5.1790   54.0110   65.0540 C.3    67  LYS67       0.0035
     17  CD         5.2250   52.6830   64.3180 C.3    67  LYS67       0.0206
     18  CE         4.1370   51.7510   64.7870 C.3    67  LYS67       0.1093
     19  NZ         4.2370   50.4180   64.1360 N.3    67  LYS67      -0.1314
     20  N          8.5860   57.2370   65.0810 N.am   68  VAL68      -0.1980
     21  CA         9.9690   57.6640   65.3210 C.3    68  VAL68       0.1595
     22  C         10.0430   58.6530   66.5040 C.2    68  VAL68       0.2287
     23  O         10.9040   58.4900   67.3810 O.2    68  VAL68      -0.2864
     24  CB        10.6490   58.1850   64.0340 C.3    68  VAL68       0.0276
     25  CG1       12.1380   58.4430   64.2590 C.3    68  VAL68       0.0022
     26  CG2       10.4680   57.1880   62.9040 C.3    68  VAL68       0.0022
     27  N          9.1810   56.7450   69.8410 N.3    71  ILE71      -0.1245
     28  CA        10.3230   55.9360   70.2940 C.3    71  ILE71       0.1561
     29  C         11.2970   56.8160   71.0960 C.2    71  ILE71       0.2260
     30  O         11.7500   56.3910   72.1550 O.2    71  ILE71      -0.2867
     31  CB        11.0220   55.1910   69.1080 C.3    71  ILE71       0.0252
     32  CG1       10.1890   53.9740   68.6570 C.3    71  ILE71       0.0019
     33  CG2       12.4780   54.7690   69.4660 C.3    71  ILE71       0.0019
     34  CD1       10.4970   53.4650   67.2370 C.3    71  ILE71       0.0001
     35  N         19.5780   63.7410   62.5770 N.3   123  ASN123     -0.1240
     36  CA        18.2800   64.2330   62.1460 C.3   123  ASN123      0.1653
     37  C         17.8840   65.3620   63.1190 C.2   123  ASN123      0.2266
     38  O         17.5190   65.0990   64.2650 O.2   123  ASN123     -0.2867
     39  CB        17.2870   63.0730   62.1630 C.3   123  ASN123      0.1155
     40  CG        15.9440   63.3590   61.5460 C.2   123  ASN123      0.2627
     41  OD1       15.4040   64.4690   61.6270 O.2   123  ASN123     -0.2716
     42  ND2       15.3430   62.3280   60.9730 N.am  123  ASN123     -0.0877
     43  N         15.3860   49.1420   67.5980 N.3   246  THR246     -0.1203
     44  CA        14.0570   49.4630   67.0540 C.3   246  THR246      0.1994
     45  C         14.1270   49.5760   65.5160 C.2   246  THR246      0.2618
     46  O         13.1150   49.8540   64.8690 O.2   246  THR246     -0.2717
     47  CB        13.4710   50.7350   67.6870 C.3   246  THR246      0.1784
     48  OG1       14.4160   51.7980   67.5740 O.3   246  THR246     -0.2211
     49  CG2       13.0370   50.5340   69.1340 C.3   246  THR246      0.0376
     50  N         15.3180   49.3610   64.9600 N.am  247  GLY247     -0.1942
     51  CA        15.5670   49.3840   63.5240 C.3   247  GLY247      0.2014
     52  C         15.6840   50.7570   62.8940 C.2   247  GLY247      0.2639
     53  O         15.5910   50.8710   61.6720 O.2   247  GLY247     -0.2714
     54  N         15.9140   51.8050   63.7060 N.am  248  LEU248     -0.1963
     55  CA        16.0390   53.1750   63.2010 C.3   248  LEU248      0.1713
     56  C         17.3210   53.4340   62.3980 C.2   248  LEU248      0.2458
     57  O         18.3490   52.8170   62.6860 O.2   248  LEU248     -0.2730
     58  CB        15.9000   54.2090   64.3290 C.3   248  LEU248      0.0310
     59  CG        14.5450   54.3310   65.0080 C.3   248  LEU248      0.0022
     60  CD1       14.5850   55.4330   66.0150 C.3   248  LEU248      0.0001
     61  CD2       13.4150   54.5970   63.9940 C.3   248  LEU248      0.0001
     62  N         17.2830   54.3520   61.3960 N.am  249  PRO249     -0.2727
     63  CA        18.4970   54.6290   60.6030 C.3   249  PRO249      0.1402
     64  C         19.5950   55.3220   61.4000 C.2   249  PRO249      0.2269
     65  O         19.3140   55.9110   62.4380 O.2   249  PRO249     -0.2865
     66  CB        17.9840   55.5190   59.4690 C.3   249  PRO249      0.0296
     67  CG        16.7670   56.1680   60.0210 C.3   249  PRO249      0.0237
     68  CD        16.1340   55.1510   60.9140 C.3   249  PRO249      0.0939
     69  N         19.0510   58.7920   62.8780 N.3   252  ALA252     -0.1245
     70  CA        18.1490   58.7170   64.0270 C.3   252  ALA252      0.1562
     71  C         18.8680   58.1110   65.2520 C.2   252  ALA252      0.2260
     72  O         18.5890   58.5180   66.3760 O.2   252  ALA252     -0.2867
     73  CB        16.9090   57.9100   63.6760 C.3   252  ALA252      0.0290
@<TRIPOS>BOND
     1     9    10   ar
     2     9     7   ar
     3    10     8   ar
     4     7     6   ar
     5     8     6   ar
     6    66    67    1
     7    66    63    1
     8     6     5    1
     9    67    68    1
    10    63    62    1
    11    63    64    1
    12     1     2    1
    13    68    62    1
    14     5     2    1
    15    42    40   am
    16     2     3    1
    17    62    56   am
    18    64    65    2
    19    40    41    2
    20    40    39    1
    21    53    52    2
    22    36    39    1
    23    36    35    1
    24    36    37    1
    25    56    57    2
    26    56    55    1
    27     3     4    2
    28    69    70    1
    29    52    51    1
    30    52    54   am
    31    26    24    1
    32    37    38    2
    33    55    54    1
    34    55    58    1
    35    51    50    1
    36    73    70    1
    37    61    59    1
    38    70    71    1
    39    24    25    1
    40    24    21    1
    41    19    18    1
    42    17    18    1
    43    17    16    1
    44    58    59    1
    45    15    16    1
    46    15    12    1
    47    46    45    2
    48    11    12    1
    49    50    45   am
    50    59    60    1
    51    20    21    1
    52    20    13   am
    53    71    72    2
    54    21    22    1
    55    45    44    1
    56    12    13    1
    57    13    14    2
    58    22    23    2
    59    44    43    1
    60    44    47    1
    61    34    32    1
    62    48    47    1
    63    47    49    1
    64    32    31    1
    65    31    33    1
    66    31    28    1
    67    27    28    1
    68    28    29    1
    69    29    30    2
