@<TRIPOS>MOLECULE
tmp/3zv5A01.pdb
 136 128 0 0 0
SMALL
GASTEIGER

@<TRIPOS>ATOM
      1  N          6.2640  -24.9210   -2.1430 N.3    90  TRP90      -0.1241
      2  CA         5.0310  -24.6180   -1.4100 C.3    90  TRP90       0.1605
      3  C          4.9880  -25.2530   -0.0030 C.2    90  TRP90       0.2264
      4  O          5.7740  -26.1650    0.3030 O.2    90  TRP90      -0.2867
      5  CB         3.8360  -25.0530   -2.2670 C.3    90  TRP90       0.0550
      6  CG         2.5770  -24.3610   -1.9400 C.ar   90  TRP90       0.0003
      7  CD1        2.4310  -23.0740   -1.4760 C.ar   90  TRP90       0.0946
      8  CD2        1.2510  -24.8970   -2.0610 C.ar   90  TRP90       0.0152
      9  NE1        1.1060  -22.7960   -1.2970 N.ar   90  TRP90      -0.2442
     10  CE2        0.3600  -23.9000   -1.6350 C.ar   90  TRP90       0.0810
     11  CE3        0.7320  -26.1230   -2.5040 C.ar   90  TRP90       0.0012
     12  CZ2       -1.0330  -24.0970   -1.6140 C.ar   90  TRP90       0.0191
     13  CZ3       -0.6490  -26.3120   -2.4750 C.ar   90  TRP90       0.0001
     14  CH2       -1.5110  -25.2940   -2.0410 C.ar   90  TRP90       0.0015
     15  N         -0.2670  -25.0280    2.4190 N.3    93  SER93      -0.1217
     16  CA        -1.1240  -24.3170    3.3300 C.3    93  SER93       0.1889
     17  C         -1.1830  -25.0210    4.6930 C.2    93  SER93       0.2288
     18  O         -2.1790  -24.8980    5.4120 O.2    93  SER93      -0.2866
     19  CB        -2.5320  -24.0770    2.7090 C.3    93  SER93       0.2089
     20  OG        -2.7130  -22.7250    2.2290 O.3    93  SER93      -0.2183
     21  N          3.1400  -14.1030   -5.9560 N.3   142  SER142     -0.1202
     22  CA         1.9800  -14.9800   -5.7870 C.3   142  SER142      0.2020
     23  C          0.9730  -14.0710   -5.1300 C.2   142  SER142      0.2618
     24  O          1.3270  -13.0570   -4.5950 O.2   142  SER142     -0.2717
     25  CB         2.3040  -16.1580   -4.8590 C.3   142  SER142      0.2103
     26  OG         1.1410  -16.7600   -4.3210 O.3   142  SER142     -0.2182
     27  N         -0.2890  -14.4380   -5.2090 N.am  143  ASN143     -0.1974
     28  CA        -1.3230  -13.8950   -4.3560 C.3   143  ASN143      0.1688
     29  C         -1.0210  -14.0930   -2.8510 C.2   143  ASN143      0.2292
     30  O         -1.4640  -13.3120   -2.0100 O.2   143  ASN143     -0.2864
     31  CB        -2.6620  -14.5350   -4.7540 C.3   143  ASN143      0.1181
     32  CG        -2.6480  -16.0790   -4.6590 C.2   143  ASN143      0.2629
     33  OD1       -3.1620  -16.6510   -3.6900 O.2   143  ASN143     -0.2716
     34  ND2       -2.0890  -16.7490   -5.6650 N.am  143  ASN143     -0.0877
     35  N         -4.6150  -17.2210    3.1130 N.3   149  ASN149     -0.1225
     36  CA        -5.2230  -18.3970    2.5040 C.3   149  ASN149      0.1785
     37  C         -4.6110  -18.9450    1.1770 C.2   149  ASN149      0.2597
     38  O         -5.1760  -19.8530    0.5420 O.2   149  ASN149     -0.2718
     39  CB        -6.7580  -18.2970    2.4770 C.3   149  ASN149      0.1169
     40  CG        -7.4220  -19.6820    2.4100 C.2   149  ASN149      0.2627
     41  OD1       -6.8350  -20.6780    2.8570 O.2   149  ASN149     -0.2716
     42  ND2       -8.6090  -19.7640    1.8130 N.am  149  ASN149     -0.0877
     43  N         -3.4610  -18.4250    0.7610 N.am  150  GLY150     -0.1957
     44  CA        -2.7800  -19.0370   -0.3820 C.3   150  GLY150      0.1869
     45  C         -1.5730  -19.9170   -0.0460 C.2   150  GLY150      0.2309
     46  O         -0.8140  -20.2380   -0.9250 O.2   150  GLY150     -0.2863
     47  N          4.9680  -20.1350    3.7750 N.3   155  TYR155     -0.1241
     48  CA         4.8850  -19.6850    2.4190 C.3   155  TYR155      0.1605
     49  C          4.3910  -18.2280    2.2600 C.2   155  TYR155      0.2264
     50  O          4.9630  -17.4860    1.4490 O.2   155  TYR155     -0.2867
     51  CB         4.0440  -20.6380    1.6320 C.3   155  TYR155      0.0534
     52  CG         4.0100  -20.3820    0.1450 C.ar  155  TYR155     -0.0201
     53  CD1        4.9790  -20.9370   -0.7200 C.ar  155  TYR155     -0.0009
     54  CD2        2.9820  -19.6190   -0.4260 C.ar  155  TYR155     -0.0009
     55  CE1        4.9050  -20.7530   -2.0910 C.ar  155  TYR155      0.0417
     56  CE2        2.9310  -19.3990   -1.7920 C.ar  155  TYR155      0.0417
     57  CZ         3.8650  -19.9820   -2.6180 C.ar  155  TYR155      0.1957
     58  OH         3.7590  -19.7940   -3.9970 O.3   155  TYR155     -0.2866
     59  N          1.2930  -14.0140   -9.6750 N.3   184  PRO184     -0.2102
     60  CA         0.3310  -14.9290  -10.3270 C.3   184  PRO184      0.1504
     61  C         -0.5830  -15.5820   -9.3030 C.2   184  PRO184      0.2576
     62  O         -0.2420  -15.6280   -8.1310 O.2   184  PRO184     -0.2718
     63  CB         1.2220  -16.0120  -10.9920 C.3   184  PRO184      0.0282
     64  CG         2.6150  -15.5970  -10.7950 C.3   184  PRO184      0.0208
     65  CD         2.6650  -14.5660   -9.7040 C.3   184  PRO184      0.0893
     66  N         -1.7520  -16.0310   -9.7460 N.am  185  GLY185     -0.1943
     67  CA        -2.6590  -16.7970   -8.9230 C.3   185  GLY185      0.2014
     68  C         -2.3820  -18.2640   -9.1770 C.2   185  GLY185      0.2639
     69  O         -1.3210  -18.6150   -9.6820 O.2   185  GLY185     -0.2714
     70  N         -3.3440  -19.1220   -8.8440 N.am  186  GLY186     -0.1939
     71  CA        -3.1480  -20.5660   -8.8740 C.3   186  GLY186      0.2014
     72  C         -2.8150  -21.0210  -10.2780 C.2   186  GLY186      0.2638
     73  O         -3.3510  -20.4800  -11.2710 O.2   186  GLY186     -0.2714
     74  N         -1.9260  -22.0180  -10.3550 N.am  187  MET187     -0.1976
     75  CA        -1.3660  -22.4590  -11.6220 C.3   187  MET187      0.1605
     76  C         -1.2760  -23.9530  -11.5740 C.2   187  MET187      0.2287
     77  O         -1.0720  -24.5390  -10.5110 O.2   187  MET187     -0.2864
     78  CB         0.0280  -21.8600  -11.8670 C.3   187  MET187      0.0413
     79  CG         0.0330  -20.3870  -12.3150 C.3   187  MET187      0.0598
     80  SD         1.6430  -19.6570  -12.6980 S.3   187  MET187     -0.1393
     81  CE         2.3120  -19.6360  -11.0450 C.3   187  MET187      0.0692
     82  N          4.6990  -27.6670   -8.7620 N.3   191  LEU191     -0.1245
     83  CA         5.0240  -27.1520   -7.4260 C.3   191  LEU191      0.1561
     84  C          5.0030  -28.1880   -6.2970 C.2   191  LEU191      0.2260
     85  O          3.9840  -28.8650   -6.0660 O.2   191  LEU191     -0.2867
     86  CB         4.1060  -25.9780   -7.0720 C.3   191  LEU191      0.0270
     87  CG         4.6370  -25.0760   -5.9600 C.3   191  LEU191      0.0019
     88  CD1        6.0200  -24.5070   -6.2590 C.3   191  LEU191      0.0001
     89  CD2        3.6720  -23.9630   -5.7620 C.3   191  LEU191      0.0001
     90  N          1.3080  -29.9860   -7.1550 N.3   204  ILE204     -0.1245
     91  CA         0.0820  -29.1770   -7.1070 C.3   204  ILE204      0.1561
     92  C         -0.8930  -29.5050   -8.2340 C.2   204  ILE204      0.2260
     93  O         -2.1020  -29.2450   -8.1040 O.2   204  ILE204     -0.2867
     94  CB         0.3310  -27.6370   -6.9720 C.3   204  ILE204      0.0252
     95  CG1       -0.9420  -26.9610   -6.4080 C.3   204  ILE204      0.0019
     96  CG2        0.8230  -27.0510   -8.2920 C.3   204  ILE204      0.0019
     97  CD1       -0.7880  -25.5160   -5.9910 C.3   204  ILE204      0.0001
     98  N         -3.7250  -31.4000   -7.0300 N.3   207  VAL207     -0.1245
     99  CA        -4.7200  -30.6740   -6.2520 C.3   207  VAL207      0.1561
    100  C         -5.7910  -30.1220   -7.2260 C.2   207  VAL207      0.2260
    101  O         -5.4350  -29.6150   -8.3080 O.2   207  VAL207     -0.2867
    102  CB        -4.0100  -29.5500   -5.4200 C.3   207  VAL207      0.0252
    103  CG1       -4.9960  -28.5510   -4.8300 C.3   207  VAL207      0.0019
    104  CG2       -3.1380  -30.1720   -4.3180 C.3   207  VAL207      0.0019
    105  N         -7.2120  -27.6460   -8.1620 N.3   209  LEU209     -0.1245
    106  CA        -7.0760  -26.2150   -8.2980 C.3   209  LEU209      0.1561
    107  C         -8.0910  -25.5900   -9.2790 C.2   209  LEU209      0.2260
    108  O         -8.7460  -24.5760   -8.9570 O.2   209  LEU209     -0.2867
    109  CB        -5.6520  -25.9230   -8.7390 C.3   209  LEU209      0.0270
    110  CG        -4.9680  -24.7420   -8.0740 C.3   209  LEU209      0.0019
    111  CD1       -5.3230  -24.6360   -6.5920 C.3   209  LEU209      0.0001
    112  CD2       -3.4620  -24.8920   -8.2790 C.3   209  LEU209      0.0001
    113  N        -11.6550  -25.7760   -7.5020 N.3   212  MET212     -0.1230
    114  CA       -11.6770  -24.7360   -6.4600 C.3   212  MET212      0.1702
    115  C        -11.7450  -23.3060   -7.0080 C.2   212  MET212      0.2592
    116  O        -12.5940  -22.5230   -6.5920 O.2   212  MET212     -0.2718
    117  CB       -10.4240  -24.8370   -5.5750 C.3   212  MET212      0.0401
    118  CG       -10.3990  -25.8890   -4.4570 C.3   212  MET212      0.0596
    119  SD        -8.8820  -25.7210   -3.4430 S.3   212  MET212     -0.1393
    120  CE        -8.9170  -23.9440   -3.0880 C.3   212  MET212      0.0692
    121  N        -10.8150  -22.9690   -7.9040 N.am  213  LEU213     -0.1980
    122  CA       -10.6680  -21.6060   -8.4700 C.3   213  LEU213      0.1596
    123  C        -11.8000  -21.0910   -9.3900 C.2   213  LEU213      0.2287
    124  O        -11.9140  -19.8860   -9.6380 O.2   213  LEU213     -0.2864
    125  CB        -9.2980  -21.4650   -9.1640 C.3   213  LEU213      0.0297
    126  CG        -8.1510  -20.7220   -8.4330 C.3   213  LEU213      0.0022
    127  CD1       -8.1990  -20.8200   -6.9210 C.3   213  LEU213      0.0001
    128  CD2       -6.8260  -21.2150   -8.9460 C.3   213  LEU213      0.0001
    129  N         -8.3470  -12.0950   -7.2400 N.3   255  MET255     -0.1245
    130  CA        -8.5270  -12.5100   -5.8330 C.3   255  MET255      0.1570
    131  C         -8.7320  -11.3650   -4.8500 C.2   255  MET255      0.2261
    132  O         -9.5170  -11.5080   -3.9210 O.2   255  MET255     -0.2867
    133  CB        -7.3290  -13.3490   -5.3360 C.3   255  MET255      0.0387
    134  CG        -7.0220  -14.5750   -6.1760 C.3   255  MET255      0.0595
    135  SD        -5.7670  -15.6840   -5.4840 S.3   255  MET255     -0.1393
    136  CE        -6.7260  -17.1490   -5.1090 C.3   255  MET255      0.0692
@<TRIPOS>BOND
     1    80    79    1
     2    80    81    1
     3    79    78    1
     4    78    75    1
     5    75    76    1
     6    75    74    1
     7    76    77    2
     8    73    72    2
     9    63    64    1
    10    63    60    1
    11    64    65    1
    12    74    72   am
    13    60    59    1
    14    60    61    1
    15    72    71    1
    16    66    61   am
    17    66    67    1
    18    65    59    1
    19    69    68    2
    20   124   123    2
    21   123   122    1
    22    61    62    2
    23   107   108    2
    24   107   106    1
    25    68    67    1
    26    68    70   am
    27   125   122    1
    28   125   126    1
    29   128   126    1
    30    71    70    1
    31    82    83    1
    32   109   106    1
    33   109   110    1
    34   122   121    1
    35   126   127    1
    36   101   100    2
    37   106   105    1
    38    96    94    1
    39   112   110    1
    40    92    93    2
    41    92    91    1
    42   110   111    1
    43   121   115   am
    44   113   114    1
    45    83    86    1
    46    83    84    1
    47   129   130    1
    48   100    99    1
    49    90    91    1
    50    91    94    1
    51    86    87    1
    52    98    99    1
    53   115   116    2
    54   115   114    1
    55    94    95    1
    56   114   117    1
    57    95    97    1
    58    84    85    2
    59    88    87    1
    60    99   102    1
    61   134   135    1
    62   134   133    1
    63    87    89    1
    64    21    22    1
    65   130   133    1
    66   130   131    1
    67    22    23    1
    68    22    25    1
    69    34    32   am
    70   117   118    1
    71   135   136    1
    72   102   103    1
    73   102   104    1
    74    27    23   am
    75    27    28    1
    76    23    24    2
    77    25    26    1
    78   131   132    2
    79    31    32    1
    80    31    28    1
    81    32    33    2
    82   118   119    1
    83    28    29    1
    84    58    57    1
    85   119   120    1
    86    29    30    2
    87    57    55   ar
    88    57    56   ar
    89    11    13   ar
    90    11     8   ar
    91    13    14   ar
    92     5     6    1
    93     5     2    1
    94     1     2    1
    95    55    53   ar
    96     8     6   ar
    97     8    10   ar
    98    14    12   ar
    99     6     7   ar
   100    56    54   ar
   101    10    12   ar
   102    10     9   ar
   103     7     9   ar
   104     2     3    1
   105    46    45    2
   106    53    52   ar
   107    54    52   ar
   108    44    45    1
   109    44    43    1
   110     3     4    2
   111    52    51    1
   112    38    37    2
   113    43    37   am
   114    37    36    1
   115    50    49    2
   116    51    48    1
   117    42    40   am
   118    20    19    1
   119    49    48    1
   120    40    39    1
   121    40    41    2
   122    15    16    1
   123    48    47    1
   124    39    36    1
   125    36    35    1
   126    19    16    1
   127    16    17    1
   128    17    18    2
