@<TRIPOS>MOLECULE
tmp/3zv6A01.pdb
 124 115 0 0 0
SMALL
GASTEIGER

@<TRIPOS>ATOM
      1  N         23.5650    7.2290   41.7390 N.3    90  TRP90      -0.1241
      2  CA        23.3380    6.0740   42.5850 C.3    90  TRP90       0.1605
      3  C         24.0460    6.1890   43.9280 C.2    90  TRP90       0.2264
      4  O         24.9070    7.0440   44.1140 O.2    90  TRP90      -0.2867
      5  CB        23.8570    4.8330   41.8550 C.3    90  TRP90       0.0550
      6  CG        23.1880    3.5610   42.2660 C.ar   90  TRP90       0.0003
      7  CD1       21.9460    3.4220   42.8190 C.ar   90  TRP90       0.0946
      8  CD2       23.7240    2.2460   42.1510 C.ar   90  TRP90       0.0152
      9  NE1       21.6850    2.1010   43.0710 N.ar   90  TRP90      -0.2442
     10  CE2       22.7600    1.3560   42.6540 C.ar   90  TRP90       0.0810
     11  CE3       24.9170    1.7320   41.6530 C.ar   90  TRP90       0.0012
     12  CZ2       22.9610   -0.0160   42.6770 C.ar   90  TRP90       0.0191
     13  CZ3       25.1170    0.3760   41.6800 C.ar   90  TRP90       0.0001
     14  CH2       24.1480   -0.4850   42.1790 C.ar   90  TRP90       0.0015
     15  N         24.0680    0.9310   46.3940 N.3    93  SER93      -0.1217
     16  CA        23.4260    0.0600   47.3680 C.3    93  SER93       0.1889
     17  C         24.1380    0.0330   48.7150 C.2    93  SER93       0.2288
     18  O         24.1270   -0.9890   49.4000 O.2    93  SER93      -0.2866
     19  CB        23.1950   -1.3590   46.7920 C.3    93  SER93       0.2089
     20  OG        21.8810   -1.4720   46.2680 O.3    93  SER93      -0.2183
     21  N         12.8670    4.2080   38.5620 N.3   142  SER142     -0.1202
     22  CA        13.7480    3.0670   38.7640 C.3   142  SER142      0.2020
     23  C         12.9330    1.9880   39.5130 C.2   142  SER142      0.2618
     24  O         11.9620    2.3080   40.1950 O.2   142  SER142     -0.2717
     25  CB        14.9600    3.4590   39.6270 C.3   142  SER142      0.2103
     26  OG        15.6110    2.2900   40.1430 O.3   142  SER142     -0.2182
     27  N         13.3420    0.7270   39.4230 N.am  143  ASN143     -0.1974
     28  CA        12.7990   -0.2920   40.3120 C.3   143  ASN143      0.1688
     29  C         12.9800   -0.0040   41.8080 C.2   143  ASN143      0.2292
     30  O         12.2820   -0.5850   42.6250 O.2   143  ASN143     -0.2864
     31  CB        13.4090   -1.6490   39.9820 C.3   143  ASN143      0.1181
     32  CG        14.9320   -1.6200   39.9710 C.2   143  ASN143      0.2629
     33  OD1       15.5750   -2.0440   40.9290 O.2   143  ASN143     -0.2716
     34  ND2       15.4980   -1.2060   38.8610 N.am  143  ASN143     -0.0877
     35  N         16.5540   -3.0380   47.5840 N.3   149  ASN149     -0.1225
     36  CA        17.7350   -3.7520   47.1290 C.3   149  ASN149      0.1785
     37  C         18.0890   -3.3240   45.7170 C.2   149  ASN149      0.2597
     38  O         18.9030   -3.9540   45.0750 O.2   149  ASN149     -0.2718
     39  CB        17.5460   -5.2850   47.2400 C.3   149  ASN149      0.1169
     40  CG        18.8740   -6.0480   47.2870 C.2   149  ASN149      0.2627
     41  OD1       19.9040   -5.5370   47.7310 O.2   149  ASN149     -0.2716
     42  ND2       18.8410   -7.2680   46.8410 N.am  149  ASN149     -0.0877
     43  N         17.5000   -2.2240   45.2430 N.am  150  GLY150     -0.1957
     44  CA        17.9760   -1.5890   44.0050 C.3   150  GLY150      0.1869
     45  C         18.8570   -0.4060   44.3170 C.2   150  GLY150      0.2309
     46  O         19.3800    0.2530   43.4240 O.2   150  GLY150     -0.2863
     47  N         19.1320    6.2030   47.9220 N.3   155  TYR155     -0.1241
     48  CA        18.6910    6.0800   46.5550 C.3   155  TYR155      0.1605
     49  C         17.2660    5.5690   46.5040 C.2   155  TYR155      0.2264
     50  O         16.4410    6.0570   45.7180 O.2   155  TYR155     -0.2867
     51  CB        19.6070    5.1320   45.7820 C.3   155  TYR155      0.0534
     52  CG        19.3050    5.0340   44.3180 C.ar  155  TYR155     -0.0201
     53  CD1       19.7010    6.0430   43.4410 C.ar  155  TYR155     -0.0009
     54  CD2       18.6360    3.9370   43.7960 C.ar  155  TYR155     -0.0009
     55  CE1       19.4480    5.9550   42.0760 C.ar  155  TYR155      0.0417
     56  CE2       18.3630    3.8400   42.4270 C.ar  155  TYR155      0.0417
     57  CZ        18.7770    4.8620   41.5730 C.ar  155  TYR155      0.1957
     58  OH        18.5490    4.7640   40.2050 O.3   155  TYR155     -0.2866
     59  N         12.5180    1.9710   34.8290 N.3   184  PRO184     -0.2116
     60  CA        13.3530    0.9410   34.2430 C.3   184  PRO184      0.1372
     61  C         14.1390    0.1740   35.3130 C.2   184  PRO184      0.2244
     62  O         14.3320    0.6930   36.4260 O.2   184  PRO184     -0.2868
     63  CB        14.3000    1.7310   33.3480 C.3   184  PRO184      0.0268
     64  CG        14.3110    3.0780   33.8630 C.3   184  PRO184      0.0207
     65  CD        13.0520    3.3240   34.5950 C.3   184  PRO184      0.0892
     66  N         17.7040   -1.9050   35.5860 N.3   186  GLY186     -0.1225
     67  CA        19.0110   -2.4840   35.2450 C.3   186  GLY186      0.1811
     68  C         19.4480   -2.0510   33.8560 C.2   186  GLY186      0.2280
     69  O         18.9160   -2.5370   32.8440 O.2   186  GLY186     -0.2866
     70  N         26.4200    5.4300   35.2040 N.3   191  LEU191     -0.1245
     71  CA        25.8300    5.9830   36.4400 C.3   191  LEU191      0.1561
     72  C         26.8260    6.1100   37.6110 C.2   191  LEU191      0.2260
     73  O         27.5610    5.1720   37.9410 O.2   191  LEU191     -0.2867
     74  CB        24.5960    5.1530   36.8500 C.3   191  LEU191      0.0270
     75  CG        23.7320    5.6530   38.0210 C.3   191  LEU191      0.0019
     76  CD1       22.9600    6.9280   37.6660 C.3   191  LEU191      0.0001
     77  CD2       22.7690    4.5180   38.4600 C.3   191  LEU191      0.0001
     78  N         28.5270    2.5400   36.7150 N.3   204  ILE204     -0.1245
     79  CA        27.7740    1.2960   36.8710 C.3   204  ILE204      0.1561
     80  C         28.1530    0.2370   35.8130 C.2   204  ILE204      0.2260
     81  O         28.0580   -0.9590   36.0700 O.2   204  ILE204     -0.2867
     82  CB        26.2300    1.5760   36.8990 C.3   204  ILE204      0.0252
     83  CG1       25.4920    0.4400   37.6350 C.3   204  ILE204      0.0019
     84  CG2       25.6880    1.8080   35.4840 C.3   204  ILE204      0.0019
     85  CD1       24.0670    0.8010   38.0740 C.3   204  ILE204      0.0001
     86  N         26.3160   -5.8620   36.5400 N.3   209  LEU209     -0.1245
     87  CA        24.8670   -5.7060   36.7180 C.3   209  LEU209      0.1561
     88  C         24.1190   -6.8240   35.9860 C.2   209  LEU209      0.2260
     89  O         23.3200   -7.5390   36.5930 O.2   209  LEU209     -0.2867
     90  CB        24.4210   -4.3160   36.2180 C.3   209  LEU209      0.0270
     91  CG        23.3470   -3.5370   36.9840 C.3   209  LEU209      0.0019
     92  CD1       23.6650   -3.4590   38.4760 C.3   209  LEU209      0.0001
     93  CD2       23.2120   -2.1370   36.3830 C.3   209  LEU209      0.0001
     94  N         24.4670  -10.4290   37.7000 N.3   212  MET212     -0.1182
     95  CA        23.7360  -10.4800   38.9910 C.3   212  MET212      0.1917
     96  C         22.2440  -10.6540   38.6930 C.2   212  MET212      0.2634
     97  O         21.5660  -11.4670   39.3260 O.2   212  MET212     -0.2714
     98  CB        23.9560   -9.2150   39.8730 C.2   212  MET212      0.0083
     99  CG        25.2580   -8.4220   39.6130 C.2   212  MET212      0.0282
    100  SD        25.8370   -7.2310   40.8650 S.3   212  MET212     -0.1125
    101  CE        26.7710   -8.3060   41.9820 C.3   212  MET212      0.0742
    102  N         21.7510   -9.9200   37.6950 N.am  213  LEU213     -0.1977
    103  CA        20.3250   -9.9480   37.3260 C.3   213  LEU213      0.1596
    104  C         19.8450  -11.1970   36.5420 C.2   213  LEU213      0.2287
    105  O         18.6350  -11.3950   36.3650 O.2   213  LEU213     -0.2864
    106  CB        19.9720   -8.6680   36.5470 C.3   213  LEU213      0.0297
    107  CG        19.9220   -7.3740   37.3610 C.3   213  LEU213      0.0022
    108  CD1       19.7150   -6.1510   36.4540 C.3   213  LEU213      0.0001
    109  CD2       18.8200   -7.4680   38.4060 C.3   213  LEU213      0.0001
    110  N         17.4540  -13.1470   38.4980 N.3   216  VAL216     -0.1245
    111  CA        16.5360  -12.2670   39.2430 C.3   216  VAL216      0.1561
    112  C         15.3790  -11.7710   38.3590 C.2   216  VAL216      0.2260
    113  O         14.2750  -11.5880   38.8430 O.2   216  VAL216     -0.2867
    114  CB        17.2850  -11.0360   39.8220 C.3   216  VAL216      0.0252
    115  CG1       16.3160  -10.0310   40.3940 C.3   216  VAL216      0.0019
    116  CG2       18.3060  -11.4640   40.8770 C.3   216  VAL216      0.0019
    117  N         10.7290   -7.4370   37.7650 N.3   255  MET255     -0.1245
    118  CA        11.2500   -7.5480   39.1390 C.3   255  MET255      0.1570
    119  C         10.1560   -7.6660   40.2140 C.2   255  MET255      0.2261
    120  O         10.3490   -8.3280   41.2340 O.2   255  MET255     -0.2867
    121  CB        12.1890   -6.3980   39.5040 C.3   255  MET255      0.0387
    122  CG        13.3920   -6.2840   38.6470 C.3   255  MET255      0.0595
    123  SD        14.2930   -4.7950   39.0950 S.3   255  MET255     -0.1393
    124  CE        15.8270   -5.0810   38.2060 C.3   255  MET255      0.0692
@<TRIPOS>BOND
     1    69    68    2
     2    63    64    1
     3    63    60    1
     4    68    67    1
     5    64    65    1
     6    60    59    1
     7    60    61    1
     8    65    59    1
     9    70    71    1
    10    67    66    1
    11    61    62    2
    12    84    82    1
    13    80    81    2
    14    80    79    1
    15    88    89    2
    16    88    87    1
    17    90    87    1
    18    90    91    1
    19   105   104    2
    20    93    91    1
    21    71    74    1
    22    71    72    1
    23   108   107    1
    24    86    87    1
    25   104   103    1
    26   106   103    1
    27   106   107    1
    28    78    79    1
    29    74    75    1
    30    79    82    1
    31    82    83    1
    32    91    92    1
    33   103   102    1
    34   107   109    1
    35    72    73    2
    36    83    85    1
    37    76    75    1
    38   102    96   am
    39    94    95    1
    40   117   118    1
    41    75    77    1
    42   124   123    1
    43   112   113    2
    44   112   111    1
    45   110   111    1
    46    21    22    1
    47   122   123    1
    48   122   121    1
    49    96    95    1
    50    96    97    2
    51    22    23    1
    52    22    25    1
    53    34    32   am
    54    95    98    1
    55   118   121    1
    56   118   119    1
    57   111   114    1
    58    27    23   am
    59    27    28    1
    60    23    24    2
    61    99    98    2
    62    99   100    1
    63    25    26    1
    64   114   115    1
    65   114   116    1
    66    32    31    1
    67    32    33    2
    68    31    28    1
    69    58    57    1
    70   119   120    2
    71    28    29    1
    72   100   101    1
    73    57    55   ar
    74    57    56   ar
    75    11    13   ar
    76    11     8   ar
    77    13    14   ar
    78     1     2    1
    79    29    30    2
    80     5     6    1
    81     5     2    1
    82    55    53   ar
    83     8     6   ar
    84     8    10   ar
    85    14    12   ar
    86     6     7   ar
    87    56    54   ar
    88     2     3    1
    89    10    12   ar
    90    10     9   ar
    91     7     9   ar
    92    46    45    2
    93    53    52   ar
    94    54    52   ar
    95     3     4    2
    96    44    45    1
    97    44    43    1
    98    52    51    1
    99    38    37    2
   100    43    37   am
   101    37    36    1
   102    50    49    2
   103    51    48    1
   104    20    19    1
   105    15    16    1
   106    49    48    1
   107    48    47    1
   108    19    16    1
   109    42    40   am
   110    36    39    1
   111    36    35    1
   112    39    40    1
   113    40    41    2
   114    16    17    1
   115    17    18    2
