@<TRIPOS>MOLECULE
tmp/3zv7A02.pdb
 143 144 0 0 0
SMALL
GASTEIGER

@<TRIPOS>ATOM
      1  N         -0.3650   73.5420   65.0050 N.3    83  TRP83      -0.1241
      2  CA        -0.4710   72.3070   64.2420 C.3    83  TRP83       0.1605
      3  C         -1.8710   71.7200   64.2800 C.2    83  TRP83       0.2264
      4  O         -2.2060   70.8610   63.4600 O.2    83  TRP83      -0.2867
      5  CB         0.5290   71.2740   64.7800 C.3    83  TRP83       0.0550
      6  CG         1.9430   71.7780   64.7940 C.ar   83  TRP83       0.0003
      7  CD1        2.6650   72.1740   65.8830 C.ar   83  TRP83       0.0946
      8  CD2        2.8080   71.9420   63.6580 C.ar   83  TRP83       0.0152
      9  NE1        3.9300   72.5710   65.4980 N.ar   83  TRP83      -0.2442
     10  CE2        4.0420   72.4370   64.1380 C.ar   83  TRP83       0.0810
     11  CE3        2.6580   71.7200   62.2820 C.ar   83  TRP83       0.0012
     12  CZ2        5.1230   72.7120   63.2920 C.ar   83  TRP83       0.0191
     13  CZ3        3.7430   71.9990   61.4310 C.ar   83  TRP83       0.0001
     14  CH2        4.9560   72.4890   61.9460 C.ar   83  TRP83       0.0015
     15  N          1.9090   66.6550   56.8100 N.3   116  GLY116     -0.1210
     16  CA         2.3000   65.5620   57.6820 C.3   116  GLY116      0.1956
     17  C          1.4730   65.5190   58.9580 C.2   116  GLY116      0.2612
     18  O          0.4030   66.1480   59.0640 O.2   116  GLY116     -0.2717
     19  N          1.9690   64.7750   59.9400 N.am  117  GLY117     -0.1942
     20  CA         1.2360   64.6280   61.1840 C.3   117  GLY117      0.2014
     21  C          1.0080   63.1460   61.4700 C.2   117  GLY117      0.2639
     22  O         -0.0790   62.7470   61.8980 O.2   117  GLY117     -0.2714
     23  N          2.0320   62.3290   61.2090 N.am  118  GLY118     -0.1954
     24  CA         1.9530   60.9010   61.4800 C.3   118  GLY118      0.1869
     25  C          0.7590   60.1110   60.9720 C.2   118  GLY118      0.2309
     26  O          0.4440   59.0600   61.5230 O.2   118  GLY118     -0.2863
     27  N         -2.1410   60.5050   61.4980 N.3   120  TYR120     -0.1227
     28  CA        -3.2600   60.5560   62.4400 C.3   120  TYR120      0.1736
     29  C         -3.7790   61.9940   62.5880 C.2   120  TYR120      0.2596
     30  O         -4.7800   62.2410   63.2730 O.2   120  TYR120     -0.2718
     31  CB        -2.8500   60.0150   63.8250 C.3   120  TYR120      0.0548
     32  CG        -1.9550   60.9290   64.6350 C.ar  120  TYR120     -0.0200
     33  CD1       -2.4860   62.0300   65.3370 C.ar  120  TYR120     -0.0009
     34  CD2       -0.5640   60.7150   64.6830 C.ar  120  TYR120     -0.0009
     35  CE1       -1.6560   62.8990   66.0700 C.ar  120  TYR120      0.0417
     36  CE2        0.2850   61.5710   65.4090 C.ar  120  TYR120      0.0417
     37  CZ        -0.2660   62.6580   66.1030 C.ar  120  TYR120      0.1957
     38  OH         0.5650   63.4700   66.8530 O.3   120  TYR120     -0.2866
     39  N         -3.1040   62.9400   61.9400 N.am  121  SER121     -0.1952
     40  CA        -3.4940   64.3360   62.0560 C.3   121  SER121      0.1924
     41  C         -2.9600   65.1490   60.9050 C.2   121  SER121      0.2314
     42  O         -2.2110   64.6400   60.0680 O.2   121  SER121     -0.2863
     43  CB        -2.9340   64.9070   63.3450 C.3   121  SER121      0.2116
     44  OG        -1.5200   64.9940   63.2630 O.3   121  SER121     -0.2180
     45  N          1.2330   76.7790   56.4740 N.3   129  TYR129     -0.1241
     46  CA         1.0910   76.2060   55.1340 C.3   129  TYR129      0.1605
     47  C          0.5520   77.1890   54.1010 C.2   129  TYR129      0.2264
     48  O          0.3900   76.8230   52.9440 O.2   129  TYR129     -0.2867
     49  CB         0.1910   74.9670   55.1480 C.3   129  TYR129      0.0534
     50  CG         0.6950   73.8270   55.9960 C.ar  129  TYR129     -0.0201
     51  CD1        2.0520   73.7020   56.3200 C.ar  129  TYR129     -0.0009
     52  CD2       -0.1860   72.8770   56.4900 C.ar  129  TYR129     -0.0009
     53  CE1        2.5100   72.6570   57.1300 C.ar  129  TYR129      0.0417
     54  CE2        0.2570   71.8290   57.2880 C.ar  129  TYR129      0.0417
     55  CZ         1.5980   71.7250   57.6120 C.ar  129  TYR129      0.1957
     56  OH         1.9990   70.7040   58.4490 O.3   129  TYR129     -0.2866
     57  N          6.1140   67.0000   54.3310 N.3   198  GLU198     -0.1231
     58  CA         6.9640   66.7910   55.4920 C.3   198  GLU198      0.1699
     59  C          6.4340   65.6560   56.3750 C.2   198  GLU198      0.2592
     60  O          5.2240   65.4390   56.4320 O.2   198  GLU198     -0.2718
     61  CB         7.0270   68.1010   56.2800 C.3   198  GLU198      0.0402
     62  CG         7.9420   68.1150   57.4870 C.3   198  GLU198      0.1161
     63  CD         7.2600   67.6370   58.7470 C.2   198  GLU198      0.3649
     64  OE1        6.0120   67.5550   58.7610 O.co2 198  GLU198     -0.2457
     65  OE2        7.9750   67.3540   59.7310 O.co2 198  GLU198     -0.2457
     66  N          7.3280   64.9070   57.0270 N.am  199  SER199     -0.1952
     67  CA         6.8840   63.8600   57.9540 C.3   199  SER199      0.1924
     68  C          6.0840   62.7770   57.1960 C.2   199  SER199      0.2314
     69  O          6.5960   62.1840   56.2530 O.2   199  SER199     -0.2863
     70  CB         6.0360   64.5470   59.0610 C.3   199  SER199      0.2116
     71  OG         5.3000   63.6330   59.8670 O.3   199  SER199     -0.2180
     72  N          7.6200   53.7620   61.2880 N.3   232  TRP232     -0.1241
     73  CA         6.2720   54.1590   61.7290 C.3   232  TRP232      0.1605
     74  C          5.2740   54.3940   60.5980 C.2   232  TRP232      0.2264
     75  O          4.0660   54.5250   60.8440 O.2   232  TRP232     -0.2867
     76  CB         6.3430   55.4680   62.5190 C.3   232  TRP232      0.0550
     77  CG         7.1330   56.5520   61.7960 C.ar  232  TRP232      0.0003
     78  CD1        8.4680   56.8430   61.9520 C.ar  232  TRP232      0.0946
     79  CD2        6.6560   57.4320   60.7690 C.ar  232  TRP232      0.0152
     80  NE1        8.8460   57.8450   61.0890 N.ar  232  TRP232     -0.2442
     81  CE2        7.7560   58.2270   60.3510 C.ar  232  TRP232      0.0810
     82  CE3        5.4100   57.6310   60.1610 C.ar  232  TRP232      0.0012
     83  CZ2        7.6410   59.2040   59.3480 C.ar  232  TRP232      0.0191
     84  CZ3        5.2960   58.6060   59.1620 C.ar  232  TRP232      0.0001
     85  CH2        6.4060   59.3770   58.7670 C.ar  232  TRP232      0.0015
     86  N          6.7690   57.7890   68.8030 N.3   287  PHE287     -0.1241
     87  CA         6.9380   57.7980   67.3620 C.3   287  PHE287      0.1605
     88  C          6.2950   56.5640   66.6800 C.2   287  PHE287      0.2264
     89  O          6.8570   55.9660   65.7600 O.2   287  PHE287     -0.2867
     90  CB         8.4220   57.9110   67.0080 C.3   287  PHE287      0.0534
     91  CG         8.6990   58.8940   65.9050 C.ar  287  PHE287     -0.0203
     92  CD1        7.8890   58.9280   64.7670 C.ar  287  PHE287     -0.0042
     93  CD2        9.7620   59.7880   65.9990 C.ar  287  PHE287     -0.0042
     94  CE1        8.1350   59.8400   63.7370 C.ar  287  PHE287     -0.0003
     95  CE2       10.0190   60.7050   64.9780 C.ar  287  PHE287     -0.0003
     96  CZ         9.2000   60.7290   63.8430 C.ar  287  PHE287     -0.0000
     97  N          2.2160   55.3190   65.4510 N.3   289  PHE289     -0.1241
     98  CA         0.8370   55.7520   65.2600 C.3   289  PHE289      0.1605
     99  C         -0.0290   54.5590   64.8920 C.2   289  PHE289      0.2264
    100  O          0.4150   53.6270   64.2240 O.2   289  PHE289     -0.2867
    101  CB         0.8180   56.8310   64.1690 C.3   289  PHE289      0.0534
    102  CG         1.9630   57.8090   64.2830 C.ar  289  PHE289     -0.0203
    103  CD1        2.0580   58.6650   65.3800 C.ar  289  PHE289     -0.0042
    104  CD2        2.9930   57.8150   63.3400 C.ar  289  PHE289     -0.0042
    105  CE1        3.1610   59.5090   65.5420 C.ar  289  PHE289     -0.0003
    106  CE2        4.1050   58.6570   63.4910 C.ar  289  PHE289     -0.0003
    107  CZ         4.1900   59.5050   64.5940 C.ar  289  PHE289     -0.0000
    108  N         10.6480   66.3770   69.8100 N.3   329  PHE329     -0.1227
    109  CA         9.1790   66.4530   69.9860 C.3   329  PHE329      0.1736
    110  C          8.5640   65.2080   70.6450 C.2   329  PHE329      0.2595
    111  O          7.7610   65.2990   71.5840 O.2   329  PHE329     -0.2718
    112  CB         8.4840   66.6510   68.6310 C.3   329  PHE329      0.0547
    113  CG         7.5160   67.7960   68.6060 C.ar  329  PHE329     -0.0202
    114  CD1        6.4410   67.8390   69.4770 C.ar  329  PHE329     -0.0042
    115  CD2        7.6950   68.8540   67.7180 C.ar  329  PHE329     -0.0042
    116  CE1        5.5590   68.9220   69.4680 C.ar  329  PHE329     -0.0003
    117  CE2        6.8140   69.9430   67.7040 C.ar  329  PHE329     -0.0003
    118  CZ         5.7480   69.9740   68.5810 C.ar  329  PHE329     -0.0000
    119  N          8.9510   64.0380   70.1490 N.am  330  PHE330     -0.1976
    120  CA         8.4130   62.7850   70.6480 C.3   330  PHE330      0.1639
    121  C          8.8620   62.3890   72.0340 C.2   330  PHE330      0.2290
    122  O          8.1630   61.6410   72.7070 O.2   330  PHE330     -0.2864
    123  CB         8.6940   61.6850   69.6330 C.3   330  PHE330      0.0560
    124  CG         8.2060   62.0350   68.2570 C.ar  330  PHE330     -0.0200
    125  CD1        8.9800   62.8290   67.4140 C.ar  330  PHE330     -0.0042
    126  CD2        6.9260   61.6630   67.8440 C.ar  330  PHE330     -0.0042
    127  CE1        8.4870   63.2580   66.1720 C.ar  330  PHE330     -0.0003
    128  CE2        6.4330   62.0840   66.6170 C.ar  330  PHE330     -0.0003
    129  CZ         7.2140   62.8830   65.7790 C.ar  330  PHE330     -0.0000
    130  N         11.4540   68.7990   64.6950 N.3   439  HIS439     -0.1226
    131  CA        10.7100   68.1150   63.6460 C.3   439  HIS439      0.1752
    132  C          9.6050   69.0670   63.2180 C.2   439  HIS439      0.2596
    133  O          8.7780   69.4520   64.0280 O.2   439  HIS439     -0.2718
    134  CB        10.0990   66.8470   64.2400 C.3   439  HIS439      0.0759
    135  CG         9.4280   65.9450   63.2470 C.ar  439  HIS439      0.0818
    136  ND1       10.0970   65.3630   62.1880 N.ar  439  HIS439     -0.2268
    137  CD2        8.1660   65.4490   63.2140 C.ar  439  HIS439      0.1154
    138  CE1        9.2760   64.5430   61.5540 C.ar  439  HIS439      0.1986
    139  NE2        8.0980   64.5760   62.1570 N.ar  439  HIS439     -0.2212
    140  N          9.5930   69.4480   61.9500 N.am  440  GLY440     -0.1957
    141  CA         8.5610   70.3450   61.4620 C.3   440  GLY440      0.1869
    142  C          8.9410   71.8210   61.4200 C.2   440  GLY440      0.2309
    143  O          8.1840   72.6270   60.9030 O.2   440  GLY440     -0.2863
@<TRIPOS>BOND
     1    48    47    2
     2    47    46    1
     3    57    58    1
     4    46    49    1
     5    46    45    1
     6    49    50    1
     7    58    61    1
     8    58    59    1
     9    50    51   ar
    10    50    52   ar
    11    69    68    2
    12    61    62    1
    13    51    53   ar
    14    59    60    2
    15    59    66   am
    16    52    54   ar
    17    15    16    1
    18    66    67    1
    19    53    55   ar
    20    68    67    1
    21    54    55   ar
    22    62    63    1
    23    55    56    1
    24    16    17    1
    25    67    70    1
    26    63    64   ar
    27    63    65   ar
    28    85    84   ar
    29    85    83   ar
    30    17    18    2
    31    17    19   am
    32    70    71    1
    33    84    82   ar
    34    83    81   ar
    35    19    20    1
    36    42    41    2
    37    82    79   ar
    38    81    79   ar
    39    81    80   ar
    40    74    75    2
    41    74    73    1
    42    79    77   ar
    43   143   142    2
    44    41    40    1
    45    25    24    1
    46    25    26    2
    47    80    78   ar
    48    20    21    1
    49    23    21   am
    50    23    24    1
    51    72    73    1
    52   142   141    1
    53    13    14   ar
    54    13    11   ar
    55   141   140    1
    56    21    22    2
    57    27    28    1
    58   138   139   ar
    59   138   136   ar
    60    73    76    1
    61    77    78   ar
    62    77    76    1
    63    39    40    1
    64    39    29   am
    65    14    12   ar
    66   140   132   am
    67    40    43    1
    68   139   137   ar
    69   136   135   ar
    70    11     8   ar
    71    28    29    1
    72    28    31    1
    73    29    30    2
    74   137   135   ar
    75   132   131    1
    76   132   133    2
    77   135   134    1
    78    44    43    1
    79    12    10   ar
    80   104   106   ar
    81   104   102   ar
    82     4     3    2
    83   106   107   ar
    84   131   134    1
    85   131   130    1
    86     8    10   ar
    87     8     6   ar
    88    94    96   ar
    89    94    92   ar
    90    31    32    1
    91    96    95   ar
    92    10     9   ar
    93   101   102    1
    94   101    98    1
    95   100    99    2
    96     2     3    1
    97     2     5    1
    98     2     1    1
    99   102   103   ar
   100   107   105   ar
   101    32    34   ar
   102    32    33   ar
   103    34    36   ar
   104    92    91   ar
   105     5     6    1
   106     6     7   ar
   107    99    98    1
   108    95    93   ar
   109    98    97    1
   110    33    35   ar
   111   103   105   ar
   112    36    37   ar
   113     9     7   ar
   114    89    88    2
   115   129   127   ar
   116   129   128   ar
   117    91    93   ar
   118    91    90    1
   119    35    37   ar
   120    37    38    1
   121   127   125   ar
   122   128   126   ar
   123    88    87    1
   124    90    87    1
   125    87    86    1
   126   125   124   ar
   127   117   115   ar
   128   117   118   ar
   129   115   113   ar
   130   126   124   ar
   131   124   123    1
   132   118   116   ar
   133   113   112    1
   134   113   114   ar
   135   112   109    1
   136   116   114   ar
   137   123   120    1
   138   108   109    1
   139   109   110    1
   140   119   110   am
   141   119   120    1
   142   110   111    2
   143   120   121    1
   144   121   122    2
