@<TRIPOS>MOLECULE
tmp/3zv7A00.pdb
 121 121 0 0 0
SMALL
GASTEIGER

@<TRIPOS>ATOM
      1  N         -7.4550   63.5570   66.0280 N.3    69  TYR69      -0.1241
      2  CA        -7.0820   63.7010   67.4320 C.3    69  TYR69       0.1605
      3  C         -6.5630   65.1310   67.5630 C.2    69  TYR69       0.2264
      4  O         -5.8230   65.5960   66.7030 O.2    69  TYR69      -0.2867
      5  CB        -5.9490   62.7380   67.7690 C.3    69  TYR69       0.0534
      6  CG        -5.2970   63.0080   69.0970 C.ar   69  TYR69      -0.0201
      7  CD1       -5.8350   62.4920   70.2770 C.ar   69  TYR69      -0.0009
      8  CD2       -4.1350   63.7890   69.1800 C.ar   69  TYR69      -0.0009
      9  CE1       -5.2300   62.7430   71.5140 C.ar   69  TYR69       0.0417
     10  CE2       -3.5250   64.0450   70.4060 C.ar   69  TYR69       0.0417
     11  CZ        -4.0750   63.5190   71.5710 C.ar   69  TYR69       0.1957
     12  OH        -3.4760   63.7680   72.7900 O.3    69  TYR69      -0.2866
     13  N         -1.8600   69.1500   75.0820 N.3    73  GLN73      -0.1245
     14  CA        -0.8380   68.9670   76.0870 C.3    73  GLN73       0.1566
     15  C         -0.4540   70.3360   76.6310 C.2    73  GLN73       0.2260
     16  O         -0.1250   70.4620   77.7970 O.2    73  GLN73      -0.2867
     17  CB         0.3950   68.3160   75.4750 C.3    73  GLN73       0.0367
     18  CG         0.4580   66.8400   75.6930 C.3    73  GLN73       0.0905
     19  CD         0.5310   66.5040   77.1580 C.2    73  GLN73       0.2608
     20  OE1        1.4670   66.9120   77.8520 O.2    73  GLN73      -0.2717
     21  NE2       -0.4660   65.7650   77.6480 N.am   73  GLN73      -0.0878
     22  N         -2.1410   60.5050   61.4980 N.3   120  TYR120     -0.1241
     23  CA        -3.2600   60.5560   62.4400 C.3   120  TYR120      0.1605
     24  C         -3.7790   61.9940   62.5880 C.2   120  TYR120      0.2264
     25  O         -4.7800   62.2410   63.2730 O.2   120  TYR120     -0.2867
     26  CB        -2.8500   60.0150   63.8250 C.3   120  TYR120      0.0534
     27  CG        -1.9550   60.9290   64.6350 C.ar  120  TYR120     -0.0201
     28  CD1       -2.4860   62.0300   65.3370 C.ar  120  TYR120     -0.0009
     29  CD2       -0.5640   60.7150   64.6830 C.ar  120  TYR120     -0.0009
     30  CE1       -1.6560   62.8990   66.0700 C.ar  120  TYR120      0.0417
     31  CE2        0.2850   61.5710   65.4090 C.ar  120  TYR120      0.0417
     32  CZ        -0.2660   62.6580   66.1030 C.ar  120  TYR120      0.1957
     33  OH         0.5650   63.4700   66.8530 O.3   120  TYR120     -0.2866
     34  N        -11.3530   58.8700   70.3120 N.3   275  ASP275     -0.1239
     35  CA       -11.1500   58.6800   71.7450 C.3   275  ASP275      0.1674
     36  C        -10.4350   57.3960   72.1760 C.2   275  ASP275      0.2266
     37  O         -9.8680   57.3570   73.2690 O.2   275  ASP275     -0.2867
     38  CB       -12.4830   58.7700   72.4920 C.3   275  ASP275      0.1410
     39  CG       -12.9280   60.1980   72.7190 C.2   275  ASP275      0.3668
     40  OD1      -12.0870   61.1310   72.6360 O.co2 275  ASP275     -0.2456
     41  OD2      -14.1250   60.3850   72.9990 O.co2 275  ASP275     -0.2456
     42  N         -5.5180   55.5830   70.2750 N.3   278  TRP278     -0.1241
     43  CA        -4.2120   55.2250   70.7760 C.3   278  TRP278      0.1605
     44  C         -4.1440   53.9280   71.5490 C.2   278  TRP278      0.2264
     45  O         -3.0550   53.4330   71.8200 O.2   278  TRP278     -0.2867
     46  CB        -3.6690   56.3730   71.6140 C.3   278  TRP278      0.0550
     47  CG        -3.5280   57.6290   70.8150 C.ar  278  TRP278      0.0003
     48  CD1       -4.4350   58.6430   70.7140 C.ar  278  TRP278      0.0946
     49  CD2       -2.4200   57.9970   69.9840 C.ar  278  TRP278      0.0152
     50  NE1       -3.9600   59.6250   69.8740 N.ar  278  TRP278     -0.2442
     51  CE2       -2.7280   59.2550   69.4100 C.ar  278  TRP278      0.0810
     52  CE3       -1.1990   57.3880   69.6690 C.ar  278  TRP278      0.0012
     53  CZ2       -1.8560   59.9190   68.5340 C.ar  278  TRP278      0.0191
     54  CZ3       -0.3270   58.0460   68.7960 C.ar  278  TRP278      0.0001
     55  CH2       -0.6650   59.3020   68.2380 C.ar  278  TRP278      0.0015
     56  N          6.7690   57.7890   68.8030 N.3   287  PHE287     -0.1241
     57  CA         6.9380   57.7980   67.3620 C.3   287  PHE287      0.1605
     58  C          6.2950   56.5640   66.6800 C.2   287  PHE287      0.2264
     59  O          6.8570   55.9660   65.7600 O.2   287  PHE287     -0.2867
     60  CB         8.4220   57.9110   67.0080 C.3   287  PHE287      0.0534
     61  CG         8.6990   58.8940   65.9050 C.ar  287  PHE287     -0.0203
     62  CD1        7.8890   58.9280   64.7670 C.ar  287  PHE287     -0.0042
     63  CD2        9.7620   59.7880   65.9990 C.ar  287  PHE287     -0.0042
     64  CE1        8.1350   59.8400   63.7370 C.ar  287  PHE287     -0.0003
     65  CE2       10.0190   60.7050   64.9780 C.ar  287  PHE287     -0.0003
     66  CZ         9.2000   60.7290   63.8430 C.ar  287  PHE287     -0.0000
     67  N          2.2160   55.3190   65.4510 N.3   289  PHE289     -0.1241
     68  CA         0.8370   55.7520   65.2600 C.3   289  PHE289      0.1605
     69  C         -0.0290   54.5590   64.8920 C.2   289  PHE289      0.2264
     70  O          0.4150   53.6270   64.2240 O.2   289  PHE289     -0.2867
     71  CB         0.8180   56.8310   64.1690 C.3   289  PHE289      0.0534
     72  CG         1.9630   57.8090   64.2830 C.ar  289  PHE289     -0.0203
     73  CD1        2.0580   58.6650   65.3800 C.ar  289  PHE289     -0.0042
     74  CD2        2.9930   57.8150   63.3400 C.ar  289  PHE289     -0.0042
     75  CE1        3.1610   59.5090   65.5420 C.ar  289  PHE289     -0.0003
     76  CE2        4.1050   58.6570   63.4910 C.ar  289  PHE289     -0.0003
     77  CZ         4.1900   59.5050   64.5940 C.ar  289  PHE289     -0.0000
     78  N         10.6480   66.3770   69.8100 N.3   329  PHE329     -0.1227
     79  CA         9.1790   66.4530   69.9860 C.3   329  PHE329      0.1736
     80  C          8.5640   65.2080   70.6450 C.2   329  PHE329      0.2595
     81  O          7.7610   65.2990   71.5840 O.2   329  PHE329     -0.2718
     82  CB         8.4840   66.6510   68.6310 C.3   329  PHE329      0.0547
     83  CG         7.5160   67.7960   68.6060 C.ar  329  PHE329     -0.0202
     84  CD1        6.4410   67.8390   69.4770 C.ar  329  PHE329     -0.0042
     85  CD2        7.6950   68.8540   67.7180 C.ar  329  PHE329     -0.0042
     86  CE1        5.5590   68.9220   69.4680 C.ar  329  PHE329     -0.0003
     87  CE2        6.8140   69.9430   67.7040 C.ar  329  PHE329     -0.0003
     88  CZ         5.7480   69.9740   68.5810 C.ar  329  PHE329     -0.0000
     89  N          8.9510   64.0380   70.1490 N.am  330  PHE330     -0.1976
     90  CA         8.4130   62.7850   70.6480 C.3   330  PHE330      0.1639
     91  C          8.8620   62.3890   72.0340 C.2   330  PHE330      0.2290
     92  O          8.1630   61.6410   72.7070 O.2   330  PHE330     -0.2864
     93  CB         8.6940   61.6850   69.6330 C.3   330  PHE330      0.0560
     94  CG         8.2060   62.0350   68.2570 C.ar  330  PHE330     -0.0200
     95  CD1        8.9800   62.8290   67.4140 C.ar  330  PHE330     -0.0042
     96  CD2        6.9260   61.6630   67.8440 C.ar  330  PHE330     -0.0042
     97  CE1        8.4870   63.2580   66.1720 C.ar  330  PHE330     -0.0003
     98  CE2        6.4330   62.0840   66.6170 C.ar  330  PHE330     -0.0003
     99  CZ         7.2140   62.8830   65.7790 C.ar  330  PHE330     -0.0000
    100  N          6.8310   64.7710   74.4820 N.3   333  TYR333     -0.1241
    101  CA         5.4730   64.3000   74.6970 C.3   333  TYR333      0.1605
    102  C          5.2720   62.9800   75.3920 C.2   333  TYR333      0.2264
    103  O          4.2070   62.7620   75.9430 O.2   333  TYR333     -0.2867
    104  CB         4.6850   64.2900   73.3800 C.3   333  TYR333      0.0534
    105  CG         4.1170   65.6500   73.0170 C.ar  333  TYR333     -0.0201
    106  CD1        4.9610   66.7510   72.7920 C.ar  333  TYR333     -0.0009
    107  CD2        2.7370   65.8430   72.8960 C.ar  333  TYR333     -0.0009
    108  CE1        4.4480   68.0040   72.4510 C.ar  333  TYR333      0.0417
    109  CE2        2.2090   67.1000   72.5510 C.ar  333  TYR333      0.0417
    110  CZ         3.0700   68.1700   72.3290 C.ar  333  TYR333      0.1957
    111  OH         2.5520   69.3950   71.9670 O.3   333  TYR333     -0.2866
    112  N         11.4540   68.7990   64.6950 N.3   439  HIS439     -0.1241
    113  CA        10.7100   68.1150   63.6460 C.3   439  HIS439      0.1621
    114  C          9.6050   69.0670   63.2180 C.2   439  HIS439      0.2264
    115  O          8.7780   69.4520   64.0280 O.2   439  HIS439     -0.2867
    116  CB        10.0990   66.8470   64.2400 C.3   439  HIS439      0.0745
    117  CG         9.4280   65.9450   63.2470 C.ar  439  HIS439      0.0817
    118  ND1       10.0970   65.3630   62.1880 N.ar  439  HIS439     -0.2268
    119  CD2        8.1660   65.4490   63.2140 C.ar  439  HIS439      0.1154
    120  CE1        9.2760   64.5430   61.5540 C.ar  439  HIS439      0.1986
    121  NE2        8.0980   64.5760   62.1570 N.ar  439  HIS439     -0.2212
@<TRIPOS>BOND
     1    22    23    1
     2   120   121   ar
     3   120   118   ar
     4   121   119   ar
     5   118   117   ar
     6    23    24    1
     7    23    26    1
     8    24    25    2
     9   119   117   ar
    10   114   113    1
    11   114   115    2
    12   117   116    1
    13    74    76   ar
    14    74    72   ar
    15    76    77   ar
    16   113   116    1
    17   113   112    1
    18    64    66   ar
    19    64    62   ar
    20    26    27    1
    21    66    65   ar
    22    71    72    1
    23    71    68    1
    24    70    69    2
    25    72    73   ar
    26    77    75   ar
    27    27    29   ar
    28    27    28   ar
    29    29    31   ar
    30    62    61   ar
    31    69    68    1
    32    65    63   ar
    33    68    67    1
    34    28    30   ar
    35    73    75   ar
    36    31    32   ar
    37    59    58    2
    38    99    97   ar
    39    99    98   ar
    40    61    63   ar
    41    61    60    1
    42     1     2    1
    43    30    32   ar
    44    32    33    1
    45    97    95   ar
    46    98    96   ar
    47    58    57    1
    48     4     3    2
    49    60    57    1
    50    57    56    1
    51    95    94   ar
    52     2     3    1
    53     2     5    1
    54    87    85   ar
    55    87    88   ar
    56    85    83   ar
    57     5     6    1
    58    96    94   ar
    59    55    53   ar
    60    55    54   ar
    61    94    93    1
    62    53    51   ar
    63    88    86   ar
    64    83    82    1
    65    83    84   ar
    66    82    79    1
    67    54    52   ar
    68     6     8   ar
    69     6     7   ar
    70     8    10   ar
    71    51    50   ar
    72    51    49   ar
    73    86    84   ar
    74    93    90    1
    75    52    49   ar
    76    78    79    1
    77    50    48   ar
    78    49    47   ar
    79    79    80    1
    80    89    80   am
    81    89    90    1
    82    42    43    1
    83     7     9   ar
    84    34    35    1
    85    10    11   ar
    86    80    81    2
    87    90    91    1
    88    48    47   ar
    89    43    44    1
    90    43    46    1
    91    47    46    1
    92     9    11   ar
    93    44    45    2
    94    11    12    1
    95    35    36    1
    96    35    38    1
    97   111   110    1
    98    91    92    2
    99    36    37    2
   100   110   108   ar
   101   110   109   ar
   102   108   106   ar
   103    38    39    1
   104   109   107   ar
   105    40    39   ar
   106    39    41   ar
   107   106   105   ar
   108   107   105   ar
   109   105   104    1
   110   104   101    1
   111   100   101    1
   112   101   102    1
   113    13    14    1
   114   102   103    2
   115    17    18    1
   116    17    14    1
   117    18    19    1
   118    14    15    1
   119    15    16    2
   120    19    21   am
   121    19    20    2
