@<TRIPOS>MOLECULE
tmp/3zv9A00.pdb
 112 108 0 0 0
SMALL
GASTEIGER

@<TRIPOS>ATOM
      1  N        -10.4260    4.6790   12.7570 N.3    22  LYS22      -0.1245
      2  CA        -9.2960    5.3750   13.3830 C.3    22  LYS22       0.1561
      3  C         -9.6040    5.8770   14.7960 C.2    22  LYS22       0.2260
      4  O         -8.7240    6.3670   15.4830 O.2    22  LYS22      -0.2867
      5  CB        -8.8010    6.5490   12.5040 C.3    22  LYS22       0.0271
      6  CG        -8.3360    6.1570   11.0950 C.3    22  LYS22       0.0035
      7  CD        -6.9960    5.4250   11.1310 C.3    22  LYS22       0.0206
      8  CE        -6.6510    4.9110    9.7460 C.3    22  LYS22       0.1093
      9  NZ        -5.7130    3.7770    9.7640 N.3    22  LYS22      -0.1314
     10  N        -13.8930   11.2430   16.7890 N.3    25  PHE25      -0.1241
     11  CA       -13.5750   12.5970   16.3630 C.3    25  PHE25       0.1605
     12  C        -14.8120   13.3780   16.6730 C.2    25  PHE25       0.2264
     13  O        -15.9340   12.8800   16.4990 O.2    25  PHE25      -0.2867
     14  CB       -13.3500   12.6380   14.8190 C.3    25  PHE25       0.0534
     15  CG       -12.1360   11.8870   14.3800 C.ar   25  PHE25      -0.0203
     16  CD1      -12.2010   10.5050   14.1530 C.ar   25  PHE25      -0.0042
     17  CD2      -10.9110   12.5410   14.2460 C.ar   25  PHE25      -0.0042
     18  CE1      -11.0830    9.8030   13.8180 C.ar   25  PHE25      -0.0003
     19  CE2       -9.7670   11.8390   13.8830 C.ar   25  PHE25      -0.0003
     20  CZ        -9.8440   10.4650   13.6660 C.ar   25  PHE25      -0.0000
     21  N         -7.4770   12.4840    8.0600 N.3    40  HIS40      -0.1241
     22  CA        -6.8920   11.3470    8.7800 C.3    40  HIS40       0.1621
     23  C         -7.8830   10.3930    9.4890 C.2    40  HIS40       0.2264
     24  O         -7.4910    9.2920    9.8720 O.2    40  HIS40      -0.2867
     25  CB        -5.7790   11.7990    9.7450 C.3    40  HIS40       0.0745
     26  CG        -4.4590   12.0090    9.0600 C.ar   40  HIS40       0.0817
     27  ND1       -4.1570   13.1670    8.3690 N.ar   40  HIS40      -0.2268
     28  CD2       -3.3760   11.2020    8.9330 C.ar   40  HIS40       0.1154
     29  CE1       -2.9390   13.0680    7.8580 C.ar   40  HIS40       0.1986
     30  NE2       -2.4400   11.8890    8.1910 N.ar   40  HIS40      -0.2212
     31  N          1.8630   17.3510    8.1640 N.3   127  LEU127     -0.1231
     32  CA         0.9290   16.7470    9.1230 C.3   127  LEU127      0.1693
     33  C          1.0870   15.2110    9.1590 C.2   127  LEU127      0.2592
     34  O          0.5920   14.5080    8.2830 O.2   127  LEU127     -0.2718
     35  CB        -0.5180   17.1550    8.8180 C.3   127  LEU127      0.0284
     36  CG        -1.6490   16.6780    9.7480 C.3   127  LEU127      0.0019
     37  CD1       -1.5430   17.2330   11.1940 C.3   127  LEU127      0.0001
     38  CD2       -2.9580   17.0690    9.1720 C.3   127  LEU127      0.0001
     39  N          1.8070   14.7060   10.1670 N.am  128  GLY128     -0.1957
     40  CA         2.0410   13.2560   10.3100 C.3   128  GLY128      0.1869
     41  C          2.6270   12.6740    9.0380 C.2   128  GLY128      0.2309
     42  O          2.2880   11.5570    8.6450 O.2   128  GLY128     -0.2863
     43  N         -2.5090   21.2990   22.5700 N.3   142  THR142     -0.1203
     44  CA        -3.6090   20.4000   22.2540 C.3   142  THR142      0.1994
     45  C         -3.1320   18.9600   22.2380 C.2   142  THR142      0.2618
     46  O         -1.9550   18.6900   22.0250 O.2   142  THR142     -0.2717
     47  CB        -4.2220   20.7500   20.8630 C.3   142  THR142      0.1784
     48  OG1       -3.1790   20.6960   19.8870 O.3   142  THR142     -0.2211
     49  CG2       -4.8370   22.1590   20.8780 C.3   142  THR142      0.0376
     50  N         -4.0640   18.0330   22.4350 N.am  143  ARG143     -0.1965
     51  CA        -3.7200   16.6290   22.6340 C.3   143  ARG143      0.1729
     52  C         -4.4970   15.7260   21.7010 C.2   143  ARG143      0.2616
     53  O         -5.5110   16.1360   21.0900 O.2   143  ARG143     -0.2715
     54  CB        -3.9780   16.1820   24.1200 C.3   143  ARG143      0.0348
     55  CG        -3.5370   17.1760   25.2660 C.3   143  ARG143      0.0492
     56  CD        -2.0170   17.4980   25.2500 C.3   143  ARG143      0.2205
     57  NE        -1.4670   18.3230   26.3550 N.pl3 143  ARG143     -0.0865
     58  CZ        -0.1820   18.7250   26.3970 C.cat 143  ARG143      0.5346
     59  NH1        0.6880   18.3730   25.4130 N.pl3 143  ARG143      0.1354
     60  NH2        0.2710   19.4620   27.4200 N.pl3 143  ARG143      0.1354
     61  N         -4.0370   14.4800   21.6250 N.am  144  ALA144     -0.1963
     62  CA        -4.8160   13.4070   21.0420 C.3   144  ALA144      0.1728
     63  C         -6.2280   13.4060   21.6760 C.2   144  ALA144      0.2616
     64  O         -6.4040   13.7830   22.8640 O.2   144  ALA144     -0.2715
     65  CB        -4.1150   12.0680   21.2720 C.3   144  ALA144      0.0334
     66  N         -7.2350   13.0480   20.8890 N.am  145  GLY145     -0.1955
     67  CA        -8.6020   13.0740   21.3790 C.3   145  GLY145      0.1869
     68  C         -9.3340   14.3690   21.0200 C.2   145  GLY145      0.2309
     69  O        -10.5440   14.4560   21.1840 O.2   145  GLY145     -0.2863
     70  N         -9.0560   15.9620   17.9070 N.3   147  CYS147     -0.1235
     71  CA        -9.1990   16.1410   16.4430 C.3   147  CYS147      0.1677
     72  C        -10.6780   16.2380   16.0650 C.2   147  CYS147      0.2270
     73  O        -11.5500   15.5240   16.6330 O.2   147  CYS147     -0.2867
     74  CB        -8.4420   15.0660   15.6400 C.3   147  CYS147      0.0956
     75  SG        -6.6940   15.5240   15.4990 S.3   147  CYS147     -0.0801
     76  N         -9.8810   21.0440   14.3380 N.3   161  HIS161     -0.1226
     77  CA        -8.5690   20.7420   14.8690 C.3   161  HIS161      0.1752
     78  C         -8.0100   19.4580   14.2280 C.2   161  HIS161      0.2596
     79  O         -8.7270   18.4520   14.0660 O.2   161  HIS161     -0.2718
     80  CB        -8.6620   20.5300   16.3990 C.3   161  HIS161      0.0759
     81  CG        -7.3330   20.2610   17.0140 C.ar  161  HIS161      0.0818
     82  ND1       -6.4160   21.2720   17.2380 N.ar  161  HIS161     -0.2268
     83  CD2       -6.7290   19.1080   17.3830 C.ar  161  HIS161      0.1154
     84  CE1       -5.2980   20.7470   17.7220 C.ar  161  HIS161      0.1986
     85  NE2       -5.4620   19.4360   17.8220 N.ar  161  HIS161     -0.2212
     86  N         -6.7440   19.4720   13.8460 N.am  162  VAL162     -0.1966
     87  CA        -6.2390   18.3390   13.0940 C.3   162  VAL162      0.1727
     88  C         -4.8970   17.8350   13.5510 C.2   162  VAL162      0.2617
     89  O         -4.4730   16.7260   13.1510 O.2   162  VAL162     -0.2715
     90  CB        -6.1700   18.6440   11.5230 C.3   162  VAL162      0.0290
     91  CG1       -7.5860   18.8630   10.9270 C.3   162  VAL162      0.0023
     92  CG2       -5.2840   19.8690   11.2500 C.3   162  VAL162      0.0023
     93  N         -4.2020   18.6300   14.3750 N.am  163  GLY163     -0.1940
     94  CA        -2.8230   18.2660   14.7280 C.3   163  GLY163      0.2014
     95  C         -2.2200   19.1550   15.7910 C.2   163  GLY163      0.2639
     96  O         -2.8130   20.1350   16.1930 O.2   163  GLY163     -0.2714
     97  N         -1.0040   18.8170   16.2030 N.am  164  GLY164     -0.1939
     98  CA        -0.2990   19.5220   17.2850 C.3   164  GLY164      0.2014
     99  C          1.0690   18.9100   17.4870 C.2   164  GLY164      0.2639
    100  O          1.2840   17.7490   17.1340 O.2   164  GLY164     -0.2714
    101  N          1.9990   19.7020   18.0330 N.am  165  ASN165     -0.1958
    102  CA         3.3960   19.2640   18.2400 C.3   165  ASN165      0.1819
    103  C          3.7970   19.2210   19.7360 C.2   165  ASN165      0.2621
    104  O          4.9690   19.0770   20.0740 O.2   165  ASN165     -0.2715
    105  CB         4.3790   20.1520   17.4330 C.3   165  ASN165      0.1195
    106  CG         4.2560   21.6470   17.7700 C.2   165  ASN165      0.2630
    107  OD1        3.7450   22.0420   18.8310 O.2   165  ASN165     -0.2716
    108  ND2        4.7020   22.4850   16.8500 N.am  165  ASN165     -0.0877
    109  N          2.8130   19.3920   20.6140 N.am  166  GLY166     -0.1954
    110  CA         3.0330   19.3720   22.0560 C.3   166  GLY166      0.1869
    111  C          3.0430   20.7810   22.5970 C.2   166  GLY166      0.2309
    112  O          2.8260   20.9900   23.7800 O.2   166  GLY166     -0.2863
@<TRIPOS>BOND
     1    29    30   ar
     2    29    27   ar
     3    21    22    1
     4    31    32    1
     5    30    28   ar
     6    34    33    2
     7    27    26   ar
     8    42    41    2
     9    22    23    1
    10    22    25    1
    11    35    32    1
    12    35    36    1
    13    28    26   ar
    14    41    40    1
    15    26    25    1
    16    32    33    1
    17    33    39   am
    18    38    36    1
    19    23    24    2
    20     8     9    1
    21     8     7    1
    22    36    37    1
    23    39    40    1
    24    91    90    1
    25     6     7    1
    26     6     5    1
    27    92    90    1
    28    90    87    1
    29     5     2    1
    30     1     2    1
    31    87    88    1
    32    87    86    1
    33    89    88    2
    34     2     3    1
    35    88    93   am
    36    20    18   ar
    37    20    19   ar
    38    18    16   ar
    39    86    78   am
    40    19    17   ar
    41    79    78    2
    42    16    15   ar
    43    78    77    1
    44    17    15   ar
    45    76    77    1
    46    93    94    1
    47    15    14    1
    48    94    95    1
    49     3     4    2
    50    14    11    1
    51    77    80    1
    52    75    74    1
    53    74    71    1
    54    95    96    2
    55    95    97   am
    56    72    71    1
    57    72    73    2
    58    97    98    1
    59    11    12    1
    60    11    10    1
    61    80    81    1
    62    71    70    1
    63    13    12    2
    64   108   106   am
    65    81    82   ar
    66    81    83   ar
    67   100    99    2
    68    82    84   ar
    69    98    99    1
    70    83    85   ar
    71   105   106    1
    72   105   102    1
    73    99   101   am
    74    84    85   ar
    75   106   107    2
    76   101   102    1
    77   102   103    1
    78   103   104    2
    79   103   109   am
    80    48    47    1
    81   109   110    1
    82    47    49    1
    83    47    44    1
    84    66    67    1
    85    66    63   am
    86    68    69    2
    87    68    67    1
    88    62    65    1
    89    62    61    1
    90    62    63    1
    91    53    52    2
    92    61    52   am
    93    63    64    2
    94    52    51    1
    95    46    45    2
    96   110   111    1
    97    45    44    1
    98    45    50   am
    99    44    43    1
   100    50    51    1
   101   111   112    2
   102    51    54    1
   103    54    55    1
   104    56    55    1
   105    56    57    1
   106    59    58    1
   107    57    58    2
   108    58    60    1
