@<TRIPOS>MOLECULE
tmp/3zvaA00.pdb
 173 169 0 0 0
SMALL
GASTEIGER

@<TRIPOS>ATOM
      1  N         -9.5320    6.5130  -12.7560 N.3    22  LYS22      -0.1231
      2  CA        -9.5650    5.2230  -13.4450 C.3    22  LYS22       0.1693
      3  C        -10.1640    5.3130  -14.8310 C.2    22  LYS22       0.2593
      4  O        -10.1220    4.3570  -15.5710 O.2    22  LYS22      -0.2718
      5  CB       -10.3450    4.1670  -12.6390 C.3    22  LYS22       0.0285
      6  CG        -9.8010    3.9160  -11.2410 C.3    22  LYS22       0.0035
      7  CD        -8.3940    3.4200  -11.2820 C.3    22  LYS22       0.0206
      8  CE        -7.9710    2.9640   -9.8930 C.3    22  LYS22       0.1093
      9  NZ        -6.5150    2.7590   -9.8650 N.3    22  LYS22      -0.1314
     10  N        -10.7590    6.4460  -15.1650 N.am   23  GLY23      -0.1942
     11  CA       -11.2980    6.6200  -16.5050 C.3    23  GLY23       0.2014
     12  C        -12.7700    6.9520  -16.4500 C.2    23  GLY23       0.2639
     13  O        -13.2580    7.4260  -15.4180 O.2    23  GLY23      -0.2714
     14  N        -13.4760    6.6890  -17.5530 N.am   24  GLU24      -0.1963
     15  CA       -14.8630    7.1160  -17.6930 C.3    24  GLU24       0.1733
     16  C        -15.8340    6.0110  -17.3250 C.2    24  GLU24       0.2616
     17  O        -15.5830    4.8450  -17.6250 O.2    24  GLU24      -0.2715
     18  CB       -15.1670    7.5630  -19.1200 C.3    24  GLU24       0.0429
     19  CG       -14.7450    9.0030  -19.4370 C.3    24  GLU24       0.1163
     20  CD       -15.4250    9.5490  -20.6680 C.2    24  GLU24       0.3649
     21  OE1      -16.0680    8.7480  -21.4070 O.co2  24  GLU24      -0.2457
     22  OE2      -15.3580   10.7870  -20.8790 O.co2  24  GLU24      -0.2457
     23  N        -16.9630    6.3920  -16.7160 N.am   25  PHE25      -0.1974
     24  CA       -17.9830    5.4110  -16.3320 C.3    25  PHE25       0.1639
     25  C        -19.2960    6.0470  -16.6040 C.2    25  PHE25       0.2290
     26  O        -19.4420    7.2660  -16.4440 O.2    25  PHE25      -0.2864
     27  CB       -17.8760    5.0370  -14.8380 C.3    25  PHE25       0.0560
     28  CG       -16.5750    4.3770  -14.4790 C.ar   25  PHE25      -0.0200
     29  CD1      -15.4220    5.1490  -14.2330 C.ar   25  PHE25      -0.0042
     30  CD2      -16.4900    2.9920  -14.3840 C.ar   25  PHE25      -0.0042
     31  CE1      -14.1890    4.5380  -13.9280 C.ar   25  PHE25      -0.0003
     32  CE2      -15.2770    2.3700  -14.0580 C.ar   25  PHE25      -0.0003
     33  CZ       -14.1180    3.1560  -13.8260 C.ar   25  PHE25      -0.0000
     34  N        -19.5480    2.2960   -9.9560 N.3    38  PRO38      -0.2116
     35  CA       -18.8980    1.0830   -9.4330 C.3    38  PRO38       0.1372
     36  C        -17.7660    1.4400   -8.5090 C.2    38  PRO38       0.2244
     37  O        -17.0050    2.3390   -8.8280 O.2    38  PRO38      -0.2868
     38  CB       -18.3000    0.4080  -10.6810 C.3    38  PRO38       0.0268
     39  CG       -19.1350    0.9050  -11.8410 C.3    38  PRO38       0.0207
     40  CD       -19.6920    2.2810  -11.4300 C.3    38  PRO38       0.0892
     41  N        -14.9040    0.1800   -7.9680 N.3    40  HIS40      -0.1226
     42  CA       -13.5620    0.1660   -8.4970 C.3    40  HIS40       0.1752
     43  C        -13.2110    1.3510   -9.4050 C.2    40  HIS40       0.2595
     44  O        -12.0990    1.4760   -9.8250 O.2    40  HIS40      -0.2718
     45  CB       -13.1670   -1.2320   -9.0030 C.3    40  HIS40       0.0759
     46  CG       -12.7480   -2.1280   -7.8660 C.ar   40  HIS40       0.0818
     47  ND1      -13.6620   -2.6510   -6.9630 N.ar   40  HIS40      -0.2268
     48  CD2      -11.5210   -2.4690   -7.3990 C.ar   40  HIS40       0.1154
     49  CE1      -13.0180   -3.3250   -6.0290 C.ar   40  HIS40       0.1986
     50  NE2      -11.7170   -3.2350   -6.2710 N.ar   40  HIS40      -0.2212
     51  N        -14.1530    2.2630   -9.6300 N.am   41  ALA41      -0.1980
     52  CA       -13.8200    3.5560  -10.2310 C.3    41  ALA41       0.1597
     53  C        -12.9570    4.4020   -9.2790 C.2    41  ALA41       0.2287
     54  O        -12.3600    5.3880   -9.6970 O.2    41  ALA41      -0.2864
     55  CB       -15.0770    4.3120  -10.5990 C.3    41  ALA41       0.0319
     56  N        -19.6680   -3.6790   -4.5330 N.3    71  GLU71      -0.1245
     57  CA       -19.2100   -3.0140   -5.7710 C.3    71  GLU71       0.1567
     58  C        -20.0230   -1.7860   -6.1530 C.2    71  GLU71       0.2260
     59  O        -19.8030   -1.2070   -7.2180 O.2    71  GLU71      -0.2867
     60  CB       -19.0570   -4.0220   -6.9470 C.3    71  GLU71       0.0388
     61  CG       -18.3140   -3.4550   -8.1980 C.3    71  GLU71       0.1160
     62  CD       -16.8950   -2.9040   -7.8870 C.2    71  GLU71       0.3649
     63  OE1      -16.2710   -3.3190   -6.8440 O.co2  71  GLU71      -0.2457
     64  OE2      -16.4190   -2.0610   -8.6880 O.co2  71  GLU71      -0.2457
     65  N        -19.2600  -13.5640   -6.6790 N.3   125  LEU125     -0.1231
     66  CA       -18.3820  -13.4350   -7.8210 C.3   125  LEU125      0.1693
     67  C        -17.0200  -13.0430   -7.2890 C.2   125  LEU125      0.2592
     68  O        -16.9110  -12.1540   -6.4600 O.2   125  LEU125     -0.2718
     69  CB       -18.8930  -12.3450   -8.7880 C.3   125  LEU125      0.0284
     70  CG       -18.0500  -12.0740  -10.0490 C.3   125  LEU125      0.0019
     71  CD1      -18.0010  -13.3210  -10.9320 C.3   125  LEU125      0.0001
     72  CD2      -18.5170  -10.8460  -10.8480 C.3   125  LEU125      0.0001
     73  N        -15.9900  -13.7320   -7.7440 N.am  126  ASN126     -0.1960
     74  CA       -14.6200  -13.2860   -7.5740 C.3   126  ASN126      0.1819
     75  C        -14.3570  -12.2590   -8.6920 C.2   126  ASN126      0.2621
     76  O        -14.0620  -12.6160   -9.8330 O.2   126  ASN126     -0.2715
     77  CB       -13.6610  -14.4800   -7.6740 C.3   126  ASN126      0.1195
     78  CG       -12.1860  -14.0820   -7.5410 C.2   126  ASN126      0.2630
     79  OD1      -11.8170  -12.9120   -7.6820 O.2   126  ASN126     -0.2716
     80  ND2      -11.3320  -15.0710   -7.2650 N.am  126  ASN126     -0.0877
     81  N        -14.4780  -10.9850   -8.3700 N.am  127  LEU127     -0.1963
     82  CA       -14.4620   -9.9660   -9.4080 C.3   127  LEU127      0.1728
     83  C        -13.0370   -9.4870   -9.6320 C.2   127  LEU127      0.2616
     84  O        -12.5440   -8.6210   -8.9040 O.2   127  LEU127     -0.2715
     85  CB       -15.4170   -8.7970   -9.0720 C.3   127  LEU127      0.0311
     86  CG       -15.4040   -7.6020  -10.0450 C.3   127  LEU127      0.0022
     87  CD1      -15.8850   -8.0130  -11.4500 C.3   127  LEU127      0.0001
     88  CD2      -16.2170   -6.4610   -9.5230 C.3   127  LEU127      0.0001
     89  N        -12.3860  -10.0750  -10.6410 N.am  128  GLY128     -0.1955
     90  CA       -10.9740   -9.8110  -10.9600 C.3   128  GLY128      0.1869
     91  C        -10.1270   -9.8160   -9.7020 C.2   128  GLY128      0.2309
     92  O         -9.2670   -8.9440   -9.5310 O.2   128  GLY128     -0.2863
     93  N        -19.7410   -8.5780  -22.5780 N.3   142  THR142     -0.1203
     94  CA       -19.5960   -7.1620  -22.2780 C.3   142  THR142      0.1994
     95  C        -18.1430   -6.7720  -22.2750 C.2   142  THR142      0.2618
     96  O        -17.2530   -7.6270  -22.1160 O.2   142  THR142     -0.2717
     97  CB       -20.2200   -6.8180  -20.8790 C.3   142  THR142      0.1784
     98  OG1      -19.6180   -7.6610  -19.8820 O.3   142  THR142     -0.2211
     99  CG2      -21.7150   -7.0450  -20.9090 C.3   142  THR142      0.0376
    100  N        -17.8980   -5.4730  -22.4250 N.am  143  ARG143     -0.1965
    101  CA       -16.5520   -4.9950  -22.6810 C.3   143  ARG143      0.1729
    102  C        -16.1640   -3.8750  -21.7300 C.2   143  ARG143      0.2616
    103  O        -17.0200   -3.2670  -21.0670 O.2   143  ARG143     -0.2715
    104  CB       -16.3900   -4.5230  -24.1630 C.3   143  ARG143      0.0348
    105  CG       -17.0120   -5.4340  -25.2820 C.3   143  ARG143      0.0492
    106  CD       -16.3480   -6.8230  -25.3620 C.3   143  ARG143      0.2205
    107  NE       -16.8230   -7.7240  -26.4420 N.pl3 143  ARG143     -0.0865
    108  CZ       -16.5840   -9.0430  -26.4660 C.cat 143  ARG143      0.5346
    109  NH1      -15.8990   -9.6430  -25.4660 N.pl3 143  ARG143      0.1354
    110  NH2      -17.0280   -9.7940  -27.4710 N.pl3 143  ARG143      0.1354
    111  N        -14.8590   -3.6180  -21.6770 N.am  144  ALA144     -0.1963
    112  CA       -14.3350   -2.4130  -21.0520 C.3   144  ALA144      0.1728
    113  C        -15.0010   -1.2320  -21.7370 C.2   144  ALA144      0.2616
    114  O        -15.2150   -1.2520  -22.9740 O.2   144  ALA144     -0.2715
    115  CB       -12.8030   -2.3350  -21.2070 C.3   144  ALA144      0.0334
    116  N        -15.3580   -0.2300  -20.9400 N.am  145  GLY145     -0.1955
    117  CA       -16.0440    0.9480  -21.4550 C.3   145  GLY145      0.1869
    118  C        -17.5180    0.8880  -21.0700 C.2   145  GLY145      0.2309
    119  O        -18.2250    1.8710  -21.1950 O.2   145  GLY145     -0.2863
    120  N        -18.6600   -0.3260  -17.9140 N.3   147  CYS147     -0.1235
    121  CA       -18.8520   -0.2490  -16.4580 C.3   147  CYS147      0.1677
    122  C        -19.6660    0.9670  -16.0690 C.2   147  CYS147      0.2270
    123  O        -19.5020    2.0640  -16.6280 O.2   147  CYS147     -0.2867
    124  CB       -17.5420   -0.3520  -15.6920 C.3   147  CYS147      0.0956
    125  SG       -17.0440   -2.0790  -15.5370 S.3   147  CYS147     -0.0801
    126  N        -23.4530   -2.1480  -14.4040 N.3   161  HIS161     -0.1226
    127  CA       -22.4930   -3.1050  -14.9260 C.3   161  HIS161      0.1752
    128  C        -21.1260   -2.9250  -14.2950 C.2   161  HIS161      0.2596
    129  O        -20.6680   -1.8120  -14.1600 O.2   161  HIS161     -0.2718
    130  CB       -22.3750   -2.9480  -16.4480 C.3   161  HIS161      0.0759
    131  CG       -21.4980   -3.9760  -17.0440 C.ar  161  HIS161      0.0818
    132  ND1      -21.9470   -5.2530  -17.3130 N.ar  161  HIS161     -0.2268
    133  CD2      -20.1800   -3.9580  -17.3490 C.ar  161  HIS161      0.1154
    134  CE1      -20.9420   -5.9700  -17.7850 C.ar  161  HIS161      0.1986
    135  NE2      -19.8600   -5.2080  -17.8200 N.ar  161  HIS161     -0.2212
    136  N        -20.4650   -4.0240  -13.9290 N.am  162  VAL162     -0.1965
    137  CA       -19.2180   -3.9280  -13.1810 C.3   162  VAL162      0.1730
    138  C        -18.1530   -4.8700  -13.6630 C.2   162  VAL162      0.2656
    139  O        -16.9750   -4.6910  -13.3150 O.2   162  VAL162     -0.2711
    140  CB       -19.4220   -4.1710  -11.6240 C.3   162  VAL162      0.0290
    141  CG1      -20.3540   -3.0790  -10.9940 C.3   162  VAL162      0.0023
    142  CG2      -19.9060   -5.5860  -11.3030 C.3   162  VAL162      0.0023
    143  N        -18.5300   -5.8870  -14.4520 N.am  163  GLY163     -0.1716
    144  CA       -17.5300   -6.8880  -14.8760 C.2   163  GLY163      0.1480
    145  C        -17.9870   -7.8500  -15.9550 C.2   163  GLY163      0.2821
    146  O        -19.1720   -7.9570  -16.2660 O.2   163  GLY163     -0.2669
    147  N        -17.0430   -8.5920  -16.5120 N.am  164  GLY164     -0.1905
    148  CA       -17.3760   -9.6270  -17.5130 C.3   164  GLY164      0.2017
    149  C        -16.1580  -10.4730  -17.7500 C.2   164  GLY164      0.2639
    150  O        -15.0450  -10.0130  -17.5540 O.2   164  GLY164     -0.2714
    151  N        -16.3620  -11.7180  -18.1720 N.am  165  ASN165     -0.1958
    152  CA       -15.2540  -12.6590  -18.4260 C.3   165  ASN165      0.1819
    153  C        -15.0460  -12.9600  -19.9300 C.2   165  ASN165      0.2621
    154  O        -14.3170  -13.8970  -20.2760 O.2   165  ASN165     -0.2715
    155  CB       -15.5040  -13.9780  -17.6670 C.3   165  ASN165      0.1195
    156  CG       -16.8230  -14.6180  -18.0600 C.2   165  ASN165      0.2630
    157  OD1      -17.4020  -14.2840  -19.1010 O.2   165  ASN165     -0.2716
    158  ND2      -17.3160  -15.5220  -17.2340 N.am  165  ASN165     -0.0877
    159  N        -15.6790  -12.1810  -20.8190 N.am  166  GLY166     -0.1954
    160  CA       -15.6290  -12.4860  -22.2690 C.3   166  GLY166      0.1869
    161  C        -16.8850  -13.1970  -22.7720 C.2   166  GLY166      0.2309
    162  O        -17.2140  -13.1240  -23.9600 O.2   166  GLY166     -0.2863
    163  N        -21.6220   -9.0120  -15.6740 N.3   170  PHE170     -0.1241
    164  CA       -22.0120   -9.0130  -14.2770 C.3   170  PHE170      0.1605
    165  C        -22.3770   -7.5890  -13.8550 C.2   170  PHE170      0.2264
    166  O        -21.6350   -6.6370  -14.1440 O.2   170  PHE170     -0.2867
    167  CB       -20.8330   -9.5470  -13.4510 C.3   170  PHE170      0.0534
    168  CG       -20.4440  -10.9640  -13.8230 C.ar  170  PHE170     -0.0203
    169  CD1      -21.2130  -12.0340  -13.4130 C.ar  170  PHE170     -0.0042
    170  CD2      -19.3460  -11.2110  -14.6300 C.ar  170  PHE170     -0.0042
    171  CE1      -20.8800  -13.3420  -13.7550 C.ar  170  PHE170     -0.0003
    172  CE2      -19.0060  -12.5240  -14.9850 C.ar  170  PHE170     -0.0003
    173  CZ       -19.7660  -13.5900  -14.5250 C.ar  170  PHE170     -0.0000
@<TRIPOS>BOND
     1   110   108    1
     2   108   107    2
     3   108   109    1
     4   107   106    1
     5   106   105    1
     6   105   104    1
     7   104   101    1
     8   162   161    2
     9   114   113    2
    10   161   160    1
    11   101   100    1
    12   101   102    1
    13    93    94    1
    14   100    95   am
    15    94    95    1
    16    94    97    1
    17    95    96    2
    18   160   159    1
    19   113   112    1
    20   113   116   am
    21   102   111   am
    22   102   103    2
    23   111   112    1
    24   117   118    1
    25   117   116    1
    26    21    20   ar
    27   115   112    1
    28   119   118    2
    29    99    97    1
    30    97    98    1
    31    22    20   ar
    32   159   153   am
    33    20    19    1
    34   154   153    2
    35   153   152    1
    36    19    18    1
    37    18    15    1
    38   157   156    2
    39   152   151    1
    40   152   155    1
    41   151   149   am
    42   156   155    1
    43   156   158   am
    44   120   121    1
    45   135   134   ar
    46   135   133   ar
    47   134   132   ar
    48   149   150    2
    49   149   148    1
    50    15    14    1
    51    15    16    1
    52    17    16    2
    53    14    12   am
    54   148   147    1
    55   133   131   ar
    56    16    23   am
    57   132   131   ar
    58   131   130    1
    59    23    24    1
    60   123   122    2
    61    25    26    2
    62    25    24    1
    63   147   145   am
    64    11    12    1
    65    11    10    1
    66   121   122    1
    67   121   124    1
    68    12    13    2
    69   130   127    1
    70    24    27    1
    71   146   145    2
    72   145   144    1
    73   124   125    1
    74   163   164    1
    75     4     3    2
    76    10     3   am
    77   172   170   ar
    78   172   173   ar
    79   127   126    1
    80   127   128    1
    81   144   143    2
    82    27    28    1
    83     3     2    1
    84   170   168   ar
    85   173   171   ar
    86    28    30   ar
    87    28    29   ar
    88   143   138    1
    89    30    32   ar
    90   128   129    2
    91   128   136   am
    92   164   165    1
    93   164   167    1
    94    29    31   ar
    95   166   165    2
    96    32    33   ar
    97   136   137    1
    98    31    33   ar
    99   168   167    1
   100   168   169   ar
   101   171   169   ar
   102   138   139    2
   103   138   137    1
   104     2     1    1
   105     2     5    1
   106   137   140    1
   107     5     6    1
   108    39    40    1
   109    39    38    1
   110   140   142    1
   111   140   141    1
   112    87    86    1
   113    40    34    1
   114     7     6    1
   115     7     8    1
   116    90    89    1
   117    90    91    1
   118    71    70    1
   119    72    70    1
   120    38    35    1
   121    89    83   am
   122    55    52    1
   123    52    51    1
   124    52    53    1
   125    70    69    1
   126    86    88    1
   127    86    85    1
   128    34    35    1
   129     8     9    1
   130    76    75    2
   131    44    43    2
   132    91    92    2
   133    54    53    2
   134    83    82    1
   135    83    84    2
   136    51    43   am
   137    35    36    1
   138    82    85    1
   139    82    81    1
   140    43    42    1
   141    45    42    1
   142    45    46    1
   143    37    36    2
   144    69    66    1
   145    75    81   am
   146    75    74    1
   147    64    62   ar
   148    42    41    1
   149    61    62    1
   150    61    60    1
   151    62    63   ar
   152    46    48   ar
   153    46    47   ar
   154    66    67    1
   155    66    65    1
   156    73    74    1
   157    73    67   am
   158    79    78    2
   159    77    74    1
   160    77    78    1
   161    78    80   am
   162    48    50   ar
   163    67    68    2
   164    59    58    2
   165    47    49   ar
   166    60    57    1
   167    50    49   ar
   168    58    57    1
   169    57    56    1
