@<TRIPOS>MOLECULE
tmp/3zvbA00.pdb
 173 169 0 0 0
SMALL
GASTEIGER

@<TRIPOS>ATOM
      1  N          0.8090  -11.6170  -15.6450 N.3    22  LYS22      -0.1231
      2  CA        -0.3680  -10.9940  -15.0820 C.3    22  LYS22       0.1693
      3  C         -0.5780  -11.4260  -13.6630 C.2    22  LYS22       0.2593
      4  O         -1.3500  -10.8100  -12.9730 O.2    22  LYS22      -0.2718
      5  CB        -1.6010  -11.3370  -15.8860 C.3    22  LYS22       0.0285
      6  CG        -1.6960  -10.6320  -17.1960 C.3    22  LYS22       0.0035
      7  CD        -1.3670   -9.1830  -17.1450 C.3    22  LYS22       0.0206
      8  CE        -1.6340   -8.5660  -18.5360 C.3    22  LYS22       0.1093
      9  NZ        -1.0480   -7.2040  -18.7120 N.3    22  LYS22      -0.1314
     10  N          0.0750  -12.5020  -13.2380 N.am   23  GLY23      -0.1942
     11  CA        -0.2130  -13.0830  -11.9480 C.3    23  GLY23       0.2014
     12  C         -0.5350  -14.5570  -12.0450 C.2    23  GLY23       0.2639
     13  O         -0.2900  -15.1780  -13.0810 O.2    23  GLY23      -0.2714
     14  N         -1.0570  -15.1030  -10.9450 N.am   24  GLU24      -0.1963
     15  CA        -1.3480  -16.5250  -10.7830 C.3    24  GLU24       0.1733
     16  C         -2.7960  -16.7670  -11.1010 C.2    24  GLU24       0.2616
     17  O         -3.6240  -15.8690  -10.8720 O.2    24  GLU24      -0.2715
     18  CB        -1.1540  -16.9600   -9.3170 C.3    24  GLU24       0.0429
     19  CG         0.2710  -17.0830   -8.8860 C.3    24  GLU24       0.1163
     20  CD         0.4670  -18.0780   -7.7760 C.2    24  GLU24       0.3649
     21  OE1       -0.4910  -18.3550   -7.0150 O.co2  24  GLU24      -0.2457
     22  OE2        1.5970  -18.5890   -7.6520 O.co2  24  GLU24      -0.2457
     23  N         -3.1040  -17.9890  -11.5770 N.am   25  PHE25      -0.1974
     24  CA        -4.4480  -18.3640  -12.0230 C.3    25  PHE25       0.1639
     25  C         -4.6230  -19.8200  -11.8240 C.2    25  PHE25       0.2290
     26  O         -3.6960  -20.6000  -12.0700 O.2    25  PHE25      -0.2864
     27  CB        -4.6180  -18.1010  -13.5100 C.3    25  PHE25       0.0560
     28  CG        -4.5640  -16.6420  -13.8790 C.ar   25  PHE25      -0.0200
     29  CD1       -5.7260  -15.8790  -13.9050 C.ar   25  PHE25      -0.0042
     30  CD2       -3.3430  -16.0310  -14.2120 C.ar   25  PHE25      -0.0042
     31  CE1       -5.6680  -14.5190  -14.2600 C.ar   25  PHE25      -0.0003
     32  CE2       -3.2680  -14.6650  -14.5560 C.ar   25  PHE25      -0.0003
     33  CZ        -4.4220  -13.9060  -14.5730 C.ar   25  PHE25      -0.0000
     34  N         -7.8530  -18.1090  -18.3940 N.3    38  PRO38      -0.2116
     35  CA        -8.5700  -16.9840  -18.9920 C.3    38  PRO38       0.1372
     36  C         -7.7090  -16.1730  -19.9290 C.2    38  PRO38       0.2244
     37  O         -6.5580  -15.9080  -19.6290 O.2    38  PRO38      -0.2868
     38  CB        -8.9950  -16.1300  -17.7790 C.3    38  PRO38       0.0268
     39  CG        -9.0600  -17.0560  -16.7030 C.3    38  PRO38       0.0207
     40  CD        -7.9360  -18.0470  -16.9320 C.3    38  PRO38       0.0892
     41  N         -7.3850  -13.1520  -20.3730 N.3    40  HIS40      -0.1226
     42  CA        -6.7630  -11.9550  -19.8070 C.3    40  HIS40       0.1752
     43  C         -5.5580  -12.2080  -18.8930 C.2    40  HIS40       0.2595
     44  O         -4.8930  -11.2740  -18.4540 O.2    40  HIS40      -0.2718
     45  CB        -7.8020  -10.9520  -19.2690 C.3    40  HIS40       0.0759
     46  CG        -8.3490  -10.0540  -20.3490 C.ar   40  HIS40       0.0818
     47  ND1       -9.0950  -10.5360  -21.4170 N.ar   40  HIS40      -0.2268
     48  CD2       -8.1990   -8.7200  -20.5650 C.ar   40  HIS40       0.1154
     49  CE1       -9.3980   -9.5340  -22.2240 C.ar   40  HIS40       0.1986
     50  NE2       -8.8710   -8.4220  -21.7290 N.ar   40  HIS40      -0.2212
     51  N         -5.2490  -13.4890  -18.6760 N.am   41  ALA41      -0.1980
     52  CA        -3.9310  -13.8920  -18.1820 C.3    41  ALA41       0.1597
     53  C         -2.7810  -13.5070  -19.1310 C.2    41  ALA41       0.2287
     54  O         -1.6450  -13.5000  -18.6920 O.2    41  ALA41      -0.2864
     55  CB        -3.8970  -15.3800  -17.8630 C.3    41  ALA41       0.0319
     56  N        -13.0860  -15.3300  -23.8450 N.3    71  GLU71      -0.1245
     57  CA       -12.2800  -15.2770  -22.6160 C.3    71  GLU71       0.1567
     58  C        -11.6480  -16.5990  -22.1940 C.2    71  GLU71       0.2260
     59  O        -11.0470  -16.6690  -21.1220 O.2    71  GLU71      -0.2867
     60  CB       -13.0600  -14.6240  -21.4630 C.3    71  GLU71       0.0388
     61  CG       -12.2290  -14.1280  -20.2620 C.3    71  GLU71       0.1160
     62  CD       -10.9950  -13.2530  -20.6080 C.2    71  GLU71       0.3649
     63  OE1      -10.9990  -12.4680  -21.6510 O.co2  71  GLU71      -0.2457
     64  OE2      -10.0210  -13.3520  -19.7880 O.co2  71  GLU71      -0.2457
     65  N        -21.3310   -9.9150  -21.5550 N.3   125  LEU125     -0.1231
     66  CA       -20.7400   -9.2180  -20.4300 C.3   125  LEU125      0.1693
     67  C        -19.6270   -8.2560  -20.8870 C.2   125  LEU125      0.2592
     68  O        -18.7480   -8.6350  -21.6330 O.2   125  LEU125     -0.2718
     69  CB       -20.1620  -10.2470  -19.4710 C.3   125  LEU125      0.0284
     70  CG       -19.2090   -9.6790  -18.4270 C.3   125  LEU125      0.0019
     71  CD1      -20.0110   -8.9340  -17.3490 C.3   125  LEU125      0.0001
     72  CD2      -18.3720  -10.8040  -17.8460 C.3   125  LEU125      0.0001
     73  N        -19.6510   -7.0170  -20.4450 N.am  126  ASN126     -0.1960
     74  CA       -18.5210   -6.1600  -20.6870 C.3   126  ASN126      0.1819
     75  C        -17.4330   -6.4030  -19.6430 C.2   126  ASN126      0.2621
     76  O        -17.5470   -5.9900  -18.4750 O.2   126  ASN126     -0.2715
     77  CB       -18.9230   -4.6890  -20.7310 C.3   126  ASN126      0.1195
     78  CG       -17.8540   -3.8240  -21.4210 C.2   126  ASN126      0.2630
     79  OD1      -16.7270   -3.6470  -20.9030 O.2   126  ASN126     -0.2716
     80  ND2      -18.1950   -3.3010  -22.6050 N.am  126  ASN126     -0.0877
     81  N        -16.3740   -7.0640  -20.0650 N.am  127  LEU127     -0.1963
     82  CA       -15.3210   -7.4400  -19.1430 C.3   127  LEU127      0.1728
     83  C        -14.3430   -6.2900  -18.9070 C.2   127  LEU127      0.2616
     84  O        -13.1280   -6.4920  -18.7930 O.2   127  LEU127     -0.2715
     85  CB       -14.6010   -8.6980  -19.6280 C.3   127  LEU127      0.0311
     86  CG       -14.0000   -9.5530  -18.5160 C.3   127  LEU127      0.0022
     87  CD1      -15.0430  -10.4350  -17.8890 C.3   127  LEU127      0.0001
     88  CD2      -12.8100  -10.3540  -19.0150 C.3   127  LEU127      0.0001
     89  N        -14.8860   -5.0760  -18.7950 N.am  128  GLY128     -0.1955
     90  CA       -14.0710   -3.8770  -18.5960 C.3   128  GLY128      0.1869
     91  C        -13.3970   -3.5590  -19.9190 C.2   128  GLY128      0.2309
     92  O        -12.1950   -3.8120  -20.0850 O.2   128  GLY128     -0.2863
     93  N        -17.5090  -12.8740   -5.7660 N.3   142  THR142     -0.1203
     94  CA       -16.2240  -13.4880   -6.0720 C.3   142  THR142      0.1994
     95  C        -15.1310  -12.4220   -6.1170 C.2   142  THR142      0.2618
     96  O        -15.4320  -11.2300   -6.3290 O.2   142  THR142     -0.2717
     97  CB       -16.2630  -14.2430   -7.4150 C.3   142  THR142      0.1784
     98  OG1      -16.5530  -13.3060   -8.4620 O.3   142  THR142     -0.2211
     99  CG2      -17.2790  -15.3480   -7.3770 C.3   142  THR142      0.0376
    100  N        -13.8710  -12.8530   -5.9400 N.am  143  ARG143     -0.1965
    101  CA       -12.7520  -11.9070   -5.7380 C.3   143  ARG143      0.1729
    102  C        -11.5980  -12.1250   -6.7410 C.2   143  ARG143      0.2616
    103  O        -11.4620  -13.2140   -7.3560 O.2   143  ARG143     -0.2715
    104  CB       -12.2110  -11.9790   -4.2710 C.3   143  ARG143      0.0348
    105  CG       -13.2590  -12.1470   -3.1420 C.3   143  ARG143      0.0492
    106  CD       -14.0400  -10.8490   -2.8920 C.3   143  ARG143      0.2205
    107  NE       -15.0980  -10.9260   -1.8610 N.pl3 143  ARG143     -0.0865
    108  CZ       -16.1480  -10.0930   -1.7540 C.cat 143  ARG143      0.5346
    109  NH1      -16.3620   -9.0990   -2.6230 N.pl3 143  ARG143      0.1354
    110  NH2      -17.0160  -10.2570   -0.7740 N.pl3 143  ARG143      0.1354
    111  N        -10.7560  -11.1050   -6.9030 N.am  144  ALA144     -0.1963
    112  CA        -9.4560  -11.3000   -7.5530 C.3   144  ALA144      0.1728
    113  C         -8.7470  -12.4460   -6.8290 C.2   144  ALA144      0.2616
    114  O         -8.8380  -12.5490   -5.5670 O.2   144  ALA144     -0.2715
    115  CB        -8.6270  -10.0410   -7.4310 C.3   144  ALA144      0.0334
    116  N         -8.0370  -13.2920   -7.5830 N.am  145  GLY145     -0.1955
    117  CA        -7.4200  -14.4560   -6.9640 C.3   145  GLY145      0.1869
    118  C         -8.2090  -15.6710   -7.3730 C.2   145  GLY145      0.2309
    119  O         -7.6700  -16.7670   -7.4940 O.2   145  GLY145     -0.2863
    120  N         -9.7920  -16.0000  -10.4020 N.3   147  CYS147     -0.1235
    121  CA        -9.8110  -16.2450  -11.8390 C.3   147  CYS147      0.1677
    122  C         -9.1410  -17.5650  -12.2130 C.2   147  CYS147      0.2270
    123  O         -8.1120  -17.9590  -11.6250 O.2   147  CYS147     -0.2867
    124  CB        -9.3040  -15.0820  -12.6620 C.3   147  CYS147      0.0956
    125  SG       -10.5560  -13.7930  -12.7670 S.3   147  CYS147     -0.0801
    126  N        -13.7250  -19.4440  -13.9620 N.3   161  HIS161     -0.1226
    127  CA       -14.1100  -18.1150  -13.4480 C.3   161  HIS161      0.1752
    128  C        -13.3100  -17.0650  -14.1400 C.2   161  HIS161      0.2596
    129  O        -12.0910  -17.2580  -14.2940 O.2   161  HIS161     -0.2718
    130  CB       -13.8030  -18.0050  -11.9600 C.3   161  HIS161      0.0759
    131  CG       -14.2520  -16.7210  -11.3720 C.ar  161  HIS161      0.0818
    132  ND1      -15.5630  -16.5010  -11.0130 N.ar  161  HIS161     -0.2268
    133  CD2      -13.5890  -15.5640  -11.1270 C.ar  161  HIS161      0.1154
    134  CE1      -15.6930  -15.2610  -10.5710 C.ar  161  HIS161      0.1986
    135  NE2      -14.5090  -14.6750  -10.6140 N.ar  161  HIS161     -0.2212
    136  N        -13.9540  -15.9560  -14.5210 N.am  162  VAL162     -0.1965
    137  CA       -13.2360  -14.8820  -15.2580 C.3   162  VAL162      0.1730
    138  C        -13.5200  -13.4610  -14.8220 C.2   162  VAL162      0.2656
    139  O        -12.8260  -12.5700  -15.2660 O.2   162  VAL162     -0.2711
    140  CB       -13.3800  -14.9730  -16.8370 C.3   162  VAL162      0.0290
    141  CG1      -12.9580  -16.3360  -17.3610 C.3   162  VAL162      0.0023
    142  CG2      -14.7970  -14.6980  -17.2850 C.3   162  VAL162      0.0023
    143  N        -14.5200  -13.2380  -13.9600 N.am  163  GLY163     -0.1716
    144  CA       -14.9010  -11.8650  -13.4980 C.2   163  GLY163      0.1480
    145  C        -16.0300  -11.8140  -12.4710 C.2   163  GLY163      0.2821
    146  O        -16.6730  -12.8210  -12.1680 O.2   163  GLY163     -0.2669
    147  N        -16.3010  -10.6190  -11.9590 N.am  164  GLY164     -0.1905
    148  CA       -17.1990  -10.4290  -10.8140 C.3   164  GLY164      0.2017
    149  C        -17.2170   -8.9370  -10.4870 C.2   164  GLY164      0.2639
    150  O        -16.2150   -8.2200  -10.7020 O.2   164  GLY164     -0.2714
    151  N        -18.3650   -8.4720   -9.9820 N.am  165  ASN165     -0.1958
    152  CA       -18.6940   -7.0360   -9.8460 C.3   165  ASN165      0.1819
    153  C        -18.8850   -6.6380   -8.3620 C.2   165  ASN165      0.2621
    154  O        -19.4120   -5.5500   -8.0370 O.2   165  ASN165     -0.2715
    155  CB       -19.9660   -6.6940  -10.6640 C.3   165  ASN165      0.1195
    156  CG       -21.1670   -7.5420  -10.2530 C.2   165  ASN165      0.2630
    157  OD1      -21.1130   -8.2780   -9.2440 O.2   165  ASN165     -0.2716
    158  ND2      -22.2550   -7.4650  -11.0270 N.am  165  ASN165     -0.0877
    159  N        -18.4660   -7.5220   -7.4620 N.am  166  GLY166     -0.1954
    160  CA       -18.6900   -7.3150   -6.0450 C.3   166  GLY166      0.1869
    161  C        -19.9170   -8.0680   -5.5630 C.2   166  GLY166      0.2309
    162  O        -20.0790   -8.2820   -4.3880 O.2   166  GLY166     -0.2863
    163  N        -18.7140  -14.3480  -12.6300 N.3   170  PHE170     -0.1241
    164  CA       -18.8090  -14.7010  -14.0240 C.3   170  PHE170      0.1605
    165  C        -17.7790  -15.6900  -14.5050 C.2   170  PHE170      0.2264
    166  O        -16.5610  -15.4790  -14.3460 O.2   170  PHE170     -0.2867
    167  CB       -18.6680  -13.4480  -14.8060 C.3   170  PHE170      0.0534
    168  CG       -19.7200  -12.4410  -14.4770 C.ar  170  PHE170     -0.0203
    169  CD1      -21.0430  -12.6730  -14.8070 C.ar  170  PHE170     -0.0042
    170  CD2      -19.3940  -11.2580  -13.8270 C.ar  170  PHE170     -0.0042
    171  CE1      -22.0030  -11.7420  -14.5130 C.ar  170  PHE170     -0.0003
    172  CE2      -20.3380  -10.3270  -13.5510 C.ar  170  PHE170     -0.0003
    173  CZ       -21.6390  -10.5530  -13.8970 C.ar  170  PHE170     -0.0000
@<TRIPOS>BOND
     1    56    57    1
     2    57    58    1
     3    57    60    1
     4    80    78   am
     5    49    50   ar
     6    49    47   ar
     7    58    59    2
     8    50    48   ar
     9    63    62   ar
    10    68    67    2
    11    65    66    1
    12    60    61    1
    13    78    79    2
    14    78    77    1
    15    47    46   ar
    16    67    73   am
    17    67    66    1
    18    77    74    1
    19    74    73    1
    20    74    75    1
    21    62    61    1
    22    62    64   ar
    23    48    46   ar
    24    66    69    1
    25    41    42    1
    26    46    45    1
    27    92    91    2
    28    81    75   am
    29    81    82    1
    30    36    37    2
    31    36    35    1
    32    91    90    1
    33    42    45    1
    34    42    43    1
    35    75    76    2
    36    85    82    1
    37    85    86    1
    38    69    70    1
    39    82    83    1
    40    53    54    2
    41    53    52    1
    42    88    86    1
    43    35    34    1
    44    35    38    1
    45    83    89   am
    46    83    84    2
    47    43    51   am
    48    43    44    2
    49    89    90    1
    50     9     8    1
    51    51    52    1
    52     8     7    1
    53    86    87    1
    54    70    72    1
    55    70    71    1
    56    34    40    1
    57    52    55    1
    58    38    39    1
    59   141   140    1
    60   142   140    1
    61     6     7    1
    62     6     5    1
    63    40    39    1
    64   140   137    1
    65     5     2    1
    66     1     2    1
    67   139   138    2
    68   137   138    1
    69   137   136    1
    70     2     3    1
    71   138   143    1
    72   169   171   ar
    73   169   168   ar
    74   167   168    1
    75   167   164    1
    76    33    32   ar
    77    33    31   ar
    78    32    30   ar
    79   136   128   am
    80   171   173   ar
    81   165   166    2
    82   165   164    1
    83   168   170   ar
    84   129   128    2
    85    31    29   ar
    86    30    28   ar
    87   128   127    1
    88   164   163    1
    89   126   127    1
    90   143   144    2
    91    29    28   ar
    92   173   172   ar
    93    28    27    1
    94   170   172   ar
    95     3    10   am
    96     3     4    2
    97    27    24    1
    98   144   145    1
    99   127   130    1
   100    10    11    1
   101    13    12    2
   102   125   124    1
   103   124   121    1
   104   145   146    2
   105   145   147   am
   106   122   121    1
   107   122   123    2
   108    26    25    2
   109    12    11    1
   110    12    14   am
   111    24    25    1
   112    24    23    1
   113   130   131    1
   114   147   148    1
   115   121   120    1
   116    23    16   am
   117   131   133   ar
   118   131   132   ar
   119   133   135   ar
   120    16    17    2
   121    16    15    1
   122   158   156   am
   123   132   134   ar
   124    14    15    1
   125   148   149    1
   126    15    18    1
   127   150   149    2
   128   155   156    1
   129   155   152    1
   130   135   134   ar
   131   149   151   am
   132   156   157    2
   133   151   152    1
   134   152   153    1
   135    18    19    1
   136    19    20    1
   137    98    97    1
   138   153   154    2
   139   153   159   am
   140    20    22   ar
   141    20    21   ar
   142   116   117    1
   143   116   113   am
   144   112   115    1
   145   112   111    1
   146   112   113    1
   147   119   118    2
   148   159   160    1
   149    97    99    1
   150    97    94    1
   151   118   117    1
   152   103   102    2
   153   111   102   am
   154   113   114    2
   155   102   101    1
   156    96    95    2
   157    95    94    1
   158    95   100   am
   159    94    93    1
   160   160   161    1
   161   100   101    1
   162   101   104    1
   163   161   162    2
   164   104   105    1
   165   105   106    1
   166   106   107    1
   167   109   108    1
   168   107   108    2
   169   108   110    1
