@<TRIPOS>MOLECULE
tmp/3zvcA00.pdb
 160 155 0 0 0
SMALL
GASTEIGER

@<TRIPOS>ATOM
      1  N        -10.3690    5.2730   12.6190 N.3    22  LYS22      -0.1245
      2  CA        -9.2730    5.9560   13.3160 C.3    22  LYS22       0.1561
      3  C         -9.6470    6.4410   14.7170 C.2    22  LYS22       0.2260
      4  O         -8.8000    6.9510   15.4280 O.2    22  LYS22      -0.2867
      5  CB        -8.7400    7.1580   12.4990 C.3    22  LYS22       0.0271
      6  CG        -8.1330    6.8240   11.1400 C.3    22  LYS22       0.0035
      7  CD        -6.9920    5.8620   11.2490 C.3    22  LYS22       0.0206
      8  CE        -6.1670    5.8970    9.9660 C.3    22  LYS22       0.1093
      9  NZ        -5.8060    4.5190    9.5260 N.3    22  LYS22      -0.1314
     10  N        -14.0440   11.7820   16.6270 N.3    25  PHE25      -0.1241
     11  CA       -13.7260   13.1440   16.2300 C.3    25  PHE25       0.1605
     12  C        -14.9590   13.9430   16.5170 C.2    25  PHE25       0.2264
     13  O        -16.0940   13.4690   16.2860 O.2    25  PHE25      -0.2867
     14  CB       -13.3890   13.2070   14.7110 C.3    25  PHE25       0.0534
     15  CG       -12.1790   12.3990   14.3430 C.ar   25  PHE25      -0.0203
     16  CD1      -12.2900   11.0220   14.1140 C.ar   25  PHE25      -0.0042
     17  CD2      -10.9090   12.9900   14.2820 C.ar   25  PHE25      -0.0042
     18  CE1      -11.1720   10.2440   13.8190 C.ar   25  PHE25      -0.0003
     19  CE2       -9.7840   12.2250   13.9600 C.ar   25  PHE25      -0.0003
     20  CZ        -9.9230   10.8280   13.7270 C.ar   25  PHE25      -0.0000
     21  N        -11.7930   15.9580    9.8620 N.3    38  PRO38      -0.2116
     22  CA       -10.4200   15.9880    9.3160 C.3    38  PRO38       0.1372
     23  C        -10.1930   14.8340    8.3640 C.2    38  PRO38       0.2244
     24  O        -10.6410   13.7130    8.6450 O.2    38  PRO38      -0.2868
     25  CB        -9.5250   15.8320   10.5480 C.3    38  PRO38       0.0268
     26  CG       -10.3720   16.3840   11.6970 C.3    38  PRO38       0.0207
     27  CD       -11.8060   16.0260   11.3440 C.3    38  PRO38       0.0892
     28  N         -7.6570   13.0500    7.8100 N.3    40  HIS40      -0.1226
     29  CA        -6.9300   11.9420    8.3650 C.3    40  HIS40       0.1752
     30  C         -7.7590   11.0100    9.2620 C.2    40  HIS40       0.2595
     31  O         -7.2910    9.9650    9.6650 O.2    40  HIS40      -0.2718
     32  CB        -5.5480   12.4060    8.8850 C.3    40  HIS40       0.0759
     33  CG        -4.5880   12.5670    7.7460 C.ar   40  HIS40       0.0818
     34  ND1       -4.6730   13.6280    6.8570 N.ar   40  HIS40      -0.2268
     35  CD2       -3.6890   11.7010    7.2090 C.ar   40  HIS40       0.1154
     36  CE1       -3.8000   13.4550    5.8790 C.ar   40  HIS40       0.1986
     37  NE2       -3.1820   12.2980    6.0730 N.ar   40  HIS40      -0.2212
     38  N         -9.0230   11.3700    9.4890 N.am   41  ALA41      -0.1980
     39  CA       -10.0050   10.4330   10.0650 C.3    41  ALA41       0.1597
     40  C        -10.3030    9.2230    9.1650 C.2    41  ALA41       0.2287
     41  O        -10.8310    8.2220    9.6600 O.2    41  ALA41      -0.2864
     42  CB       -11.2790   11.1360   10.3930 C.3    41  ALA41       0.0319
     43  N         -6.8660   19.1640    4.4430 N.3    71  GLU71      -0.1245
     44  CA        -7.2030   18.4190    5.6830 C.3    71  GLU71       0.1567
     45  C         -8.6960   18.4690    6.0810 C.2    71  GLU71       0.2260
     46  O         -9.0950   17.8920    7.1090 O.2    71  GLU71      -0.2867
     47  CB        -6.2470   18.7720    6.8490 C.3    71  GLU71       0.0388
     48  CG        -6.4000   17.8350    8.1090 C.3    71  GLU71       0.1160
     49  CD        -6.0550   16.3720    7.8030 C.2    71  GLU71       0.3649
     50  OE1       -5.4020   16.1220    6.7430 O.co2  71  GLU71      -0.2457
     51  OE2       -6.4340   15.4860    8.6140 O.co2  71  GLU71      -0.2457
     52  N          1.9720   23.5440    6.7190 N.3   125  LEU125     -0.1231
     53  CA         2.2760   22.6930    7.8510 C.3   125  LEU125      0.1693
     54  C          2.5960   21.2890    7.3570 C.2   125  LEU125      0.2592
     55  O          1.8710   20.7420    6.5390 O.2   125  LEU125     -0.2718
     56  CB         1.0710   22.6210    8.8200 C.3   125  LEU125      0.0284
     57  CG         1.2500   21.8210   10.1090 C.3   125  LEU125      0.0019
     58  CD1        2.2350   22.5580   11.0040 C.3   125  LEU125      0.0001
     59  CD2       -0.0790   21.5740   10.8660 C.3   125  LEU125      0.0001
     60  N          3.6900   20.7160    7.8460 N.am  126  ASN126     -0.1960
     61  CA         3.9600   19.3190    7.6500 C.3   126  ASN126      0.1819
     62  C          3.1610   18.5560    8.7160 C.2   126  ASN126      0.2621
     63  O          3.5450   18.5060    9.8840 O.2   126  ASN126     -0.2715
     64  CB         5.4750   19.0280    7.7260 C.3   126  ASN126      0.1195
     65  CG         5.8070   17.5880    7.3750 C.2   126  ASN126      0.2630
     66  OD1        4.9160   16.7930    7.0690 O.2   126  ASN126     -0.2716
     67  ND2        7.0930   17.2400    7.4100 N.am  126  ASN126     -0.0877
     68  N          2.0220   18.0000    8.3240 N.am  127  LEU127     -0.1963
     69  CA         1.0980   17.4250    9.3000 C.3   127  LEU127      0.1728
     70  C          1.2590   15.9260    9.3120 C.2   127  LEU127      0.2616
     71  O          0.7590   15.2440    8.4210 O.2   127  LEU127     -0.2715
     72  CB        -0.3660   17.8030    9.0070 C.3   127  LEU127      0.0311
     73  CG        -1.4630   17.2270    9.9220 C.3   127  LEU127      0.0022
     74  CD1       -1.3210   17.7520   11.3670 C.3   127  LEU127      0.0001
     75  CD2       -2.8630   17.5280    9.4020 C.3   127  LEU127      0.0001
     76  N          1.9620   15.4290   10.3330 N.am  128  GLY128     -0.1955
     77  CA         2.2620   14.0110   10.4740 C.3   128  GLY128      0.1869
     78  C          2.8820   13.4700    9.2040 C.2   128  GLY128      0.2309
     79  O          2.5190   12.3880    8.7540 O.2   128  GLY128     -0.2863
     80  N         -2.5860   21.6980   22.5540 N.3   142  THR142     -0.1203
     81  CA        -3.7200   20.8340   22.2620 C.3   142  THR142      0.1994
     82  C         -3.3070   19.3710   22.2630 C.2   142  THR142      0.2618
     83  O         -2.1320   19.0560   22.1170 O.2   142  THR142     -0.2717
     84  CB        -4.3540   21.2320   20.8960 C.3   142  THR142      0.1784
     85  OG1       -3.3290   21.2210   19.9020 O.3   142  THR142     -0.2211
     86  CG2       -4.9350   22.6600   20.9670 C.3   142  THR142      0.0376
     87  N         -4.2730   18.4700   22.4070 N.am  143  ARG143     -0.1965
     88  CA        -3.9810   17.0520   22.6360 C.3   143  ARG143      0.1729
     89  C         -4.7690   16.1440   21.7030 C.2   143  ARG143      0.2616
     90  O         -5.7570   16.5690   21.0870 O.2   143  ARG143     -0.2715
     91  CB        -4.2710   16.6490   24.1230 C.3   143  ARG143      0.0348
     92  CG        -3.7920   17.6710   25.2280 C.3   143  ARG143      0.0492
     93  CD        -2.2500   17.7790   25.3850 C.3   143  ARG143      0.2205
     94  NE        -1.7150   18.6740   26.4610 N.pl3 143  ARG143     -0.0865
     95  CZ        -0.4340   19.0860   26.4950 C.cat 143  ARG143      0.5346
     96  NH1        0.4280   18.7200   25.5180 N.pl3 143  ARG143      0.1354
     97  NH2        0.0160   19.8610   27.4820 N.pl3 143  ARG143      0.1354
     98  N         -4.3200   14.8940   21.5980 N.am  144  ALA144     -0.1963
     99  CA        -5.0970   13.8320   20.9760 C.3   144  ALA144      0.1728
    100  C         -6.4670   13.8370   21.6250 C.2   144  ALA144      0.2616
    101  O         -6.5800   14.0540   22.8540 O.2   144  ALA144     -0.2715
    102  CB        -4.4230   12.4710   21.1850 C.3   144  ALA144      0.0334
    103  N         -7.5110   13.6430   20.8250 N.am  145  GLY145     -0.1955
    104  CA        -8.8510   13.6470   21.3690 C.3   145  GLY145      0.1869
    105  C         -9.5850   14.9200   20.9690 C.2   145  GLY145      0.2309
    106  O        -10.7990   15.0050   21.0890 O.2   145  GLY145     -0.2863
    107  N         -9.1910   16.4850   17.8460 N.3   147  CYS147     -0.1235
    108  CA        -9.3620   16.6370   16.3890 C.3   147  CYS147      0.1677
    109  C        -10.8440   16.7690   16.0160 C.2   147  CYS147      0.2270
    110  O        -11.7330   16.0880   16.6010 O.2   147  CYS147     -0.2867
    111  CB        -8.6060   15.5460   15.6090 C.3   147  CYS147      0.0956
    112  SG        -6.8830   15.9830   15.4730 S.3   147  CYS147     -0.0801
    113  N        -10.0500   21.6510   14.4120 N.3   161  HIS161     -0.1226
    114  CA        -8.6990   21.3120   14.9250 C.3   161  HIS161      0.1752
    115  C         -8.1700   20.0560   14.2480 C.2   161  HIS161      0.2596
    116  O         -8.9100   19.0790   14.1060 O.2   161  HIS161     -0.2718
    117  CB        -8.7370   21.0600   16.4440 C.3   161  HIS161      0.0759
    118  CG        -7.3880   20.7860   17.0190 C.ar  161  HIS161      0.0818
    119  ND1       -6.4850   21.7940   17.2900 N.ar  161  HIS161     -0.2268
    120  CD2       -6.7620   19.6210   17.3230 C.ar  161  HIS161      0.1154
    121  CE1       -5.3660   21.2590   17.7590 C.ar  161  HIS161      0.1986
    122  NE2       -5.5100   19.9410   17.7860 N.ar  161  HIS161     -0.2212
    123  N         -6.8960   20.0620   13.8440 N.am  162  VAL162     -0.1965
    124  CA        -6.3660   18.8970   13.1310 C.3   162  VAL162      0.1730
    125  C         -5.0200   18.4130   13.6290 C.2   162  VAL162      0.2656
    126  O         -4.5970   17.2960   13.2950 O.2   162  VAL162     -0.2711
    127  CB        -6.2740   19.1600   11.5800 C.3   162  VAL162      0.0290
    128  CG1       -7.6590   19.4630   10.9990 C.3   162  VAL162      0.0023
    129  CG2       -5.3350   20.3350   11.2610 C.3   162  VAL162      0.0023
    130  N         -4.3280   19.2280   14.4330 N.am  163  GLY163     -0.1716
    131  CA        -2.9300   18.8860   14.7780 C.2   163  GLY163      0.1480
    132  C         -2.3140   19.7270   15.8920 C.2   163  GLY163      0.2821
    133  O         -2.8600   20.7470   16.2790 O.2   163  GLY163     -0.2669
    134  N         -1.1700   19.2900   16.3970 N.am  164  GLY164     -0.1905
    135  CA        -0.4740   20.0160   17.4700 C.3   164  GLY164      0.2017
    136  C          0.8920   19.3990   17.6590 C.2   164  GLY164      0.2639
    137  O          1.0850   18.2050   17.3790 O.2   164  GLY164     -0.2714
    138  N          1.8360   20.2060   18.1380 N.am  165  ASN165     -0.1958
    139  CA         3.2200   19.7560   18.3080 C.3   165  ASN165      0.1819
    140  C          3.6600   19.7280   19.7860 C.2   165  ASN165      0.2621
    141  O          4.8580   19.6200   20.0830 O.2   165  ASN165     -0.2715
    142  CB         4.1730   20.6510   17.4900 C.3   165  ASN165      0.1195
    143  CG         4.1410   22.1160   17.9510 C.2   165  ASN165      0.2630
    144  OD1        3.6650   22.4360   19.0490 O.2   165  ASN165     -0.2716
    145  ND2        4.6230   23.0110   17.0970 N.am  165  ASN165     -0.0877
    146  N          2.6930   19.8550   20.6930 N.am  166  GLY166     -0.1954
    147  CA         2.9600   19.8970   22.1300 C.3   166  GLY166      0.1869
    148  C          2.9240   21.3030   22.7140 C.2   166  GLY166      0.2309
    149  O          2.6530   21.4590   23.8930 O.2   166  GLY166     -0.2863
    150  N         -3.1850   23.4500   15.6940 N.3   170  PHE170     -0.1241
    151  CA        -3.3900   23.8030   14.2880 C.3   170  PHE170      0.1605
    152  C         -4.7970   23.4270   13.8540 C.2   170  PHE170      0.2264
    153  O         -5.2610   22.3290   14.1670 O.2   170  PHE170     -0.2867
    154  CB        -2.3640   23.0390   13.4420 C.3   170  PHE170      0.0534
    155  CG        -0.9390   23.3910   13.7900 C.ar  170  PHE170     -0.0203
    156  CD1       -0.4150   24.6310   13.4310 C.ar  170  PHE170     -0.0042
    157  CD2       -0.1460   22.5170   14.5280 C.ar  170  PHE170     -0.0042
    158  CE1        0.8830   24.9680   13.7690 C.ar  170  PHE170     -0.0003
    159  CE2        1.1600   22.8570   14.8820 C.ar  170  PHE170     -0.0003
    160  CZ         1.6770   24.0800   14.4870 C.ar  170  PHE170     -0.0000
@<TRIPOS>BOND
     1    43    44    1
     2    44    45    1
     3    44    47    1
     4    36    37   ar
     5    36    34   ar
     6    37    35   ar
     7    45    46    2
     8    55    54    2
     9    52    53    1
    10    50    49   ar
    11    47    48    1
    12    34    33   ar
    13    66    65    2
    14    35    33   ar
    15    54    60   am
    16    54    53    1
    17    65    67   am
    18    65    64    1
    19    61    64    1
    20    61    60    1
    21    61    62    1
    22    33    32    1
    23    49    48    1
    24    49    51   ar
    25    28    29    1
    26    53    56    1
    27    68    62   am
    28    68    69    1
    29    23    24    2
    30    23    22    1
    31    29    32    1
    32    29    30    1
    33    71    70    2
    34    62    63    2
    35    79    78    2
    36    56    57    1
    37    72    69    1
    38    72    73    1
    39    40    41    2
    40    40    39    1
    41    78    77    1
    42    30    38   am
    43    30    31    2
    44    69    70    1
    45    70    76   am
    46    22    21    1
    47    22    25    1
    48    75    73    1
    49    38    39    1
    50     9     8    1
    51    21    27    1
    52    73    74    1
    53     8     7    1
    54    39    42    1
    55    57    59    1
    56    57    58    1
    57    76    77    1
    58    25    26    1
    59   128   127    1
    60     6     7    1
    61     6     5    1
    62   129   127    1
    63    27    26    1
    64   127   124    1
    65     5     2    1
    66     1     2    1
    67   124   125    1
    68   124   123    1
    69   126   125    2
    70     2     3    1
    71   156   158   ar
    72   156   155   ar
    73   154   155    1
    74   154   151    1
    75   125   130    1
    76    20    18   ar
    77    20    19   ar
    78   158   160   ar
    79   155   157   ar
    80    18    16   ar
    81   123   115   am
    82   152   153    2
    83   152   151    1
    84    19    17   ar
    85   116   115    2
    86    16    15   ar
    87   115   114    1
    88    17    15   ar
    89   151   150    1
    90    15    14    1
    91   113   114    1
    92   130   131    2
    93   160   159   ar
    94   157   159   ar
    95    14    11    1
    96     3     4    2
    97   131   132    1
    98   114   117    1
    99   112   111    1
   100   111   108    1
   101   132   133    2
   102   132   134   am
   103   109   108    1
   104   109   110    2
   105    11    12    1
   106    11    10    1
   107    13    12    2
   108   108   107    1
   109   134   135    1
   110   117   118    1
   111   118   119   ar
   112   118   120   ar
   113   145   143   am
   114   119   121   ar
   115   120   122   ar
   116   137   136    2
   117   135   136    1
   118   142   143    1
   119   142   139    1
   120   136   138   am
   121   121   122   ar
   122   143   144    2
   123   138   139    1
   124   139   140    1
   125   140   141    2
   126   140   146   am
   127    85    84    1
   128   146   147    1
   129   103   104    1
   130   103   100   am
   131    84    86    1
   132    84    81    1
   133   105   106    2
   134   105   104    1
   135    99   102    1
   136    99    98    1
   137    99   100    1
   138    90    89    2
   139    98    89   am
   140   100   101    2
   141    89    88    1
   142    83    82    2
   143   147   148    1
   144    81    82    1
   145    81    80    1
   146    82    87   am
   147    87    88    1
   148    88    91    1
   149   148   149    2
   150    91    92    1
   151    92    93    1
   152    93    94    1
   153    96    95    1
   154    94    95    2
   155    95    97    1
