@<TRIPOS>MOLECULE
tmp/3zvdA00.pdb
 160 155 0 0 0
SMALL
GASTEIGER

@<TRIPOS>ATOM
      1  N        -10.3910    5.1810   12.7440 N.3    22  LYS22      -0.1245
      2  CA        -9.2520    5.8610   13.3720 C.3    22  LYS22       0.1561
      3  C         -9.5910    6.3530   14.7720 C.2    22  LYS22       0.2260
      4  O         -8.7180    6.7710   15.5110 O.2    22  LYS22      -0.2867
      5  CB        -8.7310    7.0210   12.5100 C.3    22  LYS22       0.0271
      6  CG        -8.2390    6.5790   11.1100 C.3    22  LYS22       0.0035
      7  CD        -7.0130    5.7210   11.2200 C.3    22  LYS22       0.0206
      8  CE        -6.5010    5.2950    9.8460 C.3    22  LYS22       0.1093
      9  NZ        -5.2930    4.4460    9.9990 N.3    22  LYS22      -0.1314
     10  N        -13.9950   11.6290   16.7020 N.3    25  PHE25      -0.1241
     11  CA       -13.7140   12.9870   16.2730 C.3    25  PHE25       0.1605
     12  C        -14.9470   13.7660   16.5610 C.2    25  PHE25       0.2264
     13  O        -16.0600   13.2540   16.4080 O.2    25  PHE25      -0.2867
     14  CB       -13.3960   13.0400   14.7590 C.3    25  PHE25       0.0534
     15  CG       -12.1510   12.2640   14.3980 C.ar   25  PHE25      -0.0203
     16  CD1      -12.2110   10.8850   14.2060 C.ar   25  PHE25      -0.0042
     17  CD2      -10.9220   12.9000   14.2940 C.ar   25  PHE25      -0.0042
     18  CE1      -11.0640   10.1320   13.9290 C.ar   25  PHE25      -0.0003
     19  CE2       -9.7610   12.1630   13.9740 C.ar   25  PHE25      -0.0003
     20  CZ        -9.8470   10.7600   13.8000 C.ar   25  PHE25      -0.0000
     21  N        -11.7380   15.8470    9.9000 N.3    38  PRO38      -0.2116
     22  CA       -10.3990   15.8690    9.3310 C.3    38  PRO38       0.1372
     23  C        -10.2030   14.7030    8.3790 C.2    38  PRO38       0.2244
     24  O        -10.6400   13.5800    8.6740 O.2    38  PRO38      -0.2868
     25  CB        -9.4790   15.7020   10.5480 C.3    38  PRO38       0.0268
     26  CG       -10.2880   16.2670   11.7130 C.3    38  PRO38       0.0207
     27  CD       -11.7420   15.9970   11.3750 C.3    38  PRO38       0.0892
     28  N         -7.6260   12.9320    7.8560 N.3    40  HIS40      -0.1226
     29  CA        -6.9120   11.8140    8.4210 C.3    40  HIS40       0.1752
     30  C         -7.7480   10.9000    9.3200 C.2    40  HIS40       0.2595
     31  O         -7.2880    9.8630    9.7380 O.2    40  HIS40      -0.2718
     32  CB        -5.5020   12.2130    8.8990 C.3    40  HIS40       0.0759
     33  CG        -4.5480   12.2950    7.7320 C.ar   40  HIS40       0.0818
     34  ND1       -4.5710   13.3460    6.8310 N.ar   40  HIS40      -0.2268
     35  CD2       -3.6880   11.3780    7.2130 C.ar   40  HIS40       0.1154
     36  CE1       -3.7190   13.1070    5.8480 C.ar   40  HIS40       0.1986
     37  NE2       -3.1710   11.9180    6.0530 N.ar   40  HIS40      -0.2212
     38  N         -9.0270   11.2520    9.4970 N.am   41  ALA41      -0.1980
     39  CA        -9.9830   10.3250   10.0830 C.3    41  ALA41       0.1597
     40  C        -10.3020    9.1100    9.1780 C.2    41  ALA41       0.2287
     41  O        -10.8590    8.1220    9.6860 O.2    41  ALA41      -0.2864
     42  CB       -11.2780   11.0500   10.5270 C.3    41  ALA41       0.0319
     43  N         -6.8020   19.0020    4.4760 N.3    71  GLU71      -0.1245
     44  CA        -7.1380   18.2600    5.7200 C.3    71  GLU71       0.1567
     45  C         -8.6130   18.3350    6.1370 C.2    71  GLU71       0.2260
     46  O         -9.0020   17.8340    7.2140 O.2    71  GLU71      -0.2867
     47  CB        -6.1850   18.6510    6.8760 C.3    71  GLU71       0.0388
     48  CG        -6.2700   17.7310    8.1370 C.3    71  GLU71       0.1160
     49  CD        -5.9980   16.2540    7.8480 C.2    71  GLU71       0.3649
     50  OE1       -5.3120   15.9370    6.8100 O.co2  71  GLU71      -0.2457
     51  OE2       -6.4900   15.4050    8.6500 O.co2  71  GLU71      -0.2457
     52  N          1.9840   23.5030    6.7070 N.3   125  LEU125     -0.1231
     53  CA         2.2840   22.6410    7.8250 C.3   125  LEU125      0.1693
     54  C          2.5970   21.2430    7.3010 C.2   125  LEU125      0.2592
     55  O          1.9170   20.7410    6.4150 O.2   125  LEU125     -0.2718
     56  CB         1.1080   22.5800    8.8060 C.3   125  LEU125      0.0284
     57  CG         1.2600   21.6240    9.9880 C.3   125  LEU125      0.0019
     58  CD1        2.4070   22.1020   10.8690 C.3   125  LEU125      0.0001
     59  CD2       -0.0550   21.4720   10.7930 C.3   125  LEU125      0.0001
     60  N          3.6400   20.6360    7.8430 N.am  126  ASN126     -0.1960
     61  CA         3.9380   19.2550    7.6010 C.3   126  ASN126      0.1819
     62  C          3.1870   18.4260    8.6610 C.2   126  ASN126      0.2621
     63  O          3.6120   18.3170    9.8170 O.2   126  ASN126     -0.2715
     64  CB         5.4570   19.0170    7.6660 C.3   126  ASN126      0.1195
     65  CG         5.8460   17.6310    7.1650 C.2   126  ASN126      0.2630
     66  OD1        5.3210   17.1630    6.1540 O.2   126  ASN126     -0.2716
     67  ND2        6.7690   16.9750    7.8600 N.am  126  ASN126     -0.0877
     68  N          2.0550   17.8640    8.2680 N.am  127  LEU127     -0.1963
     69  CA         1.1710   17.2590    9.2360 C.3   127  LEU127      0.1728
     70  C          1.3580   15.7700    9.2670 C.2   127  LEU127      0.2616
     71  O          0.8320   15.0360    8.4050 O.2   127  LEU127     -0.2715
     72  CB        -0.2870   17.6310    8.9620 C.3   127  LEU127      0.0311
     73  CG        -1.3240   17.1520    9.9860 C.3   127  LEU127      0.0022
     74  CD1       -1.0720   17.7990   11.3520 C.3   127  LEU127      0.0001
     75  CD2       -2.7150   17.4530    9.5080 C.3   127  LEU127      0.0001
     76  N          2.1160   15.3230   10.2690 N.am  128  GLY128     -0.1955
     77  CA         2.4210   13.8950   10.4290 C.3   128  GLY128      0.1869
     78  C          2.9780   13.3340    9.1330 C.2   128  GLY128      0.2309
     79  O          2.5700   12.2420    8.6980 O.2   128  GLY128     -0.2863
     80  N         -2.5680   21.5660   22.5650 N.3   142  THR142     -0.1203
     81  CA        -3.6860   20.7100   22.2210 C.3   142  THR142      0.1994
     82  C         -3.2470   19.2880   22.2260 C.2   142  THR142      0.2618
     83  O         -2.0500   19.0090   22.1150 O.2   142  THR142     -0.2717
     84  CB        -4.2610   21.0690   20.8350 C.3   142  THR142      0.1784
     85  OG1       -3.2250   20.9360   19.8440 O.3   142  THR142     -0.2211
     86  CG2       -4.7850   22.4880   20.8470 C.3   142  THR142      0.0376
     87  N         -4.2140   18.3800   22.3420 N.am  143  ARG143     -0.1965
     88  CA        -3.9290   16.9690   22.5930 C.3   143  ARG143      0.1729
     89  C         -4.7210   16.0580   21.6550 C.2   143  ARG143      0.2616
     90  O         -5.6780   16.4990   20.9970 O.2   143  ARG143     -0.2715
     91  CB        -4.2390   16.5810   24.0890 C.3   143  ARG143      0.0348
     92  CG        -3.7950   17.5810   25.2610 C.3   143  ARG143      0.0492
     93  CD        -2.2910   17.9230   25.2520 C.3   143  ARG143      0.2205
     94  NE        -1.7170   18.6410   26.4280 N.pl3 143  ARG143     -0.0865
     95  CZ        -0.4350   19.0410   26.4850 C.cat 143  ARG143      0.5346
     96  NH1        0.4020   18.8290   25.4440 N.pl3 143  ARG143      0.1354
     97  NH2        0.0470   19.6470   27.5620 N.pl3 143  ARG143      0.1354
     98  N         -4.3210   14.7820   21.6050 N.am  144  ALA144     -0.1963
     99  CA        -5.0970   13.7390   20.9360 C.3   144  ALA144      0.1728
    100  C         -6.4690   13.7100   21.5790 C.2   144  ALA144      0.2616
    101  O         -6.5950   13.8580   22.8100 O.2   144  ALA144     -0.2715
    102  CB        -4.4060   12.3380   21.0990 C.3   144  ALA144      0.0334
    103  N         -7.5060   13.5070   20.7790 N.am  145  GLY145     -0.1955
    104  CA        -8.8430   13.4790   21.3470 C.3   145  GLY145      0.1869
    105  C         -9.5290   14.7800   21.0150 C.2   145  GLY145      0.2309
    106  O        -10.7260   14.8860   21.1420 O.2   145  GLY145     -0.2863
    107  N         -9.1100   16.3860   17.9150 N.3   147  CYS147     -0.1235
    108  CA        -9.3100   16.5040   16.4580 C.3   147  CYS147      0.1677
    109  C        -10.7840   16.6190   16.0670 C.2   147  CYS147      0.2270
    110  O        -11.6610   15.9540   16.6480 O.2   147  CYS147     -0.2867
    111  CB        -8.5790   15.4240   15.6800 C.3   147  CYS147      0.0956
    112  SG        -6.8480   15.8490   15.4960 S.3   147  CYS147     -0.0801
    113  N         -9.9810   21.5140   14.3770 N.3   161  HIS161     -0.1226
    114  CA        -8.6590   21.1460   14.8740 C.3   161  HIS161      0.1752
    115  C         -8.1200   19.9030   14.2160 C.2   161  HIS161      0.2596
    116  O         -8.8460   18.9290   14.0830 O.2   161  HIS161     -0.2718
    117  CB        -8.7290   20.9170   16.3940 C.3   161  HIS161      0.0759
    118  CG        -7.4060   20.6830   16.9910 C.ar  161  HIS161      0.0818
    119  ND1       -6.5440   21.7180   17.2790 N.ar  161  HIS161     -0.2268
    120  CD2       -6.7520   19.5370   17.3010 C.ar  161  HIS161      0.1154
    121  CE1       -5.4170   21.2170   17.7520 C.ar  161  HIS161      0.1986
    122  NE2       -5.5240   19.9030   17.7920 N.ar  161  HIS161     -0.2212
    123  N         -6.8320   19.8910   13.8530 N.am  162  VAL162     -0.1965
    124  CA        -6.3130   18.7430   13.1090 C.3   162  VAL162      0.1730
    125  C         -4.9590   18.2690   13.5590 C.2   162  VAL162      0.2656
    126  O         -4.5230   17.1660   13.1540 O.2   162  VAL162     -0.2711
    127  CB        -6.2650   19.0310   11.5540 C.3   162  VAL162      0.0290
    128  CG1       -7.6950   19.3610   10.9910 C.3   162  VAL162      0.0023
    129  CG2       -5.2440   20.1330   11.1830 C.3   162  VAL162      0.0023
    130  N         -4.2700   19.0780   14.3880 N.am  163  GLY163     -0.1716
    131  CA        -2.8910   18.7410   14.7710 C.2   163  GLY163      0.1480
    132  C         -2.2800   19.5960   15.8830 C.2   163  GLY163      0.2821
    133  O         -2.8020   20.6370   16.2830 O.2   163  GLY163     -0.2669
    134  N         -1.1200   19.1760   16.3520 N.am  164  GLY164     -0.1905
    135  CA        -0.3650   19.9740   17.3190 C.3   164  GLY164      0.2017
    136  C          0.9640   19.3100   17.5640 C.2   164  GLY164      0.2639
    137  O          1.1270   18.1230   17.2780 O.2   164  GLY164     -0.2714
    138  N          1.9220   20.0680   18.0820 N.am  165  ASN165     -0.1958
    139  CA         3.2910   19.5550   18.2910 C.3   165  ASN165      0.1819
    140  C          3.6780   19.5490   19.7870 C.2   165  ASN165      0.2621
    141  O          4.8650   19.5270   20.1230 O.2   165  ASN165     -0.2715
    142  CB         4.2830   20.4410   17.5240 C.3   165  ASN165      0.1195
    143  CG         4.1700   21.8900   17.9440 C.2   165  ASN165      0.2630
    144  OD1        3.6130   22.1870   19.0060 O.2   165  ASN165     -0.2716
    145  ND2        4.6470   22.8040   17.1090 N.am  165  ASN165     -0.0877
    146  N          2.6930   19.5940   20.6830 N.am  166  GLY166     -0.1954
    147  CA         2.9910   19.6890   22.1270 C.3   166  GLY166      0.1869
    148  C          2.9050   21.1140   22.6810 C.2   166  GLY166      0.2309
    149  O          2.5640   21.2920   23.8320 O.2   166  GLY166     -0.2863
    150  N         -3.1130   23.2690   15.6600 N.3   170  PHE170     -0.1241
    151  CA        -3.3300   23.6370   14.2780 C.3   170  PHE170      0.1605
    152  C         -4.7380   23.2380   13.8340 C.2   170  PHE170      0.2264
    153  O         -5.1960   22.1270   14.0920 O.2   170  PHE170     -0.2867
    154  CB        -2.3070   22.9260   13.4110 C.3   170  PHE170      0.0534
    155  CG        -0.8850   23.2550   13.7720 C.ar  170  PHE170     -0.0203
    156  CD1       -0.3290   24.4770   13.4170 C.ar  170  PHE170     -0.0042
    157  CD2       -0.1050   22.3420   14.4700 C.ar  170  PHE170     -0.0042
    158  CE1        0.9950   24.7770   13.7280 C.ar  170  PHE170     -0.0003
    159  CE2        1.2280   22.6380   14.7960 C.ar  170  PHE170     -0.0003
    160  CZ         1.7710   23.8600   14.4190 C.ar  170  PHE170     -0.0000
@<TRIPOS>BOND
     1    43    44    1
     2    44    45    1
     3    44    47    1
     4    36    37   ar
     5    36    34   ar
     6    37    35   ar
     7    45    46    2
     8    66    65    2
     9    55    54    2
    10    52    53    1
    11    50    49   ar
    12    34    33   ar
    13    47    48    1
    14    65    64    1
    15    65    67   am
    16    35    33   ar
    17    54    53    1
    18    54    60   am
    19    61    64    1
    20    61    60    1
    21    61    62    1
    22    33    32    1
    23    53    56    1
    24    49    48    1
    25    49    51   ar
    26    28    29    1
    27    68    62   am
    28    68    69    1
    29    23    24    2
    30    23    22    1
    31    71    70    2
    32    29    32    1
    33    29    30    1
    34    62    63    2
    35    79    78    2
    36    56    57    1
    37    72    69    1
    38    72    73    1
    39    78    77    1
    40    40    41    2
    41    40    39    1
    42    69    70    1
    43    70    76   am
    44    30    38   am
    45    30    31    2
    46    22    21    1
    47    22    25    1
    48    38    39    1
    49    75    73    1
    50     8     9    1
    51     8     7    1
    52    21    27    1
    53    73    74    1
    54    57    59    1
    55    57    58    1
    56    39    42    1
    57    76    77    1
    58    25    26    1
    59   128   127    1
    60     6     7    1
    61     6     5    1
    62   129   127    1
    63    27    26    1
    64   127   124    1
    65     5     2    1
    66     1     2    1
    67   124   125    1
    68   124   123    1
    69   126   125    2
    70     2     3    1
    71   154   155    1
    72   154   151    1
    73   156   158   ar
    74   156   155   ar
    75   125   130    1
    76   158   160   ar
    77   155   157   ar
    78    20    18   ar
    79    20    19   ar
    80   152   153    2
    81   152   151    1
    82   123   115   am
    83    18    16   ar
    84    19    17   ar
    85   116   115    2
    86    16    15   ar
    87   115   114    1
    88   151   150    1
    89    17    15   ar
    90   113   114    1
    91   130   131    2
    92    15    14    1
    93   160   159   ar
    94   157   159   ar
    95    14    11    1
    96   131   132    1
    97     3     4    2
    98   114   117    1
    99   112   111    1
   100   111   108    1
   101   132   133    2
   102   132   134   am
   103   109   108    1
   104   109   110    2
   105    11    12    1
   106    11    10    1
   107   134   135    1
   108   117   118    1
   109    13    12    2
   110   108   107    1
   111   118   119   ar
   112   118   120   ar
   113   145   143   am
   114   137   136    2
   115   119   121   ar
   116   120   122   ar
   117   135   136    1
   118   142   143    1
   119   142   139    1
   120   136   138   am
   121   121   122   ar
   122   143   144    2
   123   138   139    1
   124   139   140    1
   125   140   141    2
   126   140   146   am
   127    85    84    1
   128   146   147    1
   129   103   104    1
   130   103   100   am
   131    84    86    1
   132    84    81    1
   133    99   102    1
   134    99   100    1
   135    99    98    1
   136    90    89    2
   137   105   106    2
   138   105   104    1
   139   100   101    2
   140    98    89   am
   141    89    88    1
   142    83    82    2
   143   147   148    1
   144    81    82    1
   145    81    80    1
   146    82    87   am
   147    87    88    1
   148    88    91    1
   149   148   149    2
   150    91    92    1
   151    93    92    1
   152    93    94    1
   153    96    95    1
   154    94    95    2
   155    95    97    1
