@<TRIPOS>MOLECULE
tmp/3zveA00.pdb
 183 179 0 0 0
SMALL
GASTEIGER

@<TRIPOS>ATOM
      1  N        -10.3940    5.0760   12.6650 N.3    22  LYS22      -0.1245
      2  CA        -9.2870    5.7300   13.3390 C.3    22  LYS22       0.1561
      3  C         -9.6500    6.2530   14.7210 C.2    22  LYS22       0.2260
      4  O         -8.8050    6.8020   15.3930 O.2    22  LYS22      -0.2867
      5  CB        -8.6980    6.8820   12.4830 C.3    22  LYS22       0.0271
      6  CG        -8.2030    6.4760   11.0830 C.3    22  LYS22       0.0035
      7  CD        -7.0030    5.5390   11.1620 C.3    22  LYS22       0.0206
      8  CE        -6.2180    5.4860    9.8470 C.3    22  LYS22       0.1093
      9  NZ        -5.4410    4.2090    9.7360 N.3    22  LYS22      -0.1314
     10  N        -14.0240   11.5230   16.6970 N.3    25  PHE25      -0.1241
     11  CA       -13.7550   12.9070   16.2990 C.3    25  PHE25       0.1605
     12  C        -14.9800   13.7060   16.5760 C.2    25  PHE25       0.2264
     13  O        -16.1200   13.2630   16.3190 O.2    25  PHE25      -0.2867
     14  CB       -13.4190   13.0010   14.7770 C.3    25  PHE25       0.0534
     15  CG       -12.2140   12.2050   14.3860 C.ar   25  PHE25      -0.0203
     16  CD1      -12.3330   10.8470   14.0900 C.ar   25  PHE25      -0.0042
     17  CD2      -10.9350   12.7870   14.3440 C.ar   25  PHE25      -0.0042
     18  CE1      -11.2350   10.0870   13.7770 C.ar   25  PHE25      -0.0003
     19  CE2       -9.8030   12.0050   14.0040 C.ar   25  PHE25      -0.0003
     20  CZ        -9.9730   10.6280   13.7270 C.ar   25  PHE25      -0.0000
     21  N        -11.7860   15.6860    9.8300 N.3    38  PRO38      -0.2116
     22  CA       -10.4310   15.7260    9.2690 C.3    38  PRO38       0.1372
     23  C        -10.1800   14.5640    8.3200 C.2    38  PRO38       0.2244
     24  O        -10.6270   13.4200    8.5980 O.2    38  PRO38      -0.2868
     25  CB        -9.5230   15.6370   10.5110 C.3    38  PRO38       0.0268
     26  CG       -10.3850   16.2010   11.6280 C.3    38  PRO38       0.0207
     27  CD       -11.7770   15.7190   11.3110 C.3    38  PRO38       0.0892
     28  N         -7.5580   12.7970    7.7120 N.3    40  HIS40      -0.1226
     29  CA        -6.8430   11.6910    8.3510 C.3    40  HIS40       0.1752
     30  C         -7.7200   10.7870    9.2350 C.2    40  HIS40       0.2595
     31  O         -7.2170    9.7690    9.7270 O.2    40  HIS40      -0.2718
     32  CB        -5.6010   12.1660    9.1270 C.3    40  HIS40       0.0759
     33  CG        -4.4360   12.5330    8.2480 C.ar   40  HIS40       0.0818
     34  ND1       -4.5740   13.2520    7.0730 N.ar   40  HIS40      -0.2268
     35  CD2       -3.1050   12.3090    8.3960 C.ar   40  HIS40       0.1154
     36  CE1       -3.3840   13.4390    6.5300 C.ar   40  HIS40       0.1986
     37  NE2       -2.4730   12.8890    7.3200 N.ar   40  HIS40      -0.2212
     38  N         -9.0050   11.1240    9.3990 N.am   41  ALA41      -0.1980
     39  CA        -9.9510   10.2180   10.0600 C.3    41  ALA41       0.1597
     40  C        -10.2430    8.9960    9.1840 C.2    41  ALA41       0.2287
     41  O        -10.8020    8.0130    9.6790 O.2    41  ALA41      -0.2864
     42  CB       -11.2400   10.9090   10.3980 C.3    41  ALA41       0.0319
     43  N         -6.8860   18.8950    4.3970 N.3    71  GLU71      -0.1245
     44  CA        -7.2160   18.1760    5.6480 C.3    71  GLU71       0.1567
     45  C         -8.6950   18.2150    6.0350 C.2    71  GLU71       0.2260
     46  O         -9.0690   17.6770    7.0960 O.2    71  GLU71      -0.2867
     47  CB        -6.3110   18.6050    6.8270 C.3    71  GLU71       0.0388
     48  CG        -6.2280   17.6060    8.0630 C.3    71  GLU71       0.1160
     49  CD        -6.0780   16.1090    7.7080 C.2    71  GLU71       0.3649
     50  OE1       -5.4470   15.7790    6.6700 O.co2  71  GLU71      -0.2457
     51  OE2       -6.5750   15.2620    8.5130 O.co2  71  GLU71      -0.2457
     52  N         -1.3750   30.3880    9.2760 N.3   122  TYR122     -0.1241
     53  CA        -0.0620   29.7790    9.3240 C.3   122  TYR122      0.1605
     54  C          0.4210   29.3100    7.9480 C.2   122  TYR122      0.2264
     55  O          1.5930   29.4990    7.6040 O.2   122  TYR122     -0.2867
     56  CB        -0.1000   28.6160   10.3000 C.3   122  TYR122      0.0534
     57  CG         1.2100   27.9800   10.6490 C.ar  122  TYR122     -0.0201
     58  CD1        2.0050   28.5150   11.6600 C.ar  122  TYR122     -0.0009
     59  CD2        1.6240   26.7950   10.0350 C.ar  122  TYR122     -0.0009
     60  CE1        3.1850   27.9030   12.0360 C.ar  122  TYR122      0.0417
     61  CE2        2.8080   26.1660   10.4020 C.ar  122  TYR122      0.0417
     62  CZ         3.5860   26.7400   11.4040 C.ar  122  TYR122      0.1957
     63  OH         4.7580   26.1660   11.8000 O.3   122  TYR122     -0.2866
     64  N          1.5380   26.6060    5.3290 N.3   124  PHE124     -0.1227
     65  CA         2.0460   25.2440    5.1350 C.3   124  PHE124      0.1736
     66  C          2.3950   24.5790    6.4520 C.2   124  PHE124      0.2595
     67  O          3.0430   25.1850    7.3010 O.2   124  PHE124     -0.2718
     68  CB         3.2920   25.2250    4.2080 C.3   124  PHE124      0.0547
     69  CG         3.9980   23.8880    4.1690 C.ar  124  PHE124     -0.0202
     70  CD1        3.5800   22.8810    3.2880 C.ar  124  PHE124     -0.0042
     71  CD2        5.0720   23.6160    5.0260 C.ar  124  PHE124     -0.0042
     72  CE1        4.2350   21.6270    3.2640 C.ar  124  PHE124     -0.0003
     73  CE2        5.7210   22.3560    5.0060 C.ar  124  PHE124     -0.0003
     74  CZ         5.2980   21.3700    4.1220 C.ar  124  PHE124     -0.0000
     75  N          1.9890   23.3170    6.5850 N.am  125  LEU125     -0.1966
     76  CA         2.3450   22.4620    7.6990 C.3   125  LEU125      0.1728
     77  C          2.6370   21.0620    7.1580 C.2   125  LEU125      0.2616
     78  O          1.9280   20.5600    6.2930 O.2   125  LEU125     -0.2715
     79  CB         1.1810   22.4080    8.7130 C.3   125  LEU125      0.0311
     80  CG         1.2380   21.4240    9.8730 C.3   125  LEU125      0.0022
     81  CD1        2.3040   21.8840   10.8470 C.3   125  LEU125      0.0001
     82  CD2       -0.1440   21.2720   10.5560 C.3   125  LEU125      0.0001
     83  N          3.6960   20.4500    7.6430 N.am  126  ASN126     -0.1958
     84  CA         3.9160   19.0430    7.3980 C.3   126  ASN126      0.1819
     85  C          3.1630   18.2350    8.4570 C.2   126  ASN126      0.2621
     86  O          3.6450   18.0910    9.5790 O.2   126  ASN126     -0.2715
     87  CB         5.4160   18.7620    7.4760 C.3   126  ASN126      0.1195
     88  CG         5.7870   17.4300    6.8910 C.2   126  ASN126      0.2630
     89  OD1        4.9930   16.4830    6.8930 O.2   126  ASN126     -0.2716
     90  ND2        7.0150   17.3390    6.3810 N.am  126  ASN126     -0.0877
     91  N          1.9820   17.7290    8.1130 N.am  127  LEU127     -0.1963
     92  CA         1.1340   17.0080    9.0760 C.3   127  LEU127      0.1728
     93  C          1.3860   15.4910    9.0470 C.2   127  LEU127      0.2616
     94  O          0.8230   14.7650    8.2040 O.2   127  LEU127     -0.2715
     95  CB        -0.3520   17.3130    8.8510 C.3   127  LEU127      0.0311
     96  CG        -1.4020   16.7340    9.8100 C.3   127  LEU127      0.0022
     97  CD1       -1.2060   17.2190   11.2640 C.3   127  LEU127      0.0001
     98  CD2       -2.7770   17.0750    9.3430 C.3   127  LEU127      0.0001
     99  N          2.2260   15.0280    9.9840 N.am  128  GLY128     -0.1955
    100  CA         2.5430   13.6000   10.1230 C.3   128  GLY128      0.1869
    101  C          3.0400   13.0160    8.8200 C.2   128  GLY128      0.2309
    102  O          2.6320   11.9070    8.4280 O.2   128  GLY128     -0.2863
    103  N         -2.5470   21.4410   22.5470 N.3   142  THR142     -0.1203
    104  CA        -3.6820   20.5840   22.2530 C.3   142  THR142      0.1994
    105  C         -3.2370   19.1510   22.2370 C.2   142  THR142      0.2618
    106  O         -2.0420   18.8510   22.0930 O.2   142  THR142     -0.2717
    107  CB        -4.3140   20.9720   20.8870 C.3   142  THR142      0.1784
    108  OG1       -3.2820   20.9950   19.9030 O.3   142  THR142     -0.2211
    109  CG2       -4.9250   22.3590   20.9650 C.3   142  THR142      0.0376
    110  N         -4.2060   18.2520   22.3810 N.am  143  ARG143     -0.1965
    111  CA        -3.9120   16.8460   22.6180 C.3   143  ARG143      0.1729
    112  C         -4.6990   15.9280   21.6980 C.2   143  ARG143      0.2616
    113  O         -5.7350   16.3150   21.1120 O.2   143  ARG143     -0.2715
    114  CB        -4.1970   16.4740   24.1200 C.3   143  ARG143      0.0348
    115  CG        -3.7150   17.5250   25.1740 C.3   143  ARG143      0.0492
    116  CD        -2.2130   17.4430   25.4940 C.3   143  ARG143      0.2205
    117  NE        -1.7020   18.4060   26.5030 N.pl3 143  ARG143     -0.0865
    118  CZ        -0.4500   18.8760   26.5070 C.cat 143  ARG143      0.5346
    119  NH1        0.4210   18.5170   25.5380 N.pl3 143  ARG143      0.1354
    120  NH2       -0.0390   19.7160   27.4610 N.pl3 143  ARG143      0.1354
    121  N         -4.2270   14.6860   21.5950 N.am  144  ALA144     -0.1963
    122  CA        -5.0310   13.6380   21.0070 C.3   144  ALA144      0.1728
    123  C         -6.3910   13.6570   21.7020 C.2   144  ALA144      0.2616
    124  O         -6.4880   13.9440   22.9250 O.2   144  ALA144     -0.2715
    125  CB        -4.3480   12.2660   21.1460 C.3   144  ALA144      0.0334
    126  N         -7.4330   13.3960   20.9130 N.am  145  GLY145     -0.1955
    127  CA        -8.8020   13.3970   21.3920 C.3   145  GLY145      0.1869
    128  C         -9.5120   14.7060   21.0220 C.2   145  GLY145      0.2309
    129  O        -10.7260   14.8310   21.1910 O.2   145  GLY145     -0.2863
    130  N         -9.1760   16.2460   17.9250 N.3   147  CYS147     -0.1235
    131  CA        -9.3360   16.4220   16.4640 C.3   147  CYS147      0.1677
    132  C        -10.7970   16.5130   16.0510 C.2   147  CYS147      0.2270
    133  O        -11.6800   15.8350   16.6090 O.2   147  CYS147     -0.2867
    134  CB        -8.5430   15.3930   15.6400 C.3   147  CYS147      0.0956
    135  SG        -6.8140   15.7230   15.4760 S.3   147  CYS147     -0.0801
    136  N        -10.0080   21.4220   14.3870 N.3   161  HIS161     -0.1226
    137  CA        -8.6990   21.0410   14.8790 C.3   161  HIS161      0.1752
    138  C         -8.1240   19.7850   14.2260 C.2   161  HIS161      0.2596
    139  O         -8.8120   18.7660   14.1330 O.2   161  HIS161     -0.2718
    140  CB        -8.7500   20.8140   16.4090 C.3   161  HIS161      0.0759
    141  CG        -7.4110   20.4980   16.9810 C.ar  161  HIS161      0.0818
    142  ND1       -6.4690   21.4730   17.2320 N.ar  161  HIS161     -0.2268
    143  CD2       -6.8290   19.3160   17.2970 C.ar  161  HIS161      0.1154
    144  CE1       -5.3640   20.9030   17.6820 C.ar  161  HIS161      0.1986
    145  NE2       -5.5600   19.5970   17.7440 N.ar  161  HIS161     -0.2212
    146  N         -6.8630   19.8290   13.7940 N.am  162  VAL162     -0.1965
    147  CA        -6.3090   18.6470   13.1080 C.3   162  VAL162      0.1730
    148  C         -4.9730   18.1420   13.5910 C.2   162  VAL162      0.2656
    149  O         -4.5500   17.0330   13.2340 O.2   162  VAL162     -0.2711
    150  CB        -6.2170   18.8460   11.5690 C.3   162  VAL162      0.0290
    151  CG1       -7.6180   19.0630   10.9510 C.3   162  VAL162      0.0023
    152  CG2       -5.2300   19.9840   11.2070 C.3   162  VAL162      0.0023
    153  N         -4.2770   18.9490   14.3890 N.am  163  GLY163     -0.1716
    154  CA        -2.9000   18.5990   14.7130 C.2   163  GLY163      0.1480
    155  C         -2.2590   19.4400   15.8000 C.2   163  GLY163      0.2821
    156  O         -2.7590   20.4900   16.1710 O.2   163  GLY163     -0.2669
    157  N         -1.1230   18.9620   16.2740 N.am  164  GLY164     -0.1905
    158  CA        -0.3630   19.6750   17.3020 C.3   164  GLY164      0.2017
    159  C          1.0090   19.0630   17.4670 C.2   164  GLY164      0.2639
    160  O          1.2630   17.9350   17.0210 O.2   164  GLY164     -0.2714
    161  N          1.8870   19.8300   18.1060 N.am  165  ASN165     -0.1958
    162  CA         3.2760   19.4300   18.3090 C.3   165  ASN165      0.1819
    163  C          3.6740   19.4420   19.7960 C.2   165  ASN165      0.2621
    164  O          4.8730   19.4590   20.1120 O.2   165  ASN165     -0.2715
    165  CB         4.2120   20.3520   17.4980 C.3   165  ASN165      0.1195
    166  CG         4.1410   21.8070   17.9490 C.2   165  ASN165      0.2630
    167  OD1        3.6730   22.1130   19.0610 O.2   165  ASN165     -0.2716
    168  ND2        4.5860   22.7140   17.0790 N.am  165  ASN165     -0.0877
    169  N          2.6820   19.4630   20.6920 N.am  166  GLY166     -0.1954
    170  CA         2.9270   19.5520   22.1440 C.3   166  GLY166      0.1869
    171  C          2.9200   20.9590   22.7310 C.2   166  GLY166      0.2309
    172  O          2.6890   21.1250   23.9220 O.2   166  GLY166     -0.2863
    173  N         -3.1520   23.1620   15.6050 N.3   170  PHE170     -0.1241
    174  CA        -3.3280   23.5430   14.2190 C.3   170  PHE170      0.1605
    175  C         -4.7230   23.1190   13.7820 C.2   170  PHE170      0.2264
    176  O         -5.1620   22.0090   14.1100 O.2   170  PHE170     -0.2867
    177  CB        -2.3290   22.7790   13.3490 C.3   170  PHE170      0.0534
    178  CG        -0.8940   23.0760   13.6750 C.ar  170  PHE170     -0.0203
    179  CD1       -0.3470   24.3290   13.3890 C.ar  170  PHE170     -0.0042
    180  CD2       -0.1030   22.1030   14.2670 C.ar  170  PHE170     -0.0042
    181  CE1        0.9980   24.6110   13.7010 C.ar  170  PHE170     -0.0003
    182  CE2        1.2360   22.3630   14.5990 C.ar  170  PHE170     -0.0003
    183  CZ         1.7900   23.6200   14.3230 C.ar  170  PHE170     -0.0000
@<TRIPOS>BOND
     1    72    70   ar
     2    72    74   ar
     3    70    69   ar
     4    74    73   ar
     5    69    68    1
     6    69    71   ar
     7    68    65    1
     8    43    44    1
     9    73    71   ar
    10    65    64    1
    11    65    66    1
    12    44    45    1
    13    44    47    1
    14    45    46    2
    15    78    77    2
    16    90    88   am
    17    66    75   am
    18    66    67    2
    19    36    34   ar
    20    36    37   ar
    21    75    76    1
    22    50    49   ar
    23    47    48    1
    24    88    89    2
    25    88    87    1
    26    34    33   ar
    27    77    83   am
    28    77    76    1
    29    37    35   ar
    30    84    87    1
    31    84    83    1
    32    84    85    1
    33    55    54    2
    34    76    79    1
    35    49    48    1
    36    49    51   ar
    37    28    29    1
    38    54    53    1
    39    91    85   am
    40    91    92    1
    41    94    93    2
    42    33    35   ar
    43    33    32    1
    44    23    24    2
    45    23    22    1
    46    29    32    1
    47    29    30    1
    48   102   101    2
    49    85    86    2
    50    79    80    1
    51   101   100    1
    52    95    92    1
    53    95    96    1
    54    93    92    1
    55    93    99   am
    56    40    41    2
    57    40    39    1
    58    30    38   am
    59    30    31    2
    60    22    21    1
    61    22    25    1
    62    52    53    1
    63    53    56    1
    64    98    96    1
    65    38    39    1
    66     9     8    1
    67    96    97    1
    68    21    27    1
    69     8     7    1
    70    80    82    1
    71    80    81    1
    72    99   100    1
    73    59    61   ar
    74    59    57   ar
    75    39    42    1
    76    56    57    1
    77    61    62   ar
    78    25    26    1
    79    57    58   ar
    80   151   150    1
    81     6     7    1
    82     6     5    1
    83   152   150    1
    84    27    26    1
    85    62    63    1
    86    62    60   ar
    87   150   147    1
    88    58    60   ar
    89     5     2    1
    90     1     2    1
    91   147   148    1
    92   147   146    1
    93   149   148    2
    94     2     3    1
    95   177   178    1
    96   177   174    1
    97   179   178   ar
    98   179   181   ar
    99   148   153    1
   100   178   180   ar
   101   181   183   ar
   102    20    18   ar
   103    20    19   ar
   104    18    16   ar
   105   175   176    2
   106   175   174    1
   107   146   138   am
   108    19    17   ar
   109    16    15   ar
   110   139   138    2
   111   174   173    1
   112   138   137    1
   113   180   182   ar
   114   183   182   ar
   115    17    15   ar
   116    15    14    1
   117   136   137    1
   118   153   154    2
   119   154   155    1
   120     3     4    2
   121    14    11    1
   122   137   140    1
   123   135   134    1
   124   134   131    1
   125   155   156    2
   126   155   157   am
   127   132   131    1
   128   132   133    2
   129   157   158    1
   130    11    12    1
   131    11    10    1
   132    13    12    2
   133   140   141    1
   134   131   130    1
   135   141   142   ar
   136   141   143   ar
   137   160   159    2
   138   168   166   am
   139   142   144   ar
   140   143   145   ar
   141   158   159    1
   142   159   161   am
   143   165   166    1
   144   165   162    1
   145   144   145   ar
   146   166   167    2
   147   161   162    1
   148   162   163    1
   149   163   164    2
   150   163   169   am
   151   108   107    1
   152   169   170    1
   153   107   109    1
   154   107   104    1
   155   126   127    1
   156   126   123   am
   157   122   125    1
   158   122   121    1
   159   122   123    1
   160   128   129    2
   161   128   127    1
   162   113   112    2
   163   121   112   am
   164   112   111    1
   165   123   124    2
   166   106   105    2
   167   170   171    1
   168   105   104    1
   169   105   110   am
   170   104   103    1
   171   110   111    1
   172   111   114    1
   173   171   172    2
   174   114   115    1
   175   115   116    1
   176   116   117    1
   177   119   118    1
   178   117   118    2
   179   118   120    1
