@<TRIPOS>MOLECULE
tmp/3zvfA00.pdb
 181 175 0 0 0
SMALL
GASTEIGER

@<TRIPOS>ATOM
      1  N         -9.3420    6.6550  -12.7740 N.3    22  LYS22      -0.1245
      2  CA        -9.3980    5.3200  -13.4010 C.3    22  LYS22       0.1561
      3  C         -9.9920    5.3100  -14.8240 C.2    22  LYS22       0.2260
      4  O         -9.9260    4.3080  -15.5210 O.2    22  LYS22      -0.2867
      5  CB       -10.2010    4.3530  -12.5150 C.3    22  LYS22       0.0271
      6  CG        -9.5040    3.8960  -11.2280 C.3    22  LYS22       0.0035
      7  CD        -8.0580    3.5090  -11.4570 C.3    22  LYS22       0.0206
      8  CE        -7.6550    2.4000  -10.4900 C.3    22  LYS22       0.1093
      9  NZ        -6.4330    2.7860   -9.7280 N.3    22  LYS22      -0.1314
     10  N        -16.8480    6.4860  -16.8610 N.3    25  PHE25      -0.1241
     11  CA       -17.8900    5.5510  -16.4520 C.3    25  PHE25       0.1605
     12  C        -19.2250    6.1770  -16.6770 C.2    25  PHE25       0.2264
     13  O        -19.4170    7.3710  -16.4100 O.2    25  PHE25      -0.2867
     14  CB       -17.7840    5.2310  -14.9540 C.3    25  PHE25       0.0534
     15  CG       -16.4710    4.6520  -14.5720 C.ar   25  PHE25      -0.0203
     16  CD1      -15.3720    5.4970  -14.2790 C.ar   25  PHE25      -0.0042
     17  CD2      -16.2970    3.2910  -14.5410 C.ar   25  PHE25      -0.0042
     18  CE1      -14.1210    4.9900  -13.9640 C.ar   25  PHE25      -0.0003
     19  CE2      -15.0410    2.7700  -14.2080 C.ar   25  PHE25      -0.0003
     20  CZ       -13.9450    3.6370  -13.9410 C.ar   25  PHE25      -0.0000
     21  N        -19.2610    2.3900   -9.9380 N.3    38  PRO38      -0.2116
     22  CA       -18.5950    1.2060   -9.4090 C.3    38  PRO38       0.1372
     23  C        -17.4730    1.6020   -8.4760 C.2    38  PRO38       0.2244
     24  O        -16.7010    2.5010   -8.7820 O.2    38  PRO38      -0.2868
     25  CB       -18.0110    0.5250  -10.6690 C.3    38  PRO38       0.0268
     26  CG       -18.8930    0.9710  -11.7590 C.3    38  PRO38       0.0207
     27  CD       -19.1780    2.4210  -11.4110 C.3    38  PRO38       0.0892
     28  N        -14.6990    0.2940   -8.0120 N.3    40  HIS40      -0.1226
     29  CA       -13.3480    0.2760   -8.5940 C.3    40  HIS40       0.1752
     30  C        -12.9600    1.4990   -9.4530 C.2    40  HIS40       0.2595
     31  O        -11.8410    1.5950   -9.8660 O.2    40  HIS40      -0.2718
     32  CB       -12.9260   -1.1130   -9.1180 C.3    40  HIS40       0.0759
     33  CG       -12.4520   -2.0100   -8.0010 C.ar   40  HIS40       0.0818
     34  ND1      -13.2620   -2.3430   -6.9220 N.ar   40  HIS40      -0.2268
     35  CD2      -11.2300   -2.5370   -7.7260 C.ar   40  HIS40       0.1154
     36  CE1      -12.5730   -3.0650   -6.0540 C.ar   40  HIS40       0.1986
     37  NE2      -11.3360   -3.1980   -6.5170 N.ar   40  HIS40      -0.2212
     38  N        -13.8880    2.4410   -9.6410 N.am   41  ALA41      -0.1980
     39  CA       -13.5820    3.7380  -10.2320 C.3    41  ALA41       0.1597
     40  C        -12.6320    4.5810   -9.3760 C.2    41  ALA41       0.2287
     41  O        -12.0130    5.4930   -9.8980 O.2    41  ALA41      -0.2864
     42  CB       -14.8380    4.4900  -10.5440 C.3    41  ALA41       0.0319
     43  N        -19.3710   -3.4230   -4.5930 N.3    71  GLU71      -0.1245
     44  CA       -18.9600   -2.7460   -5.8450 C.3    71  GLU71       0.1567
     45  C        -19.8390   -1.5300   -6.2390 C.2    71  GLU71       0.2260
     46  O        -19.7150   -0.9820   -7.3370 O.2    71  GLU71      -0.2867
     47  CB       -18.8500   -3.7610   -6.9830 C.3    71  GLU71       0.0388
     48  CG       -18.0520   -3.2920   -8.2220 C.3    71  GLU71       0.1160
     49  CD       -16.6430   -2.6930   -7.9170 C.2    71  GLU71       0.3649
     50  OE1      -15.9880   -3.1390   -6.9190 O.co2  71  GLU71      -0.2457
     51  OE2      -16.1970   -1.7700   -8.6860 O.co2  71  GLU71      -0.2457
     52  N        -26.8090  -13.8450   -9.1120 N.3   122  TYR122     -0.1241
     53  CA       -25.6600  -14.7450   -9.1740 C.3   122  TYR122      0.1605
     54  C        -24.8840  -14.9270   -7.8660 C.2   122  TYR122      0.2264
     55  O        -24.3690  -16.0220   -7.5920 O.2   122  TYR122     -0.2867
     56  CB       -24.7430  -14.1710  -10.2090 C.3   122  TYR122      0.0534
     57  CG       -23.5170  -14.9060  -10.5280 C.ar  122  TYR122     -0.0201
     58  CD1      -23.5280  -15.9260  -11.4590 C.ar  122  TYR122     -0.0009
     59  CD2      -22.3170  -14.5100   -9.9940 C.ar  122  TYR122     -0.0009
     60  CE1      -22.3490  -16.5640  -11.8160 C.ar  122  TYR122      0.0417
     61  CE2      -21.1440  -15.1260  -10.3310 C.ar  122  TYR122      0.0417
     62  CZ       -21.1650  -16.1410  -11.2370 C.ar  122  TYR122      0.1957
     63  OH       -19.9880  -16.7240  -11.5770 O.3   122  TYR122     -0.2866
     64  N        -18.7950  -13.3680   -6.4600 N.3   125  LEU125     -0.1231
     65  CA       -17.9370  -13.1240   -7.6120 C.3   125  LEU125      0.1693
     66  C        -16.5000  -12.7330   -7.1980 C.2   125  LEU125      0.2592
     67  O        -16.2810  -11.8180   -6.3950 O.2   125  LEU125     -0.2718
     68  CB       -18.5480  -12.0510   -8.5360 C.3   125  LEU125      0.0284
     69  CG       -17.7260  -11.7140   -9.7900 C.3   125  LEU125      0.0019
     70  CD1      -17.6780  -12.9290  -10.7300 C.3   125  LEU125      0.0001
     71  CD2      -18.2300  -10.4310  -10.5270 C.3   125  LEU125      0.0001
     72  N        -15.5160  -13.4020   -7.7630 N.am  126  ASN126     -0.1960
     73  CA       -14.1600  -12.9380   -7.5690 C.3   126  ASN126      0.1819
     74  C        -13.8570  -11.8600   -8.5950 C.2   126  ASN126      0.2621
     75  O        -13.4040  -12.1480   -9.6970 O.2   126  ASN126     -0.2715
     76  CB       -13.1650  -14.0880   -7.6660 C.3   126  ASN126      0.1195
     77  CG       -11.8560  -13.7360   -7.0650 C.2   126  ASN126      0.2630
     78  OD1      -11.0960  -12.9300   -7.6160 O.2   126  ASN126     -0.2716
     79  ND2      -11.5820  -14.3110   -5.8980 N.am  126  ASN126     -0.0877
     80  N        -14.1440  -10.6160   -8.2360 N.am  127  LEU127     -0.1963
     81  CA       -14.0300   -9.5270   -9.1930 C.3   127  LEU127      0.1728
     82  C        -12.6120   -8.9460   -9.2100 C.2   127  LEU127      0.2616
     83  O        -12.2600   -8.0860   -8.3730 O.2   127  LEU127     -0.2715
     84  CB       -15.1060   -8.4580   -8.9650 C.3   127  LEU127      0.0311
     85  CG       -15.0820   -7.2840   -9.9600 C.3   127  LEU127      0.0022
     86  CD1      -15.7070   -7.6650  -11.2880 C.3   127  LEU127      0.0001
     87  CD2      -15.7320   -6.0520   -9.3960 C.3   127  LEU127      0.0001
     88  N        -11.8210   -9.4240  -10.1850 N.am  128  GLY128     -0.1955
     89  CA       -10.4420   -9.0180  -10.3800 C.3   128  GLY128      0.1869
     90  C         -9.6910   -9.2350   -9.0740 C.2   128  GLY128      0.2309
     91  O         -8.9820   -8.3320   -8.6460 O.2   128  GLY128     -0.2863
     92  N        -19.5770   -8.5800  -22.3930 N.3   142  THR142     -0.1203
     93  CA       -19.4490   -7.1390  -22.1350 C.3   142  THR142      0.1994
     94  C        -17.9670   -6.7550  -22.1470 C.2   142  THR142      0.2618
     95  O        -17.1110   -7.6200  -22.0000 O.2   142  THR142     -0.2717
     96  CB       -20.1060   -6.7470  -20.8110 C.3   142  THR142      0.1784
     97  OG1      -19.5130   -7.5320  -19.7770 O.3   142  THR142     -0.2211
     98  CG2      -21.6060   -6.9900  -20.8560 C.3   142  THR142      0.0376
     99  N        -17.6630   -5.4700  -22.3480 N.am  143  ARG143     -0.1965
    100  CA       -16.2600   -5.0560  -22.5730 C.3   143  ARG143      0.1729
    101  C        -15.8690   -3.9290  -21.6210 C.2   143  ARG143      0.2616
    102  O        -16.7320   -3.3360  -20.9430 O.2   143  ARG143     -0.2715
    103  CB       -15.9980   -4.5920  -24.0640 C.3   143  ARG143      0.0348
    104  CG       -16.6790   -5.3450  -25.2930 C.3   143  ARG143      0.0492
    105  CD       -16.4420   -6.8730  -25.2380 C.3   143  ARG143      0.2205
    106  NE       -16.6640   -7.7030  -26.4440 N.pl3 143  ARG143     -0.0865
    107  CZ       -16.3230   -9.0030  -26.5010 C.cat 143  ARG143      0.5346
    108  NH1      -15.7590   -9.6190  -25.4380 N.pl3 143  ARG143      0.1354
    109  NH2      -16.5190   -9.7150  -27.6050 N.pl3 143  ARG143      0.1354
    110  N        -14.5740   -3.6190  -21.5760 N.am  144  ALA144     -0.1963
    111  CA       -14.1250   -2.3740  -20.9400 C.3   144  ALA144      0.1728
    112  C        -14.8410   -1.2060  -21.6370 C.2   144  ALA144      0.2616
    113  O        -15.1150   -1.2610  -22.8710 O.2   144  ALA144     -0.2715
    114  CB       -12.6270   -2.2240  -21.0460 C.3   144  ALA144      0.0334
    115  N        -15.1560   -0.1620  -20.8650 N.am  145  GLY145     -0.1955
    116  CA       -15.8340    1.0230  -21.4020 C.3   145  GLY145      0.1869
    117  C        -17.3150    0.9820  -21.0600 C.2   145  GLY145      0.2309
    118  O        -18.0080    1.9710  -21.2300 O.2   145  GLY145     -0.2863
    119  N        -18.4260   -0.2750  -17.8840 N.3   147  CYS147     -0.1235
    120  CA       -18.6200   -0.2380  -16.4410 C.3   147  CYS147      0.1677
    121  C        -19.4260    0.9820  -16.0500 C.2   147  CYS147      0.2270
    122  O        -19.2350    2.0480  -16.6070 O.2   147  CYS147     -0.2867
    123  CB       -17.3320   -0.3690  -15.6560 C.3   147  CYS147      0.0956
    124  SG       -16.7480   -2.0690  -15.6200 S.3   147  CYS147     -0.0801
    125  N        -23.3000   -1.8500  -14.4740 N.3   161  HIS161     -0.1226
    126  CA       -22.3500   -2.8450  -14.9430 C.3   161  HIS161      0.1752
    127  C        -20.9980   -2.7020  -14.2730 C.2   161  HIS161      0.2596
    128  O        -20.5060   -1.5940  -14.1540 O.2   161  HIS161     -0.2718
    129  CB       -22.1360   -2.7020  -16.4530 C.3   161  HIS161      0.0759
    130  CG       -21.2300   -3.7370  -16.9830 C.ar  161  HIS161      0.0818
    131  ND1      -21.6720   -5.0090  -17.2710 N.ar  161  HIS161     -0.2268
    132  CD2      -19.8880   -3.7440  -17.1810 C.ar  161  HIS161      0.1154
    133  CE1      -20.6430   -5.7590  -17.6440 C.ar  161  HIS161      0.1986
    134  NE2      -19.5450   -5.0180  -17.5960 N.ar  161  HIS161     -0.2212
    135  N        -20.3630   -3.8060  -13.8870 N.am  162  VAL162     -0.1966
    136  CA       -19.1090   -3.6820  -13.1200 C.3   162  VAL162      0.1727
    137  C        -18.0240   -4.6580  -13.5710 C.2   162  VAL162      0.2617
    138  O        -16.8610   -4.5060  -13.1980 O.2   162  VAL162     -0.2715
    139  CB       -19.3000   -3.8990  -11.5560 C.3   162  VAL162      0.0290
    140  CG1      -20.2280   -2.8800  -10.9430 C.3   162  VAL162      0.0023
    141  CG2      -19.7460   -5.3340  -11.2460 C.3   162  VAL162      0.0023
    142  N        -18.3950   -5.6840  -14.3380 N.am  163  GLY163     -0.1940
    143  CA       -17.4050   -6.7190  -14.6740 C.3   163  GLY163      0.2014
    144  C        -17.8890   -7.6660  -15.7510 C.2   163  GLY163      0.2639
    145  O        -19.0840   -7.7030  -16.1080 O.2   163  GLY163     -0.2714
    146  N        -16.9390   -8.4310  -16.2620 N.am  164  GLY164     -0.1939
    147  CA       -17.2160   -9.4590  -17.2410 C.3   164  GLY164      0.2014
    148  C        -15.9450  -10.2690  -17.4540 C.2   164  GLY164      0.2639
    149  O        -14.8360   -9.8420  -17.0390 O.2   164  GLY164     -0.2714
    150  N        -16.1130  -11.4250  -18.1140 N.am  165  ASN165     -0.1958
    151  CA       -14.9930  -12.3310  -18.4460 C.3   165  ASN165      0.1819
    152  C        -14.7920  -12.6630  -19.9740 C.2   165  ASN165      0.2621
    153  O        -14.0050  -13.5500  -20.3250 O.2   165  ASN165     -0.2715
    154  CB       -15.1230  -13.6270  -17.6270 C.3   165  ASN165      0.1195
    155  CG       -16.3980  -14.3680  -17.9340 C.2   165  ASN165      0.2630
    156  OD1      -17.0210  -14.1510  -18.9850 O.2   165  ASN165     -0.2716
    157  ND2      -16.8030  -15.2330  -17.0380 N.am  165  ASN165     -0.0877
    158  N        -15.4590  -11.9370  -20.8800 N.am  166  GLY166     -0.1954
    159  CA       -15.3950  -12.2800  -22.2940 C.3   166  GLY166      0.1869
    160  C        -16.6480  -13.0250  -22.7450 C.2   166  GLY166      0.2309
    161  O        -16.9970  -12.9620  -23.9130 O.2   166  GLY166     -0.2863
    162  N        -19.5530  -13.6420  -20.0400 N.3   168  GLN168     -0.1245
    163  CA       -20.6140  -13.0180  -19.2130 C.3   168  GLN168      0.1566
    164  C        -20.3020  -11.6280  -18.7400 C.2   168  GLN168      0.2260
    165  O        -19.1440  -11.2220  -18.6170 O.2   168  GLN168     -0.2867
    166  CB       -20.9610  -13.8690  -18.0170 C.3   168  GLN168      0.0367
    167  CG       -21.6060  -15.1740  -18.4100 C.3   168  GLN168      0.0905
    168  CD       -20.8180  -16.3010  -17.8810 C.2   168  GLN168      0.2608
    169  OE1      -19.7020  -16.5680  -18.3460 O.2   168  GLN168     -0.2717
    170  NE2      -21.3400  -16.9400  -16.8480 N.am  168  GLN168     -0.0878
    171  N        -21.4050   -8.8160  -15.5030 N.3   170  PHE170     -0.1241
    172  CA       -21.7910   -8.7310  -14.1170 C.3   170  PHE170      0.1605
    173  C        -22.1360   -7.2920  -13.7120 C.2   170  PHE170      0.2264
    174  O        -21.4020   -6.3580  -13.9930 O.2   170  PHE170     -0.2867
    175  CB       -20.6290   -9.2180  -13.3000 C.3   170  PHE170      0.0534
    176  CG       -20.1670  -10.5760  -13.7000 C.ar  170  PHE170     -0.0203
    177  CD1      -20.9480  -11.6930  -13.4170 C.ar  170  PHE170     -0.0042
    178  CD2      -18.9550  -10.7430  -14.3690 C.ar  170  PHE170     -0.0042
    179  CE1      -20.5250  -12.9720  -13.7950 C.ar  170  PHE170     -0.0003
    180  CE2      -18.5210  -12.0250  -14.7660 C.ar  170  PHE170     -0.0003
    181  CZ       -19.2870  -13.1390  -14.4700 C.ar  170  PHE170     -0.0000
@<TRIPOS>BOND
     1   109   107    1
     2   107   106    2
     3   107   108    1
     4   106   105    1
     5   104   105    1
     6   104   103    1
     7   103   100    1
     8   161   160    2
     9   113   112    2
    10   160   159    1
    11   100    99    1
    12   100   101    1
    13    92    93    1
    14    99    94   am
    15   159   158    1
    16    94    93    1
    17    94    95    2
    18    93    96    1
    19   112   111    1
    20   112   115   am
    21   101   110   am
    22   101   102    2
    23   110   111    1
    24   116   117    1
    25   116   115    1
    26   118   117    2
    27   114   111    1
    28   158   152   am
    29    98    96    1
    30    96    97    1
    31   153   152    2
    32   162   163    1
    33   152   151    1
    34   163   164    1
    35   163   166    1
    36   156   155    2
    37   164   165    2
    38   151   150    1
    39   151   154    1
    40   167   166    1
    41   167   168    1
    42   169   168    2
    43   150   148   am
    44   155   154    1
    45   155   157   am
    46   119   120    1
    47   168   170   am
    48   133   134   ar
    49   133   131   ar
    50   134   132   ar
    51   148   147    1
    52   148   149    2
    53   131   130   ar
    54   147   146    1
    55   132   130   ar
    56   130   129    1
    57    10    11    1
    58    12    11    1
    59    12    13    2
    60   122   121    2
    61   129   126    1
    62    11    14    1
    63   120   121    1
    64   120   123    1
    65   146   144   am
    66   145   144    2
    67   144   143    1
    68   123   124    1
    69     4     3    2
    70   171   172    1
    71    14    15    1
    72   126   125    1
    73   126   127    1
    74     3     2    1
    75   180   181   ar
    76   180   178   ar
    77   143   142    1
    78    15    17   ar
    79    15    16   ar
    80    17    19   ar
    81   181   179   ar
    82   178   176   ar
    83   142   137   am
    84    16    18   ar
    85   127   128    2
    86   127   135   am
    87    19    20   ar
    88   172   173    1
    89   172   175    1
    90   174   173    2
    91    18    20   ar
    92   135   136    1
    93   179   177   ar
    94   176   177   ar
    95   176   175    1
    96   137   138    2
    97   137   136    1
    98     2     1    1
    99     2     5    1
   100   136   139    1
   101     5     6    1
   102    60    58   ar
   103    60    62   ar
   104    26    27    1
   105    26    25    1
   106    63    62    1
   107   139   141    1
   108   139   140    1
   109    58    57   ar
   110     7     6    1
   111     7     8    1
   112    27    21    1
   113    86    85    1
   114    62    61   ar
   115    70    69    1
   116    25    22    1
   117    42    39    1
   118    57    56    1
   119    57    59   ar
   120    71    69    1
   121     8     9    1
   122    89    88    1
   123    89    90    1
   124    61    59   ar
   125    39    38    1
   126    39    40    1
   127    56    53    1
   128    88    82   am
   129    85    87    1
   130    85    84    1
   131    21    22    1
   132    41    40    2
   133    31    30    2
   134    69    68    1
   135    75    74    2
   136    38    30   am
   137    30    29    1
   138    22    23    1
   139    82    81    1
   140    82    83    2
   141    81    84    1
   142    81    80    1
   143    53    52    1
   144    53    54    1
   145    32    29    1
   146    32    33    1
   147    90    91    2
   148    24    23    2
   149    51    49   ar
   150    74    80   am
   151    74    73    1
   152    29    28    1
   153    68    65    1
   154    48    49    1
   155    48    47    1
   156    33    35   ar
   157    33    34   ar
   158    49    50   ar
   159    54    55    2
   160    72    73    1
   161    72    66   am
   162    35    37   ar
   163    76    73    1
   164    76    77    1
   165    78    77    2
   166    65    66    1
   167    65    64    1
   168    46    45    2
   169    66    67    2
   170    77    79   am
   171    47    44    1
   172    34    36   ar
   173    37    36   ar
   174    45    44    1
   175    44    43    1
