@<TRIPOS>MOLECULE
tmp/3zvgA00.pdb
 173 168 0 0 0
SMALL
GASTEIGER

@<TRIPOS>ATOM
      1  N          0.7640  -11.4670  -15.7140 N.3    22  LYS22      -0.1245
      2  CA        -0.3780  -10.8470  -15.0340 C.3    22  LYS22       0.1561
      3  C         -0.5900  -11.3770  -13.6240 C.2    22  LYS22       0.2260
      4  O         -1.4440  -10.9000  -12.9290 O.2    22  LYS22      -0.2867
      5  CB        -1.6830  -10.9840  -15.8450 C.3    22  LYS22       0.0271
      6  CG        -1.6060  -10.3810  -17.2360 C.3    22  LYS22       0.0035
      7  CD        -1.6420   -8.8890  -17.2010 C.3    22  LYS22       0.0206
      8  CE        -0.8390   -8.3810  -18.3740 C.3    22  LYS22       0.1093
      9  NZ        -1.1370   -6.9880  -18.7540 N.3    22  LYS22      -0.1314
     10  N         -0.9730  -14.9110  -10.8430 N.3    24  GLU24      -0.1231
     11  CA        -1.2540  -16.3460  -10.7600 C.3    24  GLU24       0.1699
     12  C         -2.7230  -16.6170  -11.0860 C.2    24  GLU24       0.2592
     13  O         -3.5760  -15.7930  -10.8130 O.2    24  GLU24      -0.2718
     14  CB        -0.9940  -16.8660   -9.3610 C.3    24  GLU24       0.0402
     15  CG         0.4470  -17.0650   -8.9990 C.3    24  GLU24       0.1161
     16  CD         0.5770  -17.9590   -7.7750 C.2    24  GLU24       0.3649
     17  OE1       -0.4320  -18.1400   -7.0440 O.co2  24  GLU24      -0.2457
     18  OE2        1.6750  -18.5110   -7.5610 O.co2  24  GLU24      -0.2457
     19  N         -2.9980  -17.8050  -11.6170 N.am   25  PHE25      -0.1976
     20  CA        -4.3230  -18.1890  -12.0760 C.3    25  PHE25       0.1639
     21  C         -4.3850  -19.6510  -11.8200 C.2    25  PHE25       0.2290
     22  O         -3.3990  -20.3630  -12.0410 O.2    25  PHE25      -0.2864
     23  CB        -4.4330  -17.9800  -13.6040 C.3    25  PHE25       0.0560
     24  CG        -4.4320  -16.5520  -14.0030 C.ar   25  PHE25      -0.0200
     25  CD1       -3.2320  -15.8800  -14.2430 C.ar   25  PHE25      -0.0042
     26  CD2       -5.6230  -15.8550  -14.1040 C.ar   25  PHE25      -0.0042
     27  CE1       -3.2210  -14.5620  -14.5700 C.ar   25  PHE25      -0.0003
     28  CE2       -5.6230  -14.5220  -14.4710 C.ar   25  PHE25      -0.0003
     29  CZ        -4.3960  -13.8590  -14.6920 C.ar   25  PHE25      -0.0000
     30  N         -7.7550  -17.9490  -18.4810 N.3    38  PRO38      -0.2116
     31  CA        -8.4450  -16.7680  -19.0080 C.3    38  PRO38       0.1372
     32  C         -7.5800  -15.9630  -19.9770 C.2    38  PRO38       0.2244
     33  O         -6.3840  -15.7350  -19.7220 O.2    38  PRO38      -0.2868
     34  CB        -8.7570  -15.9470  -17.7560 C.3    38  PRO38       0.0268
     35  CG        -8.8930  -16.9600  -16.6870 C.3    38  PRO38       0.0207
     36  CD        -7.7880  -17.9730  -16.9890 C.3    38  PRO38       0.0892
     37  N         -7.3110  -12.9750  -20.6140 N.3    40  HIS40      -0.1226
     38  CA        -6.6810  -11.8010  -20.0220 C.3    40  HIS40       0.1752
     39  C         -5.4650  -11.9970  -19.1200 C.2    40  HIS40       0.2595
     40  O         -4.8050  -11.0360  -18.7670 O.2    40  HIS40      -0.2718
     41  CB        -7.7280  -10.7670  -19.5440 C.3    40  HIS40       0.0759
     42  CG        -8.2530   -9.9780  -20.7090 C.ar   40  HIS40       0.0818
     43  ND1       -9.0470  -10.5580  -21.6880 N.ar   40  HIS40      -0.2268
     44  CD2       -7.9280   -8.7460  -21.1720 C.ar   40  HIS40       0.1154
     45  CE1       -9.2560   -9.6870  -22.6590 C.ar   40  HIS40       0.1986
     46  NE2       -8.5870   -8.5800  -22.3730 N.ar   40  HIS40      -0.2212
     47  N         -5.1460  -13.2560  -18.8160 N.am   41  ALA41      -0.1980
     48  CA        -3.8320  -13.6480  -18.2760 C.3    41  ALA41       0.1597
     49  C         -2.6270  -13.3240  -19.1870 C.2    41  ALA41       0.2287
     50  O         -1.4940  -13.2900  -18.7000 O.2    41  ALA41      -0.2864
     51  CB        -3.8310  -15.1220  -17.9490 C.3    41  ALA41       0.0319
     52  N        -12.9070  -15.2600  -23.9360 N.3    71  GLU71      -0.1245
     53  CA       -12.1070  -15.2000  -22.6830 C.3    71  GLU71       0.1567
     54  C        -11.4880  -16.5280  -22.2520 C.2    71  GLU71       0.2260
     55  O        -10.9230  -16.6430  -21.1620 O.2    71  GLU71      -0.2867
     56  CB       -12.9090  -14.5280  -21.5410 C.3    71  GLU71       0.0388
     57  CG       -12.0890  -14.1000  -20.3200 C.3    71  GLU71       0.1160
     58  CD       -10.9730  -13.1150  -20.6550 C.2    71  GLU71       0.3649
     59  OE1      -11.0430  -12.4010  -21.7080 O.co2  71  GLU71      -0.2457
     60  OE2      -10.0330  -13.0520  -19.8410 O.co2  71  GLU71      -0.2457
     61  N        -21.1950   -9.7540  -21.8960 N.3   125  LEU125     -0.1231
     62  CA       -20.6640   -8.9530  -20.8070 C.3   125  LEU125      0.1693
     63  C        -19.5520   -8.0380  -21.3220 C.2   125  LEU125      0.2592
     64  O        -18.6580   -8.4840  -22.0300 O.2   125  LEU125     -0.2718
     65  CB       -20.1240   -9.8680  -19.7010 C.3   125  LEU125      0.0284
     66  CG       -19.6270   -9.1770  -18.4390 C.3   125  LEU125      0.0019
     67  CD1      -20.7960   -8.4640  -17.7480 C.3   125  LEU125      0.0001
     68  CD2      -18.9410  -10.1970  -17.5250 C.3   125  LEU125      0.0001
     69  N        -19.6120   -6.7560  -20.9880 N.am  126  ASN126     -0.1960
     70  CA       -18.5300   -5.8460  -21.3380 C.3   126  ASN126      0.1819
     71  C        -17.3250   -5.9830  -20.3960 C.2   126  ASN126      0.2621
     72  O        -16.8980   -5.0170  -19.7690 O.2   126  ASN126     -0.2715
     73  CB       -19.0180   -4.3910  -21.4370 C.3   126  ASN126      0.1195
     74  CG       -17.9850   -3.4870  -22.0930 C.2   126  ASN126      0.2630
     75  OD1      -17.1120   -3.9640  -22.8140 O.2   126  ASN126     -0.2716
     76  ND2      -18.0560   -2.1840  -21.8160 N.am  126  ASN126     -0.0877
     77  N        -16.7730   -7.1930  -20.3150 N.am  127  LEU127     -0.1963
     78  CA       -15.7500   -7.5110  -19.3010 C.3   127  LEU127      0.1728
     79  C        -14.4660   -6.6920  -19.4070 C.2   127  LEU127      0.2617
     80  O        -13.6560   -6.8870  -20.3310 O.2   127  LEU127     -0.2715
     81  CB       -15.3980   -8.9970  -19.3150 C.3   127  LEU127      0.0311
     82  CG       -14.4400   -9.4170  -18.1990 C.3   127  LEU127      0.0022
     83  CD1      -15.1150   -9.3280  -16.8100 C.3   127  LEU127      0.0001
     84  CD2      -13.8680  -10.7980  -18.4530 C.3   127  LEU127      0.0001
     85  N        -14.2780   -5.8040  -18.4270 N.am  128  GLY128     -0.1940
     86  CA       -13.0760   -4.9840  -18.3460 C.3   128  GLY128      0.2014
     87  C        -13.0040   -4.0530  -19.5420 C.2   128  GLY128      0.2639
     88  O        -11.9150   -3.6500  -19.9390 O.2   128  GLY128     -0.2714
     89  N        -14.1700   -3.7190  -20.1130 N.am  129  GLY129     -0.1954
     90  CA       -14.2450   -2.9180  -21.3410 C.3   129  GLY129      0.1869
     91  C        -13.9420   -3.6760  -22.6270 C.2   129  GLY129      0.2309
     92  O        -13.8190   -3.0540  -23.6770 O.2   129  GLY129     -0.2863
     93  N        -17.2350  -12.8270   -5.7800 N.3   142  THR142     -0.1203
     94  CA       -15.9400  -13.3920   -6.1200 C.3   142  THR142      0.1994
     95  C        -14.8580  -12.3430   -6.1760 C.2   142  THR142      0.2618
     96  O        -15.1310  -11.1490   -6.3510 O.2   142  THR142     -0.2717
     97  CB       -15.9980  -14.1370   -7.4750 C.3   142  THR142      0.1784
     98  OG1      -16.3990  -13.2120   -8.4860 O.3   142  THR142     -0.2211
     99  CG2      -16.9920  -15.2920   -7.4010 C.3   142  THR142      0.0376
    100  N        -13.6140  -12.7790   -6.0140 N.am  143  ARG143     -0.1965
    101  CA       -12.5290  -11.8100   -5.7960 C.3   143  ARG143      0.1729
    102  C        -11.3570  -11.9980   -6.7580 C.2   143  ARG143      0.2616
    103  O        -11.2220  -13.0480   -7.4030 O.2   143  ARG143     -0.2715
    104  CB       -12.0480  -11.8350   -4.3020 C.3   143  ARG143      0.0348
    105  CG       -13.1710  -11.9480   -3.1870 C.3   143  ARG143      0.0492
    106  CD       -14.1180  -10.7150   -3.1460 C.3   143  ARG143      0.2205
    107  NE       -15.0830  -10.6060   -2.0210 N.pl3 143  ARG143     -0.0865
    108  CZ       -16.0980   -9.7140   -1.9900 C.cat 143  ARG143      0.5346
    109  NH1      -16.3180   -8.8600   -3.0190 N.pl3 143  ARG143      0.1354
    110  NH2      -16.9200   -9.6560   -0.9400 N.pl3 143  ARG143      0.1354
    111  N        -10.5250  -10.9600   -6.8660 N.am  144  ALA144     -0.1963
    112  CA        -9.2240  -11.0860   -7.5010 C.3   144  ALA144      0.1728
    113  C         -8.5260  -12.2610   -6.8240 C.2   144  ALA144      0.2616
    114  O         -8.6710  -12.4580   -5.5940 O.2   144  ALA144     -0.2715
    115  CB        -8.3960   -9.8040   -7.3240 C.3   144  ALA144      0.0334
    116  N         -7.8010  -13.0590   -7.6050 N.am  145  GLY145     -0.1955
    117  CA        -7.1300  -14.2210   -7.0230 C.3   145  GLY145      0.1869
    118  C         -7.9030  -15.4780   -7.4110 C.2   145  GLY145      0.2309
    119  O         -7.3960  -16.5600   -7.2910 O.2   145  GLY145     -0.2863
    120  N         -9.4890  -15.9640  -10.5380 N.3   147  CYS147     -0.1235
    121  CA        -9.5600  -16.2180  -11.9960 C.3   147  CYS147      0.1677
    122  C         -8.9220  -17.5370  -12.3850 C.2   147  CYS147      0.2270
    123  O         -7.8990  -17.9550  -11.7980 O.2   147  CYS147     -0.2867
    124  CB        -9.0130  -15.0450  -12.7940 C.3   147  CYS147      0.0956
    125  SG       -10.2450  -13.7290  -12.8400 S.3   147  CYS147     -0.0801
    126  N        -13.5240  -19.2520  -13.9790 N.3   161  HIS161     -0.1226
    127  CA       -13.8750  -17.9270  -13.4780 C.3   161  HIS161      0.1752
    128  C        -13.0260  -16.8540  -14.1360 C.2   161  HIS161      0.2596
    129  O        -11.8190  -17.0370  -14.2980 O.2   161  HIS161     -0.2718
    130  CB       -13.6860  -17.8680  -11.9520 C.3   161  HIS161      0.0759
    131  CG       -14.0830  -16.5550  -11.3690 C.ar  161  HIS161      0.0818
    132  ND1      -15.4000  -16.2370  -11.0900 N.ar  161  HIS161     -0.2268
    133  CD2      -13.3510  -15.4610  -11.0580 C.ar  161  HIS161      0.1154
    134  CE1      -15.4570  -15.0010  -10.6280 C.ar  161  HIS161      0.1986
    135  NE2      -14.2280  -14.5100  -10.5870 N.ar  161  HIS161     -0.2212
    136  N        -13.6500  -15.7320  -14.5010 N.am  162  VAL162     -0.1965
    137  CA       -12.9530  -14.7230  -15.2740 C.3   162  VAL162      0.1730
    138  C        -13.2090  -13.3220  -14.7920 C.2   162  VAL162      0.2656
    139  O        -12.4860  -12.3860  -15.1710 O.2   162  VAL162     -0.2711
    140  CB       -13.2570  -14.8130  -16.8180 C.3   162  VAL162      0.0290
    141  CG1      -12.7340  -16.1020  -17.4030 C.3   162  VAL162      0.0023
    142  CG2      -14.7780  -14.6220  -17.1300 C.3   162  VAL162      0.0023
    143  N        -14.2280  -13.1430  -13.9420 N.am  163  GLY163     -0.1716
    144  CA       -14.5900  -11.7700  -13.5650 C.2   163  GLY163      0.1480
    145  C        -15.7010  -11.6150  -12.5360 C.2   163  GLY163      0.2821
    146  O        -16.3640  -12.5890  -12.1860 O.2   163  GLY163     -0.2669
    147  N        -15.9230  -10.3770  -12.0910 N.am  164  GLY164     -0.1905
    148  CA       -16.9310  -10.0780  -11.0510 C.3   164  GLY164      0.2017
    149  C        -17.0710   -8.5860  -10.8400 C.2   164  GLY164      0.2639
    150  O        -16.2230   -7.8050  -11.2940 O.2   164  GLY164     -0.2714
    151  N        -18.1460   -8.1870  -10.1550 N.am  165  ASN165     -0.1958
    152  CA       -18.4490   -6.7670   -9.9180 C.3   165  ASN165      0.1819
    153  C        -18.5880   -6.4550   -8.4170 C.2   165  ASN165      0.2621
    154  O        -19.0470   -5.3680   -8.0400 O.2   165  ASN165     -0.2715
    155  CB       -19.7470   -6.3530  -10.6580 C.3   165  ASN165      0.1195
    156  CG       -20.9410   -7.1950  -10.2440 C.2   165  ASN165      0.2630
    157  OD1      -20.8570   -7.9770   -9.2880 O.2   165  ASN165     -0.2716
    158  ND2      -22.0550   -7.0640  -10.9750 N.am  165  ASN165     -0.0877
    159  N        -18.2010   -7.4120   -7.5740 N.am  166  GLY166     -0.1954
    160  CA       -18.3330   -7.2610   -6.1200 C.3   166  GLY166      0.1869
    161  C        -19.5900   -7.9170   -5.5610 C.2   166  GLY166      0.2309
    162  O        -19.6850   -8.1490   -4.3610 O.2   166  GLY166     -0.2863
    163  N        -18.4480  -14.1340  -12.7390 N.3   170  PHE170     -0.1241
    164  CA       -18.6010  -14.5180  -14.1330 C.3   170  PHE170      0.1605
    165  C        -17.5710  -15.5740  -14.5500 C.2   170  PHE170      0.2264
    166  O        -16.3760  -15.4430  -14.2790 O.2   170  PHE170     -0.2867
    167  CB       -18.4650  -13.2740  -15.0200 C.3   170  PHE170      0.0534
    168  CG       -19.4070  -12.1610  -14.6220 C.ar  170  PHE170     -0.0203
    169  CD1      -20.7640  -12.2460  -14.9160 C.ar  170  PHE170     -0.0042
    170  CD2      -18.9420  -11.0610  -13.9200 C.ar  170  PHE170     -0.0042
    171  CE1      -21.6370  -11.2520  -14.5340 C.ar  170  PHE170     -0.0003
    172  CE2      -19.8280  -10.0360  -13.5080 C.ar  170  PHE170     -0.0003
    173  CZ       -21.1760  -10.1400  -13.8240 C.ar  170  PHE170     -0.0000
@<TRIPOS>BOND
     1    52    53    1
     2    92    91    2
     3    75    74    2
     4    53    54    1
     5    53    56    1
     6    45    46   ar
     7    45    43   ar
     8    91    90    1
     9    46    44   ar
    10    54    55    2
    11    74    76   am
    12    74    73    1
    13    64    63    2
    14    61    62    1
    15    59    58   ar
    16    43    42   ar
    17    56    57    1
    18    73    70    1
    19    90    89    1
    20    70    69    1
    21    70    71    1
    22    63    69   am
    23    63    62    1
    24    44    42   ar
    25    62    65    1
    26    42    41    1
    27    58    57    1
    28    58    60   ar
    29    37    38    1
    30    71    77   am
    31    71    72    2
    32    80    79    2
    33    77    78    1
    34    89    87   am
    35    38    41    1
    36    38    39    1
    37    32    33    2
    38    32    31    1
    39    88    87    2
    40    65    66    1
    41    87    86    1
    42    79    78    1
    43    79    85   am
    44    81    78    1
    45    81    82    1
    46    49    50    2
    47    49    48    1
    48    39    47   am
    49    39    40    2
    50    31    30    1
    51    31    34    1
    52    47    48    1
    53     9     8    1
    54    30    36    1
    55    84    82    1
    56    66    67    1
    57    66    68    1
    58    85    86    1
    59     8     7    1
    60    48    51    1
    61    82    83    1
    62    34    35    1
    63   141   140    1
    64     6     7    1
    65     6     5    1
    66   142   140    1
    67    36    35    1
    68   140   137    1
    69     5     2    1
    70     1     2    1
    71   137   138    1
    72   137   136    1
    73   139   138    2
    74     2     3    1
    75   167   168    1
    76   167   164    1
    77   169   168   ar
    78   169   171   ar
    79   138   143    1
    80    29    27   ar
    81    29    28   ar
    82   168   170   ar
    83    27    25   ar
    84   165   166    2
    85   165   164    1
    86   171   173   ar
    87   136   128   am
    88    28    26   ar
    89   129   128    2
    90    25    24   ar
    91   128   127    1
    92   164   163    1
    93    26    24   ar
    94    24    23    1
    95   126   127    1
    96   143   144    2
    97   170   172   ar
    98   173   172   ar
    99     3     4    2
   100    23    20    1
   101   144   145    1
   102   127   130    1
   103   125   124    1
   104   124   121    1
   105   145   146    2
   106   145   147   am
   107   122   121    1
   108   122   123    2
   109   147   148    1
   110    20    21    1
   111    20    19    1
   112    22    21    2
   113   121   120    1
   114   130   131    1
   115    19    12   am
   116   131   132   ar
   117   131   133   ar
   118   150   149    2
   119   132   134   ar
   120    12    13    2
   121    12    11    1
   122   133   135   ar
   123   148   149    1
   124   158   156   am
   125    10    11    1
   126   149   151   am
   127    11    14    1
   128   155   156    1
   129   155   152    1
   130   134   135   ar
   131   156   157    2
   132   151   152    1
   133   152   153    1
   134    14    15    1
   135    15    16    1
   136    98    97    1
   137   153   154    2
   138   153   159   am
   139    16    18   ar
   140    16    17   ar
   141   116   117    1
   142   116   113   am
   143   159   160    1
   144   112   115    1
   145   112   111    1
   146   112   113    1
   147    97    99    1
   148    97    94    1
   149   118   119    2
   150   118   117    1
   151   103   102    2
   152   111   102   am
   153   113   114    2
   154   102   101    1
   155    96    95    2
   156    95    94    1
   157    95   100   am
   158    94    93    1
   159   160   161    1
   160   100   101    1
   161   101   104    1
   162   161   162    2
   163   104   105    1
   164   105   106    1
   165   106   107    1
   166   109   108    1
   167   107   108    2
   168   108   110    1
