@<TRIPOS>MOLECULE
tmp/3zvmA00.pdb
 132 126 0 0 0
SMALL
GASTEIGER

@<TRIPOS>ATOM
      1  N          0.3110    9.0020   61.8790 N.3    28  ASP28      -0.1239
      2  CA        -0.9170    9.5360   61.3200 C.3    28  ASP28       0.1674
      3  C         -0.9430   11.0500   61.5630 C.2    28  ASP28       0.2266
      4  O         -0.1720   11.5570   62.3760 O.2    28  ASP28      -0.2867
      5  CB        -2.1100    8.8800   62.0000 C.3    28  ASP28       0.1410
      6  CG        -3.4090    9.4100   61.5000 C.2    28  ASP28       0.3668
      7  OD1       -3.6100    9.4330   60.2610 O.co2  28  ASP28      -0.2456
      8  OD2       -4.2290    9.8160   62.3500 O.co2  28  ASP28      -0.2456
      9  N         -4.3390   13.4550   61.2920 N.3    30  ASP30      -0.1225
     10  CA        -5.5680   13.9220   61.9370 C.3    30  ASP30       0.1805
     11  C         -5.8920   13.1010   63.1730 C.2    30  ASP30       0.2598
     12  O         -6.1070   11.9110   63.0750 O.2    30  ASP30      -0.2718
     13  CB        -6.7310   13.8580   60.9460 C.3    30  ASP30       0.1424
     14  CG        -6.5530   14.8250   59.7880 C.2    30  ASP30       0.3668
     15  OD1       -6.1220   15.9630   60.0380 O.co2  30  ASP30      -0.2456
     16  OD2       -6.8430   14.4560   58.6330 O.co2  30  ASP30      -0.2456
     17  N         -5.9400   13.7330   64.3390 N.am   31  GLY31      -0.1957
     18  CA        -6.2070   13.0020   65.5730 C.3    31  GLY31       0.1869
     19  C         -4.9720   12.3270   66.1510 C.2    31  GLY31       0.2309
     20  O         -5.0530   11.6160   67.1530 O.2    31  GLY31      -0.2863
     21  N        -15.5860   17.7810   65.2960 N.3    41  VAL41      -0.1231
     22  CA       -15.0030   16.5140   64.8600 C.3    41  VAL41       0.1692
     23  C        -14.2570   16.6890   63.5380 C.2    41  VAL41       0.2592
     24  O        -13.1520   16.1670   63.3560 O.2    41  VAL41      -0.2718
     25  CB       -16.0680   15.4220   64.7170 C.3    41  VAL41       0.0266
     26  CG1      -15.4220   14.1060   64.3390 C.3    41  VAL41       0.0020
     27  CG2      -16.8410   15.2800   66.0170 C.3    41  VAL41       0.0020
     28  N        -14.8600   17.4360   62.6200 N.am   42  PHE42      -0.1963
     29  CA       -14.2100   17.7450   61.3530 C.3    42  PHE42       0.1756
     30  C        -13.8090   19.2100   61.2900 C.2    42  PHE42       0.2461
     31  O        -14.4810   20.0600   61.8740 O.2    42  PHE42      -0.2730
     32  CB       -15.1210   17.3870   60.1920 C.3    42  PHE42       0.0574
     33  CG       -15.4780   15.9350   60.1410 C.ar   42  PHE42      -0.0200
     34  CD1      -14.5120   14.9670   60.3640 C.ar   42  PHE42      -0.0042
     35  CD2      -16.7750   15.5350   59.8640 C.ar   42  PHE42      -0.0042
     36  CE1      -14.8320   13.6250   60.3140 C.ar   42  PHE42      -0.0003
     37  CE2      -17.1050   14.1970   59.8090 C.ar   42  PHE42      -0.0003
     38  CZ       -16.1340   13.2380   60.0360 C.ar   42  PHE42      -0.0000
     39  N        -12.7050   19.5060   60.5790 N.am   43  PRO43      -0.2727
     40  CA       -12.1500   20.8590   60.4390 C.3    43  PRO43       0.1402
     41  C        -13.1140   21.7690   59.6840 C.2    43  PRO43       0.2269
     42  O        -13.5480   21.4140   58.5880 O.2    43  PRO43      -0.2865
     43  CB       -10.8900   20.6450   59.5860 C.3    43  PRO43       0.0296
     44  CG       -10.6410   19.1820   59.5840 C.3    43  PRO43       0.0237
     45  CD       -11.9570   18.5190   59.7850 C.3    43  PRO43       0.0939
     46  N         -4.4740    9.3060   55.2010 N.3    75  ASN75      -0.1225
     47  CA        -5.5300    9.0970   54.2080 C.3    75  ASN75       0.1785
     48  C         -6.3050   10.4000   53.9990 C.2    75  ASN75       0.2597
     49  O         -6.7670   10.9970   54.9640 O.2    75  ASN75      -0.2718
     50  CB        -6.5380    8.0220   54.6690 C.3    75  ASN75       0.1169
     51  CG        -5.9510    6.6160   54.7100 C.2    75  ASN75       0.2627
     52  OD1       -4.9020    6.3160   54.1110 O.2    75  ASN75      -0.2716
     53  ND2       -6.6460    5.7340   55.4180 N.am   75  ASN75      -0.0877
     54  N         -6.4350   10.8360   52.7480 N.am   76  GLN76      -0.1965
     55  CA        -7.2290   12.0150   52.4120 C.3    76  GLN76       0.1733
     56  C         -7.9860   11.7490   51.1100 C.2    76  GLN76       0.2616
     57  O         -7.7160   12.3660   50.0780 O.2    76  GLN76      -0.2715
     58  CB        -6.3450   13.2640   52.2730 C.3    76  GLN76       0.0408
     59  CG        -5.5130   13.6140   53.5310 C.3    76  GLN76       0.0908
     60  CD        -6.3540   14.1000   54.7020 C.2    76  GLN76       0.2608
     61  OE1       -7.4900   14.5320   54.5250 O.2    76  GLN76      -0.2717
     62  NE2       -5.7930   14.0320   55.9080 N.am   76  GLN76      -0.0878
     63  N         -8.9280   10.8140   51.1710 N.am   77  MET77      -0.1963
     64  CA        -9.7340   10.4360   50.0080 C.3    77  MET77       0.1736
     65  C        -10.6400   11.5900   49.5620 C.2    77  MET77       0.2617
     66  O        -11.1970   11.5670   48.4630 O.2    77  MET77      -0.2715
     67  CB       -10.5680    9.1920   50.3370 C.3    77  MET77       0.0427
     68  CG       -11.0370    8.3760   49.1310 C.3    77  MET77       0.0599
     69  SD       -11.5470    6.7130   49.6260 S.3    77  MET77      -0.1393
     70  CE       -12.9580    7.0610   50.6710 C.3    77  MET77       0.0692
     71  N        -10.7930   12.5980   50.4200 N.am   78  GLY78      -0.1955
     72  CA       -11.5120   13.8050   50.0460 C.3    78  GLY78       0.1869
     73  C        -10.8480   14.4740   48.8500 C.2    78  GLY78       0.2309
     74  O        -11.4830   15.2020   48.0970 O.2    78  GLY78      -0.2863
     75  N        -11.8910   12.3500   45.7920 N.3    81  ARG81      -0.1245
     76  CA       -13.3450   12.4890   45.6400 C.3    81  ARG81       0.1563
     77  C        -13.8180   13.9180   45.3040 C.2    81  ARG81       0.2260
     78  O        -15.0170   14.1680   45.1780 O.2    81  ARG81      -0.2867
     79  CB       -14.0550   11.9740   46.8980 C.3    81  ARG81       0.0307
     80  CG       -13.8330   10.4880   47.1620 C.3    81  ARG81       0.0489
     81  CD       -14.8350    9.6170   46.4110 C.3    81  ARG81       0.2205
     82  NE       -14.4630    8.2030   46.4590 N.pl3  81  ARG81      -0.0865
     83  CZ       -14.8880    7.3410   47.3810 C.cat  81  ARG81       0.5346
     84  NH1      -15.7130    7.7430   48.3440 N.pl3  81  ARG81       0.1354
     85  NH2      -14.4870    6.0730   47.3380 N.pl3  81  ARG81       0.1354
     86  N        -13.7460   16.5530   47.1870 N.3    83  LYS83      -0.1231
     87  CA       -14.2220   17.3150   48.3410 C.3    83  LYS83       0.1693
     88  C        -13.1490   18.2630   48.8750 C.2    83  LYS83       0.2591
     89  O        -13.4570   19.2730   49.5050 O.2    83  LYS83      -0.2718
     90  CB       -14.6670   16.3760   49.4620 C.3    83  LYS83       0.0285
     91  CG       -15.8170   15.4480   49.0960 C.3    83  LYS83       0.0035
     92  CD       -17.0150   16.2280   48.5860 C.3    83  LYS83       0.0206
     93  CE       -18.1980   15.3060   48.3240 C.3    83  LYS83       0.1093
     94  NZ       -19.3780   16.0670   47.8290 N.3    83  LYS83      -0.1314
     95  N        -11.8870   17.9340   48.6200 N.am   84  LEU84      -0.1980
     96  CA       -10.7690   18.6760   49.1990 C.3    84  LEU84       0.1596
     97  C         -9.7330   18.9650   48.1340 C.2    84  LEU84       0.2287
     98  O         -9.0610   18.0510   47.6610 O.2    84  LEU84      -0.2864
     99  CB       -10.1390   17.8680   50.3430 C.3    84  LEU84       0.0297
    100  CG        -8.7830   18.3040   50.9070 C.3    84  LEU84       0.0022
    101  CD1       -8.8190   19.7460   51.4150 C.3    84  LEU84       0.0001
    102  CD2       -8.3000   17.3310   52.0060 C.3    84  LEU84       0.0001
    103  N         -4.2200    3.4200   50.5010 N.3   116  ARG116     -0.1245
    104  CA        -5.0900    3.8230   51.6030 C.3   116  ARG116      0.1563
    105  C         -4.9280    2.8840   52.7860 C.2   116  ARG116      0.2260
    106  O         -5.1990    1.6810   52.6750 O.2   116  ARG116     -0.2867
    107  CB        -6.5490    3.8360   51.1360 C.3   116  ARG116      0.0307
    108  CG        -7.5600    4.2510   52.2010 C.3   116  ARG116      0.0489
    109  CD        -8.9560    4.3700   51.5930 C.3   116  ARG116      0.2205
    110  NE        -9.9690    4.6910   52.5980 N.pl3 116  ARG116     -0.0865
    111  CZ       -10.1330    5.8920   53.1510 C.cat 116  ARG116      0.5346
    112  NH1       -9.3440    6.9020   52.8040 N.pl3 116  ARG116      0.1354
    113  NH2      -11.0920    6.0860   54.0580 N.pl3 116  ARG116      0.1354
    114  N         -4.2300    7.1660   65.8210 N.3   146  ASP146     -0.1239
    115  CA        -5.3890    7.0710   66.7180 C.3   146  ASP146      0.1674
    116  C         -6.4820    6.1220   66.2380 C.2   146  ASP146      0.2266
    117  O         -7.3810    5.8050   67.0180 O.2   146  ASP146     -0.2867
    118  CB        -6.0100    8.4460   66.9400 C.3   146  ASP146      0.1410
    119  CG        -6.6000    9.0090   65.6680 C.2   146  ASP146      0.3668
    120  OD1       -5.8670    9.0900   64.6700 O.co2 146  ASP146     -0.2456
    121  OD2       -7.7970    9.3400   65.6600 O.co2 146  ASP146     -0.2456
    122  N        -13.3070    5.0270   65.9860 N.3   163  PHE163     -0.1241
    123  CA       -14.1180    4.8810   64.7860 C.3   163  PHE163      0.1605
    124  C        -13.5030    3.8530   63.8420 C.2   163  PHE163      0.2264
    125  O        -14.2050    3.1670   63.1300 O.2   163  PHE163     -0.2867
    126  CB       -14.2500    6.2260   64.0610 C.3   163  PHE163      0.0534
    127  CG       -15.0520    6.1550   62.7850 C.ar  163  PHE163     -0.0203
    128  CD1      -16.4410    6.1210   62.8210 C.ar  163  PHE163     -0.0042
    129  CD2      -14.4180    6.1280   61.5490 C.ar  163  PHE163     -0.0042
    130  CE1      -17.1850    6.0590   61.6470 C.ar  163  PHE163     -0.0003
    131  CE2      -15.1540    6.0660   60.3730 C.ar  163  PHE163     -0.0003
    132  CZ       -16.5390    6.0310   60.4230 C.ar  163  PHE163     -0.0000
@<TRIPOS>BOND
     1    78    77    2
     2    77    76    1
     3    76    75    1
     4    76    79    1
     5    81    82    1
     6    81    80    1
     7    82    83    2
     8    79    80    1
     9    86    87    1
    10    85    83    1
    11    83    84    1
    12    98    97    2
    13    94    93    1
    14    74    73    2
    15    97    96    1
    16    93    92    1
    17    87    88    1
    18    87    90    1
    19    66    65    2
    20    92    91    1
    21    95    88   am
    22    95    96    1
    23    73    72    1
    24    88    89    2
    25    91    90    1
    26    68    69    1
    27    68    67    1
    28    96    99    1
    29    65    64    1
    30    65    71   am
    31    69    70    1
    32    64    67    1
    33    64    63    1
    34    72    71    1
    35    57    56    2
    36    99   100    1
    37   103   104    1
    38   100   101    1
    39   100   102    1
    40    56    63   am
    41    56    55    1
    42   107   104    1
    43   107   108    1
    44   109   108    1
    45   109   110    1
    46   104   105    1
    47    58    55    1
    48    58    59    1
    49    55    54    1
    50   110   111    2
    51   106   105    2
    52    54    48   am
    53   112   111    1
    54   111   113    1
    55    59    60    1
    56    48    47    1
    57    48    49    2
    58    52    51    2
    59    47    50    1
    60    47    46    1
    61    61    60    2
    62    50    51    1
    63    60    62   am
    64    51    53   am
    65    42    41    2
    66    16    14   ar
    67    44    43    1
    68    44    45    1
    69    43    40    1
    70    41    40    1
    71    45    39    1
    72    14    15   ar
    73    14    13    1
    74    37    35   ar
    75    37    38   ar
    76    35    33   ar
    77    38    36   ar
    78    33    32    1
    79    33    34   ar
    80    32    29    1
    81     7     6   ar
    82    36    34   ar
    83   131   132   ar
    84   131   129   ar
    85   132   130   ar
    86    40    39    1
    87    39    30   am
    88    13    10    1
    89    30    29    1
    90    30    31    2
    91     9    10    1
    92     2     3    1
    93     2     1    1
    94     2     5    1
    95    29    28    1
    96     6     5    1
    97     6     8   ar
    98   129   127   ar
    99     3     4    2
   100   130   128   ar
   101    10    11    1
   102    28    23   am
   103   127   128   ar
   104   127   126    1
   105    12    11    2
   106   125   124    2
   107    11    17   am
   108    24    23    2
   109    23    22    1
   110   124   123    1
   111   126   123    1
   112    26    25    1
   113    17    18    1
   114   120   119   ar
   115    25    22    1
   116    25    27    1
   117   123   122    1
   118    22    21    1
   119    18    19    1
   120   121   119   ar
   121   119   118    1
   122   114   115    1
   123    19    20    2
   124   116   115    1
   125   116   117    2
   126   115   118    1
