@<TRIPOS>MOLECULE
tmp/3zvmA02.pdb
 120 115 0 0 0
SMALL
GASTEIGER

@<TRIPOS>ATOM
      1  N        -20.9560  -11.8050   45.1200 N.3   231  PRO231     -0.2116
      2  CA       -19.8840  -11.1480   44.3670 C.3   231  PRO231      0.1372
      3  C        -18.6460  -11.1310   45.2650 C.2   231  PRO231      0.2244
      4  O        -18.7720  -10.8140   46.4570 O.2   231  PRO231     -0.2868
      5  CB       -20.4060   -9.7200   44.1770 C.3   231  PRO231      0.0268
      6  CG       -21.9040   -9.8100   44.4200 C.3   231  PRO231      0.0207
      7  CD       -22.0490  -10.8840   45.4580 C.3   231  PRO231      0.0892
      8  N        -16.0880  -16.9950   42.1490 N.3   235  LYS235     -0.1245
      9  CA       -16.7520  -17.7630   41.0880 C.3   235  LYS235      0.1561
     10  C        -16.0010  -17.7390   39.7410 C.2   235  LYS235      0.2260
     11  O        -15.6720  -18.7840   39.1940 O.2   235  LYS235     -0.2867
     12  CB       -18.2050  -17.2820   40.8880 C.3   235  LYS235      0.0271
     13  CG       -19.0750  -17.2850   42.1750 C.3   235  LYS235      0.0035
     14  CD       -20.5250  -16.8520   41.8840 C.3   235  LYS235      0.0206
     15  CE       -20.5930  -15.4300   41.3310 C.3   235  LYS235      0.1093
     16  NZ       -20.0830  -14.4200   42.3480 N.3   235  LYS235     -0.1314
     17  N        -22.0260  -13.2720   33.5660 N.3   253  ARG253     -0.1231
     18  CA       -22.9140  -12.1280   33.7760 C.3   253  ARG253      0.1694
     19  C        -22.0840  -10.8480   33.7640 C.2   253  ARG253      0.2592
     20  O        -22.5620   -9.7970   33.3240 O.2   253  ARG253     -0.2718
     21  CB       -23.7050  -12.2610   35.0850 C.3   253  ARG253      0.0321
     22  CG       -24.4890  -11.0070   35.4990 C.3   253  ARG253      0.0489
     23  CD       -25.5420  -10.5650   34.4660 C.3   253  ARG253      0.2205
     24  NE       -26.2780   -9.3680   34.8910 N.pl3 253  ARG253     -0.0865
     25  CZ       -25.8070   -8.1280   34.8110 C.cat 253  ARG253      0.5346
     26  NH1      -24.5890   -7.8970   34.3270 N.pl3 253  ARG253      0.1354
     27  NH2      -26.5490   -7.1140   35.2250 N.pl3 253  ARG253      0.1354
     28  N        -20.8320  -10.9640   34.2170 N.am  254  ASP254     -0.1974
     29  CA       -19.9230   -9.8230   34.3020 C.3   254  ASP254      0.1709
     30  C        -19.7360   -9.1600   32.9380 C.2   254  ASP254      0.2293
     31  O        -19.6050   -7.9480   32.8480 O.2   254  ASP254     -0.2864
     32  CB       -18.5420  -10.2470   34.8380 C.3   254  ASP254      0.1436
     33  CG       -18.6040  -10.8880   36.2300 C.2   254  ASP254      0.3671
     34  OD1      -19.6320  -10.7490   36.9320 O.co2 254  ASP254     -0.2456
     35  OD2      -17.6120  -11.5450   36.6160 O.co2 254  ASP254     -0.2456
     36  N        -29.1540  -10.6730   32.9610 N.3   259  TRP259     -0.1241
     37  CA       -29.5330  -12.0670   33.1440 C.3   259  TRP259      0.1605
     38  C        -30.1510  -12.6350   31.8550 C.2   259  TRP259      0.2264
     39  O        -29.9880  -13.8190   31.5420 O.2   259  TRP259     -0.2867
     40  CB       -30.4430  -12.2520   34.3750 C.3   259  TRP259      0.0550
     41  CG       -31.8330  -11.6620   34.2480 C.ar  259  TRP259      0.0003
     42  CD1      -32.2940  -10.4920   34.8070 C.ar  259  TRP259      0.0946
     43  CD2      -32.9350  -12.2190   33.5220 C.ar  259  TRP259      0.0152
     44  NE1      -33.6150  -10.2910   34.4650 N.ar  259  TRP259     -0.2442
     45  CE2      -34.0340  -11.3400   33.6840 C.ar  259  TRP259      0.0810
     46  CE3      -33.1040  -13.3770   32.7530 C.ar  259  TRP259      0.0012
     47  CZ2      -35.2740  -11.5820   33.1000 C.ar  259  TRP259      0.0191
     48  CZ3      -34.3460  -13.6220   32.1790 C.ar  259  TRP259      0.0001
     49  CH2      -35.4140  -12.7270   32.3560 C.ar  259  TRP259      0.0015
     50  N        -22.9520  -16.3520   37.6020 N.3   280  ASN280     -0.1225
     51  CA       -23.6950  -15.2170   38.1380 C.3   280  ASN280      0.1785
     52  C        -23.8950  -15.4850   39.6290 C.2   280  ASN280      0.2598
     53  O        -23.5970  -16.5760   40.1100 O.2   280  ASN280     -0.2718
     54  CB       -25.0520  -15.0430   37.4150 C.3   280  ASN280      0.1169
     55  CG       -25.6360  -13.6390   37.5680 C.2   280  ASN280      0.2627
     56  OD1      -25.1590  -12.8400   38.3620 O.2   280  ASN280     -0.2716
     57  ND2      -26.6830  -13.3430   36.8020 N.am  280  ASN280     -0.0877
     58  N        -24.3910  -14.4950   40.3610 N.am  281  THR281     -0.1939
     59  CA       -24.6390  -14.6750   41.7840 C.3   281  THR281      0.2028
     60  C        -25.7500  -15.6960   42.0660 C.2   281  THR281      0.2642
     61  O        -25.6390  -16.4870   42.9970 O.2   281  THR281     -0.2714
     62  CB       -24.9990  -13.3480   42.4410 C.3   281  THR281      0.1808
     63  OG1      -26.0380  -12.7240   41.6790 O.3   281  THR281     -0.2208
     64  CG2      -23.7740  -12.4370   42.4750 C.3   281  THR281      0.0379
     65  N        -26.8240  -15.6570   41.2830 N.am  282  ASN282     -0.1958
     66  CA       -27.9280  -16.6300   41.4350 C.3   282  ASN282      0.1804
     67  C        -28.3720  -16.9370   42.8770 C.2   282  ASN282      0.2463
     68  O        -28.4870  -18.1040   43.2710 O.2   282  ASN282     -0.2730
     69  CB       -27.5580  -17.9210   40.6990 C.3   282  ASN282      0.1195
     70  CG       -27.3410  -17.6860   39.2040 C.2   282  ASN282      0.2630
     71  OD1      -28.1310  -16.9940   38.5690 O.2   282  ASN282     -0.2716
     72  ND2      -26.2660  -18.2540   38.6430 N.am  282  ASN282     -0.0877
     73  N        -28.6430  -15.8860   43.6750 N.am  283  PRO283     -0.2727
     74  CA       -29.0340  -16.1070   45.0690 C.3   283  PRO283      0.1402
     75  C        -30.4040  -16.7730   45.2220 C.2   283  PRO283      0.2269
     76  O        -30.6420  -17.4420   46.2270 O.2   283  PRO283     -0.2865
     77  CB       -29.0910  -14.6860   45.6480 C.3   283  PRO283      0.0296
     78  CG       -29.3630  -13.8130   44.4800 C.3   283  PRO283      0.0237
     79  CD       -28.6710  -14.4620   43.3040 C.3   283  PRO283      0.0939
     80  N        -34.0550  -17.2300   39.7550 N.3   287  SER287     -0.1217
     81  CA       -32.8780  -17.0240   38.9160 C.3   287  SER287      0.1889
     82  C        -32.2960  -18.3750   38.4750 C.2   287  SER287      0.2288
     83  O        -31.9870  -18.5790   37.2950 O.2   287  SER287     -0.2866
     84  CB       -31.8290  -16.1930   39.6470 C.3   287  SER287      0.2089
     85  OG       -32.1520  -14.8130   39.5590 O.3   287  SER287     -0.2183
     86  N         -9.8370   -7.2370   44.3790 N.3   321  ARG321     -0.1245
     87  CA       -10.0770   -7.1170   42.9470 C.3   321  ARG321      0.1563
     88  C         -9.9040   -5.6630   42.4900 C.2   321  ARG321      0.2260
     89  O         -9.3340   -5.3990   41.4240 O.2   321  ARG321     -0.2867
     90  CB       -11.4730   -7.6400   42.5770 C.3   321  ARG321      0.0307
     91  CG       -11.6560   -7.9180   41.0810 C.3   321  ARG321      0.0489
     92  CD       -13.1440   -7.9260   40.6330 C.3   321  ARG321      0.2205
     93  NE       -13.9320   -8.9580   41.3040 N.pl3 321  ARG321     -0.0865
     94  CZ       -14.8220   -8.7270   42.2650 C.cat 321  ARG321      0.5346
     95  NH1      -15.0810   -7.4810   42.6650 N.pl3 321  ARG321      0.1354
     96  NH2      -15.4690   -9.7470   42.8200 N.pl3 321  ARG321      0.1354
     97  N        -12.8360   -4.6240   36.1640 N.3   328  HIS328     -0.1241
     98  CA       -14.0750   -5.0090   36.8320 C.3   328  HIS328      0.1621
     99  C        -14.5340   -3.7840   37.6170 C.2   328  HIS328      0.2264
    100  O        -13.7090   -3.0670   38.1940 O.2   328  HIS328     -0.2867
    101  CB       -13.8100   -6.2020   37.7620 C.3   328  HIS328      0.0745
    102  CG       -15.0420   -6.9380   38.2110 C.ar  328  HIS328      0.0817
    103  ND1      -15.9910   -6.3780   39.0430 N.ar  328  HIS328     -0.2268
    104  CD2      -15.4480   -8.2120   37.9880 C.ar  328  HIS328      0.1154
    105  CE1      -16.9410   -7.2640   39.2890 C.ar  328  HIS328      0.1986
    106  NE2      -16.6360   -8.3860   38.6610 N.ar  328  HIS328     -0.2212
    107  N        -17.9260   -3.3660   43.4700 N.3   331  VAL331     -0.1245
    108  CA       -19.2080   -3.9220   43.9010 C.3   331  VAL331      0.1561
    109  C        -19.8010   -3.0680   45.0280 C.2   331  VAL331      0.2260
    110  O        -19.1870   -2.9130   46.0700 O.2   331  VAL331     -0.2867
    111  CB       -19.0330   -5.3740   44.4000 C.3   331  VAL331      0.0252
    112  CG1      -20.3490   -5.9140   45.0060 C.3   331  VAL331      0.0019
    113  CG2      -18.5160   -6.2700   43.2570 C.3   331  VAL331      0.0019
    114  N        -25.4850   -3.9250   46.4120 N.3   335  VAL335     -0.1245
    115  CA       -25.4500   -5.2130   45.7280 C.3   335  VAL335      0.1561
    116  C        -25.2250   -6.3500   46.7180 C.2   335  VAL335      0.2260
    117  O        -25.8700   -7.3950   46.6350 O.2   335  VAL335     -0.2867
    118  CB       -24.3610   -5.2480   44.6240 C.3   335  VAL335      0.0252
    119  CG1      -24.1210   -6.6820   44.1410 C.3   335  VAL335      0.0019
    120  CG2      -24.7510   -4.3480   43.4750 C.3   335  VAL335      0.0019
@<TRIPOS>BOND
     1    39    38    2
     2    38    37    1
     3    48    49   ar
     4    48    46   ar
     5    49    47   ar
     6    46    43   ar
     7    31    30    2
     8    30    29    1
     9    36    37    1
    10    47    45   ar
    11    37    40    1
    12    20    19    2
    13    43    45   ar
    14    43    41   ar
    15    17    18    1
    16    45    44   ar
    17    19    18    1
    18    19    28   am
    19    18    21    1
    20    28    29    1
    21    41    40    1
    22    41    42   ar
    23    29    32    1
    24    26    25    1
    25    44    42   ar
    26    23    24    1
    27    23    22    1
    28    25    24    2
    29    25    27    1
    30    32    33    1
    31    21    22    1
    32    97    98    1
    33    33    35   ar
    34    33    34   ar
    35    57    55   am
    36    98    99    1
    37    98   101    1
    38    83    82    2
    39    54    55    1
    40    54    51    1
    41    55    56    2
    42    50    51    1
    43    99   100    2
    44   101   102    1
    45   104   102   ar
    46   104   106   ar
    47    51    52    1
    48   102   103   ar
    49    82    81    1
    50    71    70    2
    51    72    70   am
    52   106   105   ar
    53    81    84    1
    54    81    80    1
    55   103   105   ar
    56    11    10    2
    57    70    69    1
    58    85    84    1
    59    52    53    2
    60    52    58   am
    61    10     9    1
    62    58    59    1
    63    92    91    1
    64    92    93    1
    65    69    66    1
    66    12     9    1
    67    12    13    1
    68    91    90    1
    69     9     8    1
    70    65    66    1
    71    65    60   am
    72    93    94    2
    73    15    14    1
    74    15    16    1
    75    89    88    2
    76    66    67    1
    77    63    62    1
    78    59    60    1
    79    59    62    1
    80    14    13    1
    81    60    61    2
    82    94    95    1
    83    94    96    1
    84    62    64    1
    85    88    87    1
    86    90    87    1
    87    67    68    2
    88    67    73   am
    89    87    86    1
    90   113   111    1
    91    79    73    1
    92    79    78    1
    93   107   108    1
    94   120   118    1
    95    73    74    1
    96   108   111    1
    97   108   109    1
    98   119   118    1
    99     5     2    1
   100     5     6    1
   101     2     1    1
   102     2     3    1
   103   111   112    1
   104     6     7    1
   105    78    77    1
   106   118   115    1
   107   109   110    2
   108    74    75    1
   109    74    77    1
   110     1     7    1
   111    75    76    2
   112     3     4    2
   113   115   114    1
   114   115   116    1
   115   117   116    2
