@<TRIPOS>MOLECULE
tmp/3zvmA01.pdb
 172 167 0 0 0
SMALL
GASTEIGER

@<TRIPOS>ATOM
      1  N        -20.9560  -11.8050   45.1200 N.3   231  PRO231     -0.2102
      2  CA       -19.8840  -11.1480   44.3670 C.3   231  PRO231      0.1504
      3  C        -18.6460  -11.1310   45.2650 C.2   231  PRO231      0.2576
      4  O        -18.7720  -10.8140   46.4570 O.2   231  PRO231     -0.2718
      5  CB       -20.4060   -9.7200   44.1770 C.3   231  PRO231      0.0282
      6  CG       -21.9040   -9.8100   44.4200 C.3   231  PRO231      0.0208
      7  CD       -22.0490  -10.8840   45.4580 C.3   231  PRO231      0.0893
      8  N        -17.4860  -11.4930   44.7170 N.am  232  GLY232     -0.1943
      9  CA       -16.2960  -11.6550   45.5160 C.3   232  GLY232      0.2014
     10  C        -16.0860  -13.0550   46.0770 C.2   232  GLY232      0.2639
     11  O        -15.1260  -13.2910   46.8090 O.2   232  GLY232     -0.2714
     12  N        -16.9740  -13.9880   45.7410 N.am  233  ALA233     -0.1963
     13  CA       -16.8640  -15.3630   46.2390 C.3   233  ALA233      0.1728
     14  C        -15.7520  -16.1550   45.5620 C.2   233  ALA233      0.2617
     15  O        -15.3090  -17.1680   46.0870 O.2   233  ALA233     -0.2715
     16  CB       -18.1920  -16.0970   46.0830 C.3   233  ALA233      0.0334
     17  N        -15.3060  -15.6850   44.3990 N.am  234  GLY234     -0.1940
     18  CA       -14.2740  -16.3680   43.6430 C.3   234  GLY234      0.2014
     19  C        -14.8370  -17.2470   42.5340 C.2   234  GLY234      0.2639
     20  O        -14.1420  -18.1300   42.0270 O.2   234  GLY234     -0.2714
     21  N        -16.0880  -16.9950   42.1490 N.am  235  LYS235     -0.1963
     22  CA       -16.7520  -17.7630   41.0880 C.3   235  LYS235      0.1728
     23  C        -16.0010  -17.7390   39.7410 C.2   235  LYS235      0.2617
     24  O        -15.6720  -18.7840   39.1940 O.2   235  LYS235     -0.2715
     25  CB       -18.2050  -17.2820   40.8880 C.3   235  LYS235      0.0311
     26  CG       -19.0750  -17.2850   42.1750 C.3   235  LYS235      0.0038
     27  CD       -20.5250  -16.8520   41.8840 C.3   235  LYS235      0.0206
     28  CE       -20.5930  -15.4300   41.3310 C.3   235  LYS235      0.1093
     29  NZ       -20.0830  -14.4200   42.3480 N.3   235  LYS235     -0.1314
     30  N        -15.7590  -16.5510   39.1950 N.am  236  SER236     -0.1936
     31  CA       -15.0650  -16.4490   37.9050 C.3   236  SER236      0.2055
     32  C        -13.6710  -17.0670   37.9200 C.2   236  SER236      0.2643
     33  O        -13.2980  -17.8040   37.0070 O.2   236  SER236     -0.2714
     34  CB       -14.9750  -14.9980   37.4510 C.3   236  SER236      0.2130
     35  OG       -16.2740  -14.4920   37.3000 O.3   236  SER236     -0.2179
     36  N        -12.9130  -16.7740   38.9680 N.am  237  THR237     -0.1950
     37  CA       -11.5540  -17.2930   39.0970 C.3   237  THR237      0.1897
     38  C        -11.5800  -18.8240   39.1070 C.2   237  THR237      0.2313
     39  O        -10.8070  -19.4680   38.3950 O.2   237  THR237     -0.2863
     40  CB       -10.8890  -16.7660   40.3620 C.3   237  THR237      0.1794
     41  OG1      -10.8680  -15.3340   40.3160 O.3   237  THR237     -0.2208
     42  CG2       -9.4490  -17.2880   40.4800 C.3   237  THR237      0.0378
     43  N        -20.8320  -10.9640   34.2170 N.3   254  ASP254     -0.1239
     44  CA       -19.9230   -9.8230   34.3020 C.3   254  ASP254      0.1674
     45  C        -19.7360   -9.1600   32.9380 C.2   254  ASP254      0.2266
     46  O        -19.6050   -7.9480   32.8480 O.2   254  ASP254     -0.2867
     47  CB       -18.5420  -10.2470   34.8380 C.3   254  ASP254      0.1410
     48  CG       -18.6040  -10.8880   36.2300 C.2   254  ASP254      0.3668
     49  OD1      -19.6320  -10.7490   36.9320 O.co2 254  ASP254     -0.2456
     50  OD2      -17.6120  -11.5450   36.6160 O.co2 254  ASP254     -0.2456
     51  N        -22.0560  -18.2800   35.2170 N.3   279  ASP279     -0.1239
     52  CA       -21.3080  -17.4810   36.1880 C.3   279  ASP279      0.1674
     53  C        -22.1290  -16.2390   36.5600 C.2   279  ASP279      0.2266
     54  O        -22.0460  -15.2170   35.8950 O.2   279  ASP279     -0.2867
     55  CB       -19.9490  -17.0980   35.5590 C.3   279  ASP279      0.1410
     56  CG       -19.0220  -16.3270   36.5110 C.2   279  ASP279      0.3668
     57  OD1      -19.4200  -16.0040   37.6520 O.co2 279  ASP279     -0.2456
     58  OD2      -17.8800  -16.0430   36.0990 O.co2 279  ASP279     -0.2456
     59  N        -12.2540  -10.0090   49.2490 N.3   317  ASN317     -0.1240
     60  CA       -11.9700  -10.3000   47.8360 C.3   317  ASN317      0.1653
     61  C        -12.3510   -9.1720   46.8770 C.2   317  ASN317      0.2266
     62  O        -11.6570   -8.9220   45.8850 O.2   317  ASN317     -0.2867
     63  CB       -12.6340  -11.6170   47.3960 C.3   317  ASN317      0.1155
     64  CG       -11.9910  -12.8300   48.0350 C.2   317  ASN317      0.2627
     65  OD1      -10.9050  -12.7290   48.6060 O.2   317  ASN317     -0.2716
     66  ND2      -12.6420  -13.9890   47.9280 N.am  317  ASN317     -0.0877
     67  N         -9.7280   -6.6030   47.0720 N.3   320  PHE320     -0.1227
     68  CA        -8.5320   -7.1120   46.4350 C.3   320  PHE320      0.1736
     69  C         -8.6430   -6.9840   44.9070 C.2   320  PHE320      0.2595
     70  O         -7.6670   -6.6410   44.2240 O.2   320  PHE320     -0.2718
     71  CB        -8.2760   -8.5590   46.8710 C.3   320  PHE320      0.0547
     72  CG        -7.0550   -9.1710   46.2410 C.ar  320  PHE320     -0.0202
     73  CD1       -5.7880   -8.8990   46.7450 C.ar  320  PHE320     -0.0042
     74  CD2       -7.1710  -10.0210   45.1450 C.ar  320  PHE320     -0.0042
     75  CE1       -4.6570   -9.4610   46.1730 C.ar  320  PHE320     -0.0003
     76  CE2       -6.0410  -10.5810   44.5680 C.ar  320  PHE320     -0.0003
     77  CZ        -4.7800  -10.2970   45.0860 C.ar  320  PHE320     -0.0000
     78  N         -9.8370   -7.2370   44.3790 N.am  321  ARG321     -0.1980
     79  CA       -10.0770   -7.1170   42.9470 C.3   321  ARG321      0.1597
     80  C         -9.9040   -5.6630   42.4900 C.2   321  ARG321      0.2287
     81  O         -9.3340   -5.3990   41.4240 O.2   321  ARG321     -0.2864
     82  CB       -11.4730   -7.6400   42.5770 C.3   321  ARG321      0.0334
     83  CG       -11.6560   -7.9180   41.0810 C.3   321  ARG321      0.0492
     84  CD       -13.1440   -7.9260   40.6330 C.3   321  ARG321      0.2205
     85  NE       -13.9320   -8.9580   41.3040 N.pl3 321  ARG321     -0.0865
     86  CZ       -14.8220   -8.7270   42.2650 C.cat 321  ARG321      0.5346
     87  NH1      -15.0810   -7.4810   42.6650 N.pl3 321  ARG321      0.1354
     88  NH2      -15.4690   -9.7470   42.8200 N.pl3 321  ARG321      0.1354
     89  N         -6.2870   -4.8120   42.0560 N.3   324  THR324     -0.1203
     90  CA        -5.4900   -5.6330   41.1590 C.3   324  THR324      0.1994
     91  C         -6.0550   -5.7050   39.7510 C.2   324  THR324      0.2617
     92  O         -5.3370   -6.0210   38.8110 O.2   324  THR324     -0.2717
     93  CB        -5.2860   -7.0660   41.7150 C.3   324  THR324      0.1784
     94  OG1       -6.5550   -7.6520   42.0220 O.3   324  THR324     -0.2211
     95  CG2       -4.4350   -7.0360   42.9780 C.3   324  THR324      0.0376
     96  N         -7.3370   -5.4050   39.5990 N.am  325  ASP325     -0.1973
     97  CA        -7.9920   -5.5960   38.3100 C.3   325  ASP325      0.1709
     98  C         -8.9740   -4.4730   38.0440 C.2   325  ASP325      0.2293
     99  O        -10.1270   -4.5410   38.4550 O.2   325  ASP325     -0.2864
    100  CB        -8.6950   -6.9510   38.2810 C.3   325  ASP325      0.1436
    101  CG        -9.4390   -7.2050   36.9880 C.2   325  ASP325      0.3671
    102  OD1       -9.2440   -6.4480   36.0060 O.co2 325  ASP325     -0.2456
    103  OD2      -10.2280   -8.1720   36.9650 O.co2 325  ASP325     -0.2456
    104  N        -12.8360   -4.6240   36.1640 N.3   328  HIS328     -0.1241
    105  CA       -14.0750   -5.0090   36.8320 C.3   328  HIS328      0.1621
    106  C        -14.5340   -3.7840   37.6170 C.2   328  HIS328      0.2264
    107  O        -13.7090   -3.0670   38.1940 O.2   328  HIS328     -0.2867
    108  CB       -13.8100   -6.2020   37.7620 C.3   328  HIS328      0.0745
    109  CG       -15.0420   -6.9380   38.2110 C.ar  328  HIS328      0.0817
    110  ND1      -15.9910   -6.3780   39.0430 N.ar  328  HIS328     -0.2268
    111  CD2      -15.4480   -8.2120   37.9880 C.ar  328  HIS328      0.1154
    112  CE1      -16.9410   -7.2640   39.2890 C.ar  328  HIS328      0.1986
    113  NE2      -16.6360   -8.3860   38.6610 N.ar  328  HIS328     -0.2212
    114  N        -14.1800  -21.7310   50.0710 N.3   360  PHE360     -0.1227
    115  CA       -13.1770  -20.7740   49.6310 C.3   360  PHE360      0.1736
    116  C        -11.8160  -21.2590   50.0960 C.2   360  PHE360      0.2595
    117  O        -11.6050  -21.5520   51.2680 O.2   360  PHE360     -0.2718
    118  CB       -13.4180  -19.3300   50.0790 C.3   360  PHE360      0.0547
    119  CG       -12.4640  -18.3550   49.4210 C.ar  360  PHE360     -0.0202
    120  CD1      -12.6870  -17.9210   48.1230 C.ar  360  PHE360     -0.0042
    121  CD2      -11.3090  -17.9400   50.0740 C.ar  360  PHE360     -0.0042
    122  CE1      -11.8060  -17.0570   47.4930 C.ar  360  PHE360     -0.0003
    123  CE2      -10.4090  -17.0730   49.4480 C.ar  360  PHE360     -0.0003
    124  CZ       -10.6560  -16.6320   48.1530 C.ar  360  PHE360     -0.0000
    125  N        -10.8900  -21.3360   49.1570 N.am  361  ARG361     -0.1966
    126  CA        -9.6200  -21.9660   49.4110 C.3   361  ARG361      0.1729
    127  C         -8.5950  -21.2110   48.5920 C.2   361  ARG361      0.2616
    128  O         -8.7450  -21.0790   47.3750 O.2   361  ARG361     -0.2715
    129  CB        -9.7140  -23.4070   48.9510 C.3   361  ARG361      0.0348
    130  CG        -8.5710  -24.3040   49.3080 C.3   361  ARG361      0.0492
    131  CD        -8.8460  -25.6040   48.5920 C.3   361  ARG361      0.2205
    132  NE        -7.9490  -26.6900   48.9450 N.pl3 361  ARG361     -0.0865
    133  CZ        -7.0670  -27.2040   48.1020 C.cat 361  ARG361      0.5346
    134  NH1       -6.9700  -26.7090   46.8710 N.pl3 361  ARG361      0.1354
    135  NH2       -6.2870  -28.2060   48.4870 N.pl3 361  ARG361      0.1354
    136  N         -7.5680  -20.6940   49.2610 N.am  362  LEU362     -0.1963
    137  CA        -6.5490  -19.9070   48.5870 C.3   362  LEU362      0.1728
    138  C         -6.0330  -20.6330   47.3560 C.2   362  LEU362      0.2616
    139  O         -5.7220  -21.8260   47.4030 O.2   362  LEU362     -0.2715
    140  CB        -5.3980  -19.5920   49.5450 C.3   362  LEU362      0.0311
    141  CG        -4.4360  -18.5080   49.0590 C.3   362  LEU362      0.0022
    142  CD1       -5.1700  -17.1570   48.9100 C.3   362  LEU362      0.0001
    143  CD2       -3.2570  -18.3960   50.0060 C.3   362  LEU362      0.0001
    144  N         -5.9470  -19.9080   46.2470 N.am  363  GLN363     -0.1977
    145  CA        -5.3960  -20.4630   45.0210 C.3   363  GLN363      0.1601
    146  C         -3.9760  -20.9880   45.2320 C.2   363  GLN363      0.2287
    147  O         -3.1480  -20.3520   45.8890 O.2   363  GLN363     -0.2864
    148  CB        -5.4420  -19.4330   43.8930 C.3   363  GLN363      0.0394
    149  CG        -5.7070  -20.0430   42.5240 C.3   363  GLN363      0.0908
    150  CD        -6.0310  -18.9900   41.4680 C.2   363  GLN363      0.2608
    151  OE1       -5.6150  -17.8320   41.5740 O.2   363  GLN363     -0.2717
    152  NE2       -6.7790  -19.3890   40.4450 N.am  363  GLN363     -0.0878
    153  N         -0.1600  -18.9250   43.9800 N.3   366  LEU366     -0.1245
    154  CA        -0.2360  -17.4770   43.8640 C.3   366  LEU366      0.1561
    155  C          1.1470  -16.8450   43.8160 C.2   366  LEU366      0.2260
    156  O          2.0300  -17.1710   44.6130 O.2   366  LEU366     -0.2867
    157  CB        -1.0210  -16.8790   45.0320 C.3   366  LEU366      0.0270
    158  CG        -2.4950  -16.5470   44.8480 C.3   366  LEU366      0.0019
    159  CD1       -2.9750  -15.7290   46.0450 C.3   366  LEU366      0.0001
    160  CD2       -2.7110  -15.7840   43.5540 C.3   366  LEU366      0.0001
    161  N         -2.6060   -9.8750   49.2090 N.3   374  TYR374     -0.1241
    162  CA        -3.8440  -10.5840   49.5520 C.3   374  TYR374      0.1605
    163  C         -4.0020  -10.7730   51.0570 C.2   374  TYR374      0.2264
    164  O         -5.1180  -10.6970   51.5900 O.2   374  TYR374     -0.2867
    165  CB        -3.9570  -11.9440   48.8230 C.3   374  TYR374      0.0534
    166  CG        -5.2890  -12.6130   49.0800 C.ar  374  TYR374     -0.0201
    167  CD1       -6.4010  -12.2950   48.3040 C.ar  374  TYR374     -0.0009
    168  CD2       -5.4570  -13.5070   50.1350 C.ar  374  TYR374     -0.0009
    169  CE1       -7.6310  -12.8680   48.5390 C.ar  374  TYR374      0.0417
    170  CE2       -6.7080  -14.0980   50.3860 C.ar  374  TYR374      0.0417
    171  CZ        -7.7880  -13.7650   49.5710 C.ar  374  TYR374      0.1957
    172  OH        -9.0330  -14.3120   49.7900 O.3   374  TYR374     -0.2866
@<TRIPOS>BOND
     1    46    45    2
     2    45    44    1
     3    43    44    1
     4    44    47    1
     5    47    48    1
     6    51    52    1
     7    55    52    1
     8    55    56    1
     9    54    53    2
    10   102   101   ar
    11    58    56   ar
    12   104   105    1
    13    52    53    1
    14    48    50   ar
    15    48    49   ar
    16    56    57   ar
    17   105   106    1
    18   105   108    1
    19   103   101   ar
    20   101   100    1
    21    33    32    2
    22    35    34    1
    23    34    31    1
    24   106   107    2
    25   108   109    1
    26    31    32    1
    27    31    30    1
    28    32    36   am
    29   111   109   ar
    30   111   113   ar
    31    98    97    1
    32    98    99    2
    33   109   110   ar
    34   100    97    1
    35    97    96    1
    36    39    38    2
    37   113   112   ar
    38    92    91    2
    39    36    37    1
    40   110   112   ar
    41    37    38    1
    42    37    40    1
    43    24    23    2
    44    30    23   am
    45    96    91   am
    46    23    22    1
    47    91    90    1
    48    41    40    1
    49    40    42    1
    50   152   150   am
    51    84    83    1
    52    84    85    1
    53    25    22    1
    54    25    26    1
    55    83    82    1
    56    22    21    1
    57    90    93    1
    58    90    89    1
    59    85    86    2
    60    28    27    1
    61    28    29    1
    62    81    80    2
    63   150   151    2
    64   150   149    1
    65    93    94    1
    66    93    95    1
    67    27    26    1
    68    20    19    2
    69    21    19   am
    70    86    87    1
    71    86    88    1
    72    80    79    1
    73   149   148    1
    74    19    18    1
    75    82    79    1
    76    79    78    1
    77   160   158    1
    78    18    17    1
    79   155   154    1
    80   155   156    2
    81   154   153    1
    82   154   157    1
    83   148   145    1
    84     5     2    1
    85     5     6    1
    86    70    69    2
    87     2     1    1
    88     2     3    1
    89    78    69   am
    90    17    14   am
    91     6     7    1
    92    76    77   ar
    93    76    74   ar
    94     8     3   am
    95     8     9    1
    96   158   157    1
    97   158   159    1
    98    69    68    1
    99   145   146    1
   100   145   144    1
   101    77    75   ar
   102     1     7    1
   103    74    72   ar
   104   146   147    2
   105     3     4    2
   106     9    10    1
   107    14    15    2
   108    14    13    1
   109    12    10   am
   110    12    13    1
   111    62    61    2
   112    10    11    2
   113    16    13    1
   114    75    73   ar
   115    72    73   ar
   116    72    71    1
   117   144   138   am
   118    68    71    1
   119    68    67    1
   120   134   133    1
   121    61    60    1
   122   138   139    2
   123   138   137    1
   124   128   127    2
   125    63    60    1
   126    63    64    1
   127   122   120   ar
   128   122   124   ar
   129    60    59    1
   130    66    64   am
   131    64    65    2
   132   133   135    1
   133   133   132    2
   134   120   119   ar
   135   124   123   ar
   136   167   169   ar
   137   167   166   ar
   138   169   171   ar
   139   137   136    1
   140   137   140    1
   141   127   136   am
   142   127   126    1
   143   131   132    1
   144   131   130    1
   145   165   166    1
   146   165   162    1
   147   142   141    1
   148   129   130    1
   149   129   126    1
   150   141   140    1
   151   141   143    1
   152   166   168   ar
   153   125   126    1
   154   125   116   am
   155   161   162    1
   156   119   121   ar
   157   119   118    1
   158   123   121   ar
   159   162   163    1
   160   171   172    1
   161   171   170   ar
   162   115   114    1
   163   115   118    1
   164   115   116    1
   165   116   117    2
   166   168   170   ar
   167   163   164    2
