@<TRIPOS>MOLECULE
tmp/3zvrA01.pdb
 91 86 0 0 0
SMALL
GASTEIGER

@<TRIPOS>ATOM
      1  N        -67.9830   19.1220  -62.6870 N.3   363  LYS363     -0.1231
      2  CA       -67.6220   20.3100  -63.4530 C.3   363  LYS363      0.1693
      3  C        -66.7030   19.9730  -64.6360 C.2   363  LYS363      0.2592
      4  O        -66.4210   20.8340  -65.4730 O.2   363  LYS363     -0.2718
      5  CB       -67.0790   21.4420  -62.5610 C.3   363  LYS363      0.0285
      6  CG       -65.6210   21.3980  -62.2190 C.3   363  LYS363      0.0035
      7  CD       -65.1910   22.7730  -61.7320 C.3   363  LYS363      0.0206
      8  CE       -63.6830   22.8550  -61.4980 C.3   363  LYS363      0.1093
      9  NZ       -62.8750   22.7550  -62.7560 N.3   363  LYS363     -0.1314
     10  N        -66.2710   18.7190  -64.7260 N.am  364  MET364     -0.1965
     11  CA       -65.5320   18.2400  -65.9000 C.3   364  MET364      0.1736
     12  C        -66.4630   17.6220  -66.9340 C.2   364  MET364      0.2616
     13  O        -66.0070   16.8810  -67.8080 O.2   364  MET364     -0.2715
     14  CB       -64.5090   17.1650  -65.5130 C.3   364  MET364      0.0427
     15  CG       -63.2790   17.6670  -64.7950 C.3   364  MET364      0.0599
     16  SD       -62.2900   18.7550  -65.8190 S.3   364  MET364     -0.1393
     17  CE       -63.0920   20.3510  -65.5330 C.3   364  MET364      0.0692
     18  N        -67.7580   17.9070  -66.8380 N.am  365  GLU365     -0.1963
     19  CA       -68.7330   17.2140  -67.6670 C.3   365  GLU365      0.1733
     20  C        -69.1280   18.0060  -68.9160 C.2   365  GLU365      0.2616
     21  O        -69.1680   19.2340  -68.9040 O.2   365  GLU365     -0.2715
     22  CB       -69.9680   16.8810  -66.8410 C.3   365  GLU365      0.0429
     23  CG       -71.0210   16.0690  -67.5800 C.3   365  GLU365      0.1163
     24  CD       -72.1330   15.5740  -66.6540 C.2   365  GLU365      0.3649
     25  OE1      -72.0120   15.7570  -65.4180 O.co2 365  GLU365     -0.2457
     26  OE2      -73.1250   14.9990  -67.1620 O.co2 365  GLU365     -0.2457
     27  N        -69.4070   17.2820  -69.9950 N.am  366  PHE366     -0.1974
     28  CA       -69.8840   17.8710  -71.2380 C.3   366  PHE366      0.1639
     29  C        -71.3460   18.3010  -71.1030 C.2   366  PHE366      0.2290
     30  O        -72.1990   17.4630  -70.8090 O.2   366  PHE366     -0.2864
     31  CB       -69.7890   16.8320  -72.3580 C.3   366  PHE366      0.0560
     32  CG       -68.4640   16.8140  -73.0780 C.ar  366  PHE366     -0.0200
     33  CD1      -68.0040   17.9450  -73.7380 C.ar  366  PHE366     -0.0042
     34  CD2      -67.6910   15.6650  -73.1140 C.ar  366  PHE366     -0.0042
     35  CE1      -66.7950   17.9290  -74.4090 C.ar  366  PHE366     -0.0003
     36  CE2      -66.4780   15.6440  -73.7820 C.ar  366  PHE366     -0.0003
     37  CZ       -66.0270   16.7710  -74.4280 C.ar  366  PHE366     -0.0000
     38  N        -72.4970   21.0920  -76.0990 N.3   370  GLU370     -0.1245
     39  CA       -71.1370   20.7500  -76.4870 C.3   370  GLU370      0.1567
     40  C        -70.9710   19.2340  -76.6480 C.2   370  GLU370      0.2260
     41  O        -70.1000   18.7800  -77.3870 O.2   370  GLU370     -0.2867
     42  CB       -70.1150   21.3380  -75.5060 C.3   370  GLU370      0.0388
     43  CG       -70.1260   20.7250  -74.1230 C.3   370  GLU370      0.1160
     44  CD       -69.3210   21.5380  -73.1160 C.2   370  GLU370      0.3649
     45  OE1      -69.4390   22.7850  -73.1330 O.co2 370  GLU370     -0.2457
     46  OE2      -68.5740   20.9300  -72.3120 O.co2 370  GLU370     -0.2457
     47  N        -69.7970   17.6110  -79.9540 N.3   374  GLU374     -0.1245
     48  CA       -68.7180   16.6200  -79.9400 C.3   374  GLU374      0.1567
     49  C        -69.0850   15.3740  -80.7450 C.2   374  GLU374      0.2260
     50  O        -68.3020   14.9170  -81.5830 O.2   374  GLU374     -0.2867
     51  CB       -68.3490   16.2350  -78.5060 C.3   374  GLU374      0.0388
     52  CG       -66.8540   16.1420  -78.2820 C.3   374  GLU374      0.1160
     53  CD       -66.1120   17.3820  -78.7600 C.2   374  GLU374      0.3649
     54  OE1      -66.3010   18.4580  -78.1570 O.co2 374  GLU374     -0.2457
     55  OE2      -65.3460   17.2810  -79.7430 O.co2 374  GLU374     -0.2457
     56  N        -63.1810   10.6910  -75.0320 N.3   396  LYS396     -0.1245
     57  CA       -63.1020   12.1410  -74.8350 C.3   396  LYS396      0.1561
     58  C        -63.4640   12.5230  -73.4170 C.2   396  LYS396      0.2260
     59  O        -62.6370   13.0290  -72.6790 O.2   396  LYS396     -0.2867
     60  CB       -64.0620   12.8720  -75.7740 C.3   396  LYS396      0.0271
     61  CG       -63.4560   13.3140  -77.0840 C.3   396  LYS396      0.0035
     62  CD       -62.5360   14.5040  -76.8880 C.3   396  LYS396      0.0206
     63  CE       -61.9280   14.9500  -78.2130 C.3   396  LYS396      0.1093
     64  NZ       -62.9680   15.2330  -79.2430 N.3   396  LYS396     -0.1314
     65  N        -61.1100   10.9800  -70.6260 N.3   399  GLN399     -0.1231
     66  CA       -59.8130   11.6200  -70.4610 C.3   399  GLN399      0.1698
     67  C        -59.8780   12.7660  -69.4340 C.2   399  GLN399      0.2592
     68  O        -58.9110   13.0250  -68.7270 O.2   399  GLN399     -0.2718
     69  CB       -59.3020   12.1310  -71.8140 C.3   399  GLN399      0.0381
     70  CG       -57.9030   12.7170  -71.7630 C.3   399  GLN399      0.0905
     71  CD       -56.8400   11.6920  -71.3620 C.2   399  GLN399      0.2608
     72  OE1      -56.2450   11.7720  -70.2750 O.2   399  GLN399     -0.2717
     73  NE2      -56.5840   10.7280  -72.2520 N.am  399  GLN399     -0.0878
     74  N        -61.0210   13.4380  -69.3340 N.am  400  LYS400     -0.1980
     75  CA       -61.1230   14.6550  -68.5210 C.3   400  LYS400      0.1596
     76  C        -61.3480   14.4140  -67.0200 C.2   400  LYS400      0.2287
     77  O        -61.4970   15.3680  -66.2510 O.2   400  LYS400     -0.2864
     78  CB       -62.2500   15.5410  -69.0450 C.3   400  LYS400      0.0298
     79  CG       -62.2150   15.7350  -70.5360 C.3   400  LYS400      0.0038
     80  CD       -63.1920   16.8070  -70.9970 C.3   400  LYS400      0.0206
     81  CE       -62.6140   18.1820  -70.7300 C.3   400  LYS400      0.1093
     82  NZ       -61.6160   18.6450  -71.7400 N.3   400  LYS400     -0.1314
     83  N        -57.7760   15.1650  -64.1880 N.3   403  GLU403     -0.1245
     84  CA       -57.5800   16.3560  -63.3480 C.3   403  GLU403      0.1567
     85  C        -58.3130   16.2190  -61.9970 C.2   403  GLU403      0.2260
     86  O        -57.6750   16.1830  -60.9420 O.2   403  GLU403     -0.2867
     87  CB       -58.0350   17.6300  -64.0750 C.3   403  GLU403      0.0388
     88  CG       -57.0280   18.7800  -64.0560 C.3   403  GLU403      0.1160
     89  CD       -57.5190   20.0080  -64.8330 C.2   403  GLU403      0.3649
     90  OE1      -58.7250   20.0540  -65.1650 O.co2 403  GLU403     -0.2457
     91  OE2      -56.7080   20.9310  -65.1140 O.co2 403  GLU403     -0.2457
@<TRIPOS>BOND
     1    50    49    2
     2    49    48    1
     3    47    48    1
     4    48    51    1
     5    55    53   ar
     6    64    63    1
     7    53    52    1
     8    53    54   ar
     9    51    52    1
    10    63    62    1
    11    41    40    2
    12    61    62    1
    13    61    60    1
    14    40    39    1
    15    39    38    1
    16    39    42    1
    17    60    57    1
    18    42    43    1
    19    56    57    1
    20    57    58    1
    21    37    35   ar
    22    37    36   ar
    23    35    33   ar
    24    43    44    1
    25    36    34   ar
    26    33    32   ar
    27    58    59    2
    28    45    44   ar
    29    44    46   ar
    30    34    32   ar
    31    32    31    1
    32    31    28    1
    33    73    71   am
    34    69    70    1
    35    69    66    1
    36    70    71    1
    37    82    81    1
    38    71    72    2
    39    28    29    1
    40    28    27    1
    41    29    30    2
    42    80    81    1
    43    80    79    1
    44    65    66    1
    45    79    78    1
    46    66    67    1
    47    27    20   am
    48    67    74   am
    49    67    68    2
    50    74    75    1
    51    78    75    1
    52    20    21    2
    53    20    19    1
    54    75    76    1
    55    13    12    2
    56    19    22    1
    57    19    18    1
    58    23    22    1
    59    23    24    1
    60    26    24   ar
    61    76    77    2
    62    12    18   am
    63    12    11    1
    64    24    25   ar
    65    11    14    1
    66    11    10    1
    67    16    17    1
    68    16    15    1
    69    14    15    1
    70     4     3    2
    71    90    89   ar
    72    91    89   ar
    73    89    88    1
    74    10     3   am
    75     3     2    1
    76    83    84    1
    77    87    88    1
    78    87    84    1
    79     2     1    1
    80     2     5    1
    81    84    85    1
    82     9     8    1
    83     5     6    1
    84     6     7    1
    85    85    86    2
    86     7     8    1
