@<TRIPOS>MOLECULE
tmp/3zvsB00.pdb
 106 106 0 0 0
SMALL
GASTEIGER

@<TRIPOS>ATOM
      1  N          8.4930   33.3800   29.9790 N.3    78  MET78      -0.1245
      2  CA         7.5840   34.5110   29.9250 C.3    78  MET78       0.1570
      3  C          6.1590   34.0430   30.0330 C.2    78  MET78       0.2261
      4  O          5.7740   33.0200   29.4210 O.2    78  MET78      -0.2867
      5  CB         7.7080   35.2240   28.5910 C.3    78  MET78       0.0387
      6  CG         9.1250   35.4620   28.0960 C.3    78  MET78       0.0595
      7  SD         9.6810   36.9130   28.9240 S.3    78  MET78      -0.1393
      8  CE        11.3030   37.1610   28.2050 C.3    78  MET78       0.0692
      9  N          3.6920   35.6640   28.6800 N.3    80  PHE80      -0.1227
     10  CA         3.3060   35.8350   27.2720 C.3    80  PHE80       0.1736
     11  C          4.4250   36.6830   26.6580 C.2    80  PHE80       0.2595
     12  O          5.2220   37.2840   27.3840 O.2    80  PHE80      -0.2718
     13  CB         1.9520   36.5320   27.1140 C.3    80  PHE80       0.0547
     14  CG         1.9870   37.9950   27.4770 C.ar   80  PHE80      -0.0202
     15  CD1        2.2910   38.9290   26.5240 C.ar   80  PHE80      -0.0042
     16  CD2        1.7360   38.4160   28.7770 C.ar   80  PHE80      -0.0042
     17  CE1        2.3390   40.2910   26.8600 C.ar   80  PHE80      -0.0003
     18  CE2        1.7780   39.7560   29.1140 C.ar   80  PHE80      -0.0003
     19  CZ         2.0910   40.6840   28.1700 C.ar   80  PHE80      -0.0000
     20  N          4.4580   36.7780   25.3260 N.am   81  VAL81      -0.1966
     21  CA         5.2340   37.7900   24.6050 C.3    81  VAL81       0.1727
     22  C          4.3360   38.4130   23.5770 C.2    81  VAL81       0.2616
     23  O          3.3690   37.7830   23.1410 O.2    81  VAL81      -0.2715
     24  CB         6.4860   37.2410   23.9300 C.3    81  VAL81       0.0290
     25  CG1        7.4670   36.7170   24.9740 C.3    81  VAL81       0.0023
     26  CG2        6.1740   36.1520   22.9060 C.3    81  VAL81       0.0023
     27  N          4.6180   39.6440   23.1800 N.am   82  PHE82      -0.1960
     28  CA         3.9340   40.2290   22.0200 C.3    82  PHE82       0.1771
     29  C          4.5140   39.6870   20.7280 C.2    82  PHE82       0.2620
     30  O          3.8650   39.7140   19.6840 O.2    82  PHE82      -0.2715
     31  CB         4.0950   41.7420   21.9970 C.3    82  PHE82       0.0574
     32  CG         3.4360   42.4560   23.1510 C.ar   82  PHE82      -0.0200
     33  CD1        2.0710   42.5050   23.2360 C.ar   82  PHE82      -0.0042
     34  CD2        4.1700   43.1120   24.1070 C.ar   82  PHE82      -0.0042
     35  CE1        1.4450   43.1500   24.3120 C.ar   82  PHE82      -0.0003
     36  CE2        3.5380   43.7820   25.1680 C.ar   82  PHE82      -0.0003
     37  CZ         2.1880   43.8210   25.2430 C.ar   82  PHE82      -0.0000
     38  N          5.7350   39.1730   20.7870 N.am   83  GLY83      -0.1940
     39  CA         6.4080   38.7070   19.5920 C.3    83  GLY83       0.2014
     40  C          7.7770   38.1200   19.8820 C.2    83  GLY83       0.2638
     41  O          8.2200   38.0820   21.0300 O.2    83  GLY83      -0.2714
     42  N          8.4530   37.6720   18.8390 N.am   84  GLU84      -0.1977
     43  CA         9.8180   37.1330   18.9050 C.3    84  GLU84       0.1602
     44  C         10.4600   37.4430   17.5470 C.2    84  GLU84       0.2287
     45  O          9.8140   37.3800   16.5110 O.2    84  GLU84      -0.2864
     46  CB         9.8860   35.6170   19.2360 C.3    84  GLU84       0.0415
     47  CG        11.3430   35.1060   19.2620 C.3    84  GLU84       0.1163
     48  CD        11.5380   33.7290   19.8480 C.2    84  GLU84       0.3649
     49  OE1       10.6130   33.1680   20.4300 O.co2  84  GLU84      -0.2457
     50  OE2       12.6540   33.1950   19.7220 O.co2  84  GLU84      -0.2457
     51  N          8.0690   47.2760   15.7630 N.3   117  HIS117     -0.1226
     52  CA         9.0140   46.8550   16.7800 C.3   117  HIS117      0.1752
     53  C          9.7250   45.5620   16.3700 C.2   117  HIS117      0.2595
     54  O         10.9440   45.4300   16.4250 O.2   117  HIS117     -0.2718
     55  CB         8.2780   46.6930   18.1250 C.3   117  HIS117      0.0759
     56  CG         9.1530   46.2400   19.2740 C.ar  117  HIS117      0.0818
     57  ND1        9.7370   47.1360   20.1630 N.ar  117  HIS117     -0.2268
     58  CD2        9.5550   45.0100   19.6820 C.ar  117  HIS117      0.1154
     59  CE1       10.4430   46.4550   21.0610 C.ar  117  HIS117      0.1986
     60  NE2       10.3180   45.1550   20.8140 N.ar  117  HIS117     -0.2212
     61  N          8.9240   44.5490   16.0110 N.am  118  GLU118     -0.1979
     62  CA         9.5030   43.2520   15.5900 C.3   118  GLU118      0.1602
     63  C         10.4060   43.3520   14.3760 C.2   118  GLU118      0.2287
     64  O         11.4800   42.7540   14.3230 O.2   118  GLU118     -0.2864
     65  CB         8.3920   42.2240   15.3170 C.3   118  GLU118      0.0415
     66  CG         7.5660   41.8400   16.5460 C.3   118  GLU118      0.1163
     67  CD         8.4080   41.3830   17.7030 C.2   118  GLU118      0.3649
     68  OE1        9.4490   40.6980   17.4950 O.co2 118  GLU118     -0.2457
     69  OE2        8.0950   41.7570   18.8570 O.co2 118  GLU118     -0.2457
     70  N         13.7610   44.7490   15.2070 N.3   121  HIS121     -0.1241
     71  CA        14.6760   43.7440   15.7040 C.3   121  HIS121      0.1621
     72  C         15.3000   42.9850   14.5390 C.2   121  HIS121      0.2264
     73  O         16.4960   42.7400   14.5520 O.2   121  HIS121     -0.2867
     74  CB        13.9930   42.6990   16.5840 C.3   121  HIS121      0.0745
     75  CG        13.7010   43.1210   18.0030 C.ar  121  HIS121      0.0817
     76  ND1       14.6190   43.7410   18.8180 N.ar  121  HIS121     -0.2268
     77  CD2       12.5720   43.0120   18.7360 C.ar  121  HIS121      0.1154
     78  CE1       14.0910   43.9400   20.0160 C.ar  121  HIS121      0.1986
     79  NE2       12.8360   43.5210   19.9840 N.ar  121  HIS121     -0.2212
     80  N         16.5660   46.5090   22.0990 N.3   127  HIS127     -0.1241
     81  CA        15.7110   47.4040   22.8270 C.3   127  HIS127      0.1621
     82  C         16.3980   48.7320   23.0730 C.2   127  HIS127      0.2264
     83  O         17.6160   48.7820   23.3130 O.2   127  HIS127     -0.2867
     84  CB        15.2350   46.7630   24.1140 C.3   127  HIS127      0.0745
     85  CG        14.2210   45.7080   23.8520 C.ar  127  HIS127      0.0817
     86  ND1       14.0930   44.5590   24.5970 N.ar  127  HIS127     -0.2268
     87  CD2       13.3110   45.6280   22.8650 C.ar  127  HIS127      0.1154
     88  CE1       13.1330   43.8100   24.0770 C.ar  127  HIS127      0.1986
     89  NE2       12.6410   44.4410   23.0360 N.ar  127  HIS127     -0.2212
     90  N         11.2020   48.2230   24.8690 N.3   136  PHE136     -0.1227
     91  CA        10.4660   47.0710   25.3740 C.3   136  PHE136      0.1736
     92  C          9.2140   47.5720   26.0910 C.2   136  PHE136      0.2596
     93  O          9.2380   48.5720   26.8240 O.2   136  PHE136     -0.2718
     94  CB        11.3280   46.2790   26.3210 C.3   136  PHE136      0.0547
     95  CG        10.5690   45.2160   27.0690 C.ar  136  PHE136     -0.0202
     96  CD1       10.4080   43.9600   26.5070 C.ar  136  PHE136     -0.0042
     97  CD2       10.0370   45.4540   28.3370 C.ar  136  PHE136     -0.0042
     98  CE1        9.7130   42.9690   27.1720 C.ar  136  PHE136     -0.0003
     99  CE2        9.3650   44.4620   29.0100 C.ar  136  PHE136     -0.0003
    100  CZ         9.2090   43.2150   28.4240 C.ar  136  PHE136     -0.0000
    101  N          8.1090   46.8840   25.8630 N.am  137  SER137     -0.1952
    102  CA         6.8430   47.1680   26.5460 C.3   137  SER137      0.1924
    103  C          6.4620   45.9690   27.3980 C.2   137  SER137      0.2314
    104  O          6.2420   44.8660   26.8870 O.2   137  SER137     -0.2863
    105  CB         5.7170   47.4210   25.5480 C.3   137  SER137      0.2116
    106  OG         5.9780   48.5290   24.6940 O.3   137  SER137     -0.2180
@<TRIPOS>BOND
     1    64    63    2
     2    63    62    1
     3    72    73    2
     4    72    71    1
     5    70    71    1
     6    65    62    1
     7    65    66    1
     8    62    61    1
     9    71    74    1
    10    51    52    1
    11    61    53   am
    12    53    54    2
    13    53    52    1
    14    45    44    2
    15    66    67    1
    16    74    75    1
    17    52    55    1
    18    68    67   ar
    19    44    43    1
    20    67    69   ar
    21    75    77   ar
    22    75    76   ar
    23    55    56    1
    24    77    79   ar
    25    76    78   ar
    26    42    43    1
    27    42    40   am
    28    43    46    1
    29    46    47    1
    30    47    48    1
    31    56    58   ar
    32    56    57   ar
    33    39    40    1
    34    39    38    1
    35    58    60   ar
    36    30    29    2
    37    50    48   ar
    38    48    49   ar
    39    40    41    2
    40    79    78   ar
    41    57    59   ar
    42    29    38   am
    43    29    28    1
    44    60    59   ar
    45    31    28    1
    46    31    32    1
    47    28    27    1
    48    80    81    1
    49    81    82    1
    50    81    84    1
    51    87    89   ar
    52    87    85   ar
    53    26    24    1
    54    89    88   ar
    55    82    83    2
    56    23    22    2
    57    32    33   ar
    58    32    34   ar
    59    27    22   am
    60    33    35   ar
    61    22    21    1
    62    85    84    1
    63    85    86   ar
    64    24    21    1
    65    24    25    1
    66    88    86   ar
    67    34    36   ar
    68    35    37   ar
    69    21    20    1
    70   106   105    1
    71    90    91    1
    72    36    37   ar
    73    20    11   am
    74    91    92    1
    75    91    94    1
    76   105   102    1
    77   101    92   am
    78   101   102    1
    79    92    93    2
    80    94    95    1
    81    96    95   ar
    82    96    98   ar
    83    15    17   ar
    84    15    14   ar
    85   102   103    1
    86    11    10    1
    87    11    12    2
    88    17    19   ar
    89   104   103    2
    90    95    97   ar
    91    13    10    1
    92    13    14    1
    93    98   100   ar
    94    10     9    1
    95    14    16   ar
    96     6     5    1
    97     6     7    1
    98    19    18   ar
    99     8     7    1
   100    97    99   ar
   101   100    99   ar
   102     5     2    1
   103    16    18   ar
   104     4     3    2
   105     2     1    1
   106     2     3    1
