@<TRIPOS>MOLECULE
tmp/3zvvA00.pdb
 123 117 0 0 0
SMALL
GASTEIGER

@<TRIPOS>ATOM
      1  N         47.6260   17.2000   40.7290 N.3   554  MET554     -0.1245
      2  CA        47.3630   18.1190   39.6290 C.3   554  MET554      0.1570
      3  C         46.6190   19.3460   40.1240 C.2   554  MET554      0.2261
      4  O         45.8140   19.2560   41.0570 O.2   554  MET554     -0.2867
      5  CB        46.6420   17.4020   38.4880 C.3   554  MET554      0.0387
      6  CG        47.5300   16.3720   37.8280 C.3   554  MET554      0.0595
      7  SD        46.8510   15.5370   36.4260 S.3   554  MET554     -0.1393
      8  CE        47.0670   14.0580   37.0260 C.3   554  MET554      0.0692
      9  N         48.9930   12.4880   39.7800 N.3   562  TRP562     -0.1241
     10  CA        49.8550   12.2640   38.6310 C.3   562  TRP562      0.1605
     11  C         50.9470   11.3350   39.1490 C.2   562  TRP562      0.2264
     12  O         51.7970   11.7690   39.9300 O.2   562  TRP562     -0.2867
     13  CB        50.4380   13.6070   38.1550 C.3   562  TRP562      0.0550
     14  CG        51.4930   13.5220   37.0880 C.ar  562  TRP562      0.0003
     15  CD1       52.8020   13.1580   37.2510 C.ar  562  TRP562      0.0946
     16  CD2       51.3710   13.9790   35.7370 C.ar  562  TRP562      0.0152
     17  NE1       53.4830   13.2910   36.0660 N.ar  562  TRP562     -0.2442
     18  CE2       52.6400   13.8270   35.1280 C.ar  562  TRP562      0.0810
     19  CE3       50.3050   14.4920   34.9730 C.ar  562  TRP562      0.0012
     20  CZ2       52.8740   14.1780   33.8030 C.ar  562  TRP562      0.0191
     21  CZ3       50.5320   14.8180   33.6480 C.ar  562  TRP562      0.0001
     22  CH2       51.8000   14.6560   33.0730 C.ar  562  TRP562      0.0015
     23  N         47.3600    8.6470   35.6180 N.3   581  ILE581     -0.1245
     24  CA        46.5830    9.5960   36.4150 C.3   581  ILE581      0.1561
     25  C         45.4860    8.8220   37.1830 C.2   581  ILE581      0.2260
     26  O         44.7910    8.0170   36.5930 O.2   581  ILE581     -0.2867
     27  CB        45.9580   10.7470   35.5750 C.3   581  ILE581      0.0252
     28  CG1       47.0240   11.7140   35.0660 C.3   581  ILE581      0.0019
     29  CG2       44.8710   11.4830   36.3870 C.3   581  ILE581      0.0019
     30  CD1       46.6160   12.5000   33.8520 C.3   581  ILE581      0.0001
     31  N         42.0770    9.6180   39.2910 N.3   583  LYS583     -0.1245
     32  CA        41.1480   10.7170   39.5020 C.3   583  LYS583      0.1561
     33  C         39.8190   10.2850   40.0800 C.2   583  LYS583      0.2260
     34  O         39.2180    9.3010   39.6280 O.2   583  LYS583     -0.2867
     35  CB        40.9290   11.4860   38.1680 C.3   583  LYS583      0.0271
     36  CG        39.9780   12.6800   38.2550 C.3   583  LYS583      0.0035
     37  CD        40.1760   13.6970   37.1830 C.3   583  LYS583      0.0206
     38  CE        39.7270   13.2060   35.8350 C.3   583  LYS583      0.1093
     39  NZ        39.4640   14.3540   34.9350 N.3   583  LYS583     -0.1314
     40  N         43.4660    7.5140   24.3330 N.3   617  TYR617     -0.1241
     41  CA        44.3030    7.1090   25.4540 C.3   617  TYR617      0.1605
     42  C         43.6470    6.0410   26.3300 C.2   617  TYR617      0.2264
     43  O         42.4220    5.8940   26.3310 O.2   617  TYR617     -0.2867
     44  CB        44.7100    8.3540   26.2690 C.3   617  TYR617      0.0534
     45  CG        43.5170    9.1780   26.6880 C.ar  617  TYR617     -0.0201
     46  CD1       42.8190    8.8850   27.8510 C.ar  617  TYR617     -0.0009
     47  CD2       43.0930   10.2640   25.9260 C.ar  617  TYR617     -0.0009
     48  CE1       41.7330    9.6460   28.2490 C.ar  617  TYR617      0.0417
     49  CE2       41.9930   11.0290   26.3080 C.ar  617  TYR617      0.0417
     50  CZ        41.3070   10.7060   27.4660 C.ar  617  TYR617      0.1957
     51  OH        40.2460   11.4720   27.9010 O.3   617  TYR617     -0.2866
     52  N         43.7880    6.8690   34.1780 N.3   629  ILE629     -0.1231
     53  CA        43.9420    7.4460   32.8470 C.3   629  ILE629      0.1692
     54  C         45.3960    7.3800   32.4420 C.2   629  ILE629      0.2592
     55  O         46.3020    7.6940   33.2290 O.2   629  ILE629     -0.2718
     56  CB        43.4490    8.9110   32.8320 C.3   629  ILE629      0.0266
     57  CG1       41.9610    9.0320   33.1690 C.3   629  ILE629      0.0019
     58  CG2       43.7580    9.5920   31.5300 C.3   629  ILE629      0.0020
     59  CD1       41.6230   10.2700   34.0160 C.3   629  ILE629      0.0001
     60  N         45.6250    6.9980   31.2000 N.am  630  GLU630     -0.1966
     61  CA        46.9660    6.9930   30.6330 C.3   630  GLU630      0.1733
     62  C         47.4650    8.4330   30.4230 C.2   630  GLU630      0.2616
     63  O         46.7560    9.2730   29.8630 O.2   630  GLU630     -0.2715
     64  CB        46.9780    6.2420   29.3070 C.3   630  GLU630      0.0429
     65  CG        48.2940    6.3440   28.5550 C.3   630  GLU630      0.1163
     66  CD        48.2550    5.9240   27.1020 C.2   630  GLU630      0.3649
     67  OE1       47.2360    5.3470   26.6630 O.co2 630  GLU630     -0.2457
     68  OE2       49.2630    6.1530   26.4000 O.co2 630  GLU630     -0.2457
     69  N         48.6750    8.7040   30.9020 N.am  631  ILE631     -0.1963
     70  CA        49.3640    9.9750   30.6900 C.3   631  ILE631      0.1727
     71  C         50.0990    9.9110   29.3430 C.2   631  ILE631      0.2616
     72  O         51.0220    9.1150   29.1780 O.2   631  ILE631     -0.2715
     73  CB        50.4020   10.2980   31.7930 C.3   631  ILE631      0.0290
     74  CG1       49.7120   10.5540   33.1280 C.3   631  ILE631      0.0022
     75  CG2       51.3030   11.5050   31.3630 C.3   631  ILE631      0.0023
     76  CD1       50.6720   10.8930   34.2370 C.3   631  ILE631      0.0001
     77  N         49.7230   10.7890   28.4210 N.am  632  VAL632     -0.1977
     78  CA        50.4010   10.9430   27.1340 C.3   632  VAL632      0.1596
     79  C         51.5890   11.8370   27.4160 C.2   632  VAL632      0.2287
     80  O         51.4400   12.9470   27.9340 O.2   632  VAL632     -0.2864
     81  CB        49.4660   11.5500   26.0600 C.3   632  VAL632      0.0276
     82  CG1       50.2380   11.9380   24.8040 C.3   632  VAL632      0.0022
     83  CG2       48.3180   10.5950   25.7350 C.3   632  VAL632      0.0022
     84  N         52.7460   16.3770   26.6130 N.3   635  ALA635     -0.1245
     85  CA        51.4370   16.8990   26.2160 C.3   635  ALA635      0.1562
     86  C         50.9800   17.9710   27.1760 C.2   635  ALA635      0.2260
     87  O         51.2090   17.8770   28.3830 O.2   635  ALA635     -0.2867
     88  CB        50.4140   15.7960   26.1440 C.3   635  ALA635      0.0290
     89  N         44.0500   18.8600   24.4170 N.3   703  MET703     -0.1245
     90  CA        45.4970   18.8220   24.6030 C.3   703  MET703      0.1570
     91  C         46.2150   18.6300   23.2740 C.2   703  MET703      0.2261
     92  O         45.5910   18.2770   22.2760 O.2   703  MET703     -0.2867
     93  CB        45.8980   17.6880   25.5820 C.3   703  MET703      0.0387
     94  CG        45.3560   17.8580   26.9920 C.3   703  MET703      0.0595
     95  SD        46.0770   16.6390   28.0670 S.3   703  MET703     -0.1393
     96  CE        47.5020   17.4690   28.6130 C.3   703  MET703      0.0692
     97  N         44.3380   16.2490   20.7940 N.3   711  PHE711     -0.1241
     98  CA        43.4300   15.2420   21.3290 C.3   711  PHE711      0.1605
     99  C         42.5510   15.8090   22.4450 C.2   711  PHE711      0.2264
    100  O         43.0320   16.5760   23.2900 O.2   711  PHE711     -0.2867
    101  CB        44.1520   13.9420   21.7510 C.3   711  PHE711      0.0534
    102  CG        45.0930   14.0760   22.9200 C.ar  711  PHE711     -0.0203
    103  CD1       46.3830   14.5800   22.7460 C.ar  711  PHE711     -0.0042
    104  CD2       44.7110   13.6610   24.1860 C.ar  711  PHE711     -0.0042
    105  CE1       47.2620   14.7050   23.8310 C.ar  711  PHE711     -0.0003
    106  CE2       45.5930   13.7480   25.2650 C.ar  711  PHE711     -0.0003
    107  CZ        46.8690   14.2670   25.0800 C.ar  711  PHE711     -0.0000
    108  N         40.0690   15.4470   25.7970 N.3   713  ILE713     -0.1231
    109  CA        40.0790   14.7000   27.0600 C.3   713  ILE713      0.1692
    110  C         38.8050   14.9820   27.8580 C.2   713  ILE713      0.2592
    111  O         37.9850   15.7960   27.4390 O.2   713  ILE713     -0.2718
    112  CB        41.3530   15.0620   27.8790 C.3   713  ILE713      0.0266
    113  CG1       41.3690   16.5570   28.2930 C.3   713  ILE713      0.0019
    114  CG2       42.6490   14.6600   27.1610 C.3   713  ILE713      0.0020
    115  CD1       42.3960   16.9490   29.4130 C.3   713  ILE713      0.0001
    116  N         38.6440   14.3360   29.0210 N.am  714  ASP714     -0.1974
    117  CA        37.5800   14.6360   30.0140 C.3   714  ASP714      0.1709
    118  C         36.1530   14.5390   29.4190 C.2   714  ASP714      0.2293
    119  O         35.3850   15.4870   29.4630 O.2   714  ASP714     -0.2864
    120  CB        37.8860   16.0340   30.6190 C.3   714  ASP714      0.1436
    121  CG        37.5500   16.2950   32.0820 C.2   714  ASP714      0.3671
    122  OD1       37.6670   15.3560   32.8950 O.co2 714  ASP714     -0.2456
    123  OD2       37.2360   17.4720   32.4280 O.co2 714  ASP714     -0.2456
@<TRIPOS>BOND
     1    97    98    1
     2    98   101    1
     3    98    99    1
     4   101   102    1
     5    92    91    2
     6    99   100    2
     7   103   102   ar
     8   103   105   ar
     9   102   104   ar
    10    91    90    1
    11   105   107   ar
    12   104   106   ar
    13    40    41    1
    14    89    90    1
    15    90    93    1
    16    82    81    1
    17   107   106   ar
    18    41    44    1
    19    41    42    1
    20    93    94    1
    21    83    81    1
    22   108   109    1
    23    47    49   ar
    24    47    45   ar
    25    81    78    1
    26    88    85    1
    27    85    84    1
    28    85    86    1
    29    44    45    1
    30    49    50   ar
    31    42    43    2
    32    68    66   ar
    33    67    66   ar
    34    45    46   ar
    35    94    95    1
    36   109   110    1
    37   109   112    1
    38    66    65    1
    39    78    79    1
    40    78    77    1
    41   114   112    1
    42    86    87    2
    43    79    80    2
    44   111   110    2
    45    50    51    1
    46    50    48   ar
    47    46    48   ar
    48   110   116   am
    49   112   113    1
    50    95    96    1
    51   113   115    1
    52    77    71   am
    53    65    64    1
    54   116   117    1
    55    72    71    2
    56    64    61    1
    57    71    70    1
    58   118   119    2
    59   118   117    1
    60    63    62    2
    61   117   120    1
    62    62    61    1
    63    62    69   am
    64   120   121    1
    65    61    60    1
    66    70    69    1
    67    70    73    1
    68    60    54   am
    69    75    73    1
    70    58    56    1
    71    73    74    1
    72   121   123   ar
    73   121   122   ar
    74    54    53    1
    75    54    55    2
    76    56    53    1
    77    56    57    1
    78    53    52    1
    79    22    21   ar
    80    22    20   ar
    81    74    76    1
    82    57    59    1
    83    21    19   ar
    84    20    18   ar
    85    30    28    1
    86    39    38    1
    87    19    16   ar
    88    28    27    1
    89    18    16   ar
    90    18    17   ar
    91    27    29    1
    92    27    24    1
    93    23    24    1
    94    16    14   ar
    95    38    37    1
    96    17    15   ar
    97    24    25    1
    98     7     8    1
    99     7     6    1
   100    26    25    2
   101    14    15   ar
   102    14    13    1
   103    37    36    1
   104     6     5    1
   105    13    10    1
   106    35    36    1
   107    35    32    1
   108     5     2    1
   109    10    11    1
   110    10     9    1
   111    11    12    2
   112    31    32    1
   113    32    33    1
   114    34    33    2
   115     2     3    1
   116     2     1    1
   117     3     4    2
