@<TRIPOS>MOLECULE
tmp/3zvwB00.pdb
 106 99 0 0 0
SMALL
GASTEIGER

@<TRIPOS>ATOM
      1  N         56.7350   23.0680   29.3560 N.3    48  ALA48      -0.1231
      2  CA        57.9200   22.7360   30.1610 C.3    48  ALA48       0.1694
      3  C         57.9610   23.5530   31.4830 C.2    48  ALA48       0.2592
      4  O         56.9240   23.8070   32.0880 O.2    48  ALA48      -0.2718
      5  CB        59.2150   22.9160   29.3430 C.3    48  ALA48       0.0304
      6  N         59.1470   23.9750   31.9070 N.am   49  SER49      -0.1952
      7  CA        59.3270   24.6910   33.1800 C.3    49  SER49       0.1924
      8  C         58.4550   25.9510   33.3910 C.2    49  SER49       0.2314
      9  O         58.3360   26.4420   34.5280 O.2    49  SER49      -0.2863
     10  CB        60.8040   25.0460   33.3570 C.3    49  SER49       0.2116
     11  OG        61.1850   25.1310   34.7230 O.3    49  SER49      -0.2180
     12  N         55.9030   26.2680   36.3040 N.3    52  LYS52      -0.1245
     13  CA        56.2300   26.7810   37.6520 C.3    52  LYS52       0.1561
     14  C         55.6600   28.1900   37.9480 C.2    52  LYS52       0.2260
     15  O         55.5300   28.5750   39.1100 O.2    52  LYS52      -0.2867
     16  CB        57.7420   26.7640   37.8890 C.3    52  LYS52       0.0271
     17  CG        58.3620   25.3660   37.8140 C.3    52  LYS52       0.0035
     18  CD        59.8300   25.3610   38.2590 C.3    52  LYS52       0.0206
     19  CE        60.3720   23.9330   38.2880 C.3    52  LYS52       0.1093
     20  NZ        60.6190   23.4140   36.8970 N.3    52  LYS52      -0.1314
     21  N         66.6000   16.6000   38.5240 N.3   147  TYR147     -0.1241
     22  CA        65.3380   17.2060   38.1180 C.3   147  TYR147      0.1605
     23  C         64.1870   16.1990   38.1830 C.2   147  TYR147      0.2264
     24  O         63.0350   16.5840   38.0530 O.2   147  TYR147     -0.2867
     25  CB        65.4540   17.8330   36.7100 C.3   147  TYR147      0.0534
     26  CG        65.7160   16.8380   35.5910 C.ar  147  TYR147     -0.0201
     27  CD1       64.6590   16.1570   34.9740 C.ar  147  TYR147     -0.0009
     28  CD2       67.0180   16.5870   35.1400 C.ar  147  TYR147     -0.0009
     29  CE1       64.8970   15.2200   33.9550 C.ar  147  TYR147      0.0417
     30  CE2       67.2600   15.6640   34.1010 C.ar  147  TYR147      0.0417
     31  CZ        66.1870   14.9970   33.5160 C.ar  147  TYR147      0.1957
     32  OH        66.4010   14.0870   32.4950 O.3   147  TYR147     -0.2866
     33  N         64.8740   26.8570   38.7820 N.3   298  SER298     -0.1217
     34  CA        63.7690   26.0430   38.2670 C.3   298  SER298      0.1889
     35  C         63.7650   24.6610   38.9320 C.2   298  SER298      0.2288
     36  O         63.9550   23.6260   38.2660 O.2   298  SER298     -0.2866
     37  CB        63.8750   25.9500   36.7440 C.3   298  SER298      0.2089
     38  OG        62.6780   25.5100   36.1520 O.3   298  SER298     -0.2183
     39  N         62.4330   21.4980   40.2410 N.3   300  ASN300     -0.1240
     40  CA        61.2740   20.6200   40.0040 C.3   300  ASN300      0.1653
     41  C         60.6810   20.0120   41.3010 C.2   300  ASN300      0.2266
     42  O         59.4590   19.9050   41.4550 O.2   300  ASN300     -0.2867
     43  CB        61.6570   19.4710   39.0430 C.3   300  ASN300      0.1155
     44  CG        61.6740   19.8820   37.5590 C.2   300  ASN300      0.2627
     45  OD1       61.4880   21.0390   37.2010 O.2   300  ASN300     -0.2716
     46  ND2       61.8920   18.8880   36.6820 N.am  300  ASN300     -0.0877
     47  N         55.8480   21.1030   38.1820 N.3   347  SER347     -0.1202
     48  CA        57.1640   21.4760   37.6400 C.3   347  SER347      0.2020
     49  C         57.1730   21.8180   36.1550 C.2   347  SER347      0.2619
     50  O         58.0210   22.6000   35.6960 O.2   347  SER347     -0.2717
     51  CB        58.2000   20.3770   37.9270 C.3   347  SER347      0.2103
     52  OG        57.8490   19.1560   37.3130 O.3   347  SER347     -0.2182
     53  N         56.2480   21.2250   35.4050 N.am  348  GLY348     -0.1942
     54  CA        56.2910   21.2980   33.9470 C.3   348  GLY348      0.2014
     55  C         56.9840   20.1180   33.2910 C.2   348  GLY348      0.2638
     56  O         57.0620   20.0510   32.0510 O.2   348  GLY348     -0.2714
     57  N         57.4820   19.1820   34.0970 N.am  349  LEU349     -0.1977
     58  CA        58.2080   18.0120   33.5770 C.3   349  LEU349      0.1596
     59  C         57.2830   17.1280   32.7400 C.2   349  LEU349      0.2287
     60  O         57.6800   16.5840   31.7160 O.2   349  LEU349     -0.2864
     61  CB        58.7990   17.1690   34.7220 C.3   349  LEU349      0.0297
     62  CG        60.2020   16.5260   34.6330 C.3   349  LEU349      0.0022
     63  CD1       60.3520   15.2320   35.4980 C.3   349  LEU349      0.0001
     64  CD2       60.7190   16.3000   33.1960 C.3   349  LEU349      0.0001
     65  N         68.6810   30.8230   35.4360 N.3   393  THR393     -0.1218
     66  CA        68.7710   30.1340   34.1490 C.3   393  THR393      0.1862
     67  C         68.8850   31.1060   32.9680 C.2   393  THR393      0.2287
     68  O         69.0120   30.6700   31.8220 O.2   393  THR393     -0.2866
     69  CB        67.5940   29.1800   33.9470 C.3   393  THR393      0.1770
     70  OG1       66.3680   29.8990   34.1440 O.3   393  THR393     -0.2211
     71  CG2       67.6680   28.0310   34.9490 C.3   393  THR393      0.0375
     72  N         60.9620   33.3600   33.2810 N.3   410  LYS410     -0.1231
     73  CA        61.1480   31.9360   33.5500 C.3   410  LYS410      0.1693
     74  C         61.4020   31.2320   32.2360 C.2   410  LYS410      0.2593
     75  O         60.6880   31.4570   31.2440 O.2   410  LYS410     -0.2718
     76  CB        59.8830   31.3650   34.2120 C.3   410  LYS410      0.0285
     77  CG        59.9130   29.8760   34.5160 C.3   410  LYS410      0.0035
     78  CD        60.7290   29.5650   35.7690 C.3   410  LYS410      0.0206
     79  CE        61.0190   28.0620   35.8700 C.3   410  LYS410      0.1093
     80  NZ        61.9640   27.5790   34.8290 N.3   410  LYS410     -0.1314
     81  N         62.4130   30.3630   32.2410 N.am  411  THR411     -0.1939
     82  CA        62.7950   29.5640   31.0840 C.3   411  THR411      0.2028
     83  C         62.1070   28.2030   31.1260 C.2   411  THR411      0.2643
     84  O         61.2370   27.9660   31.9640 O.2   411  THR411     -0.2714
     85  CB        64.3140   29.3390   31.1020 C.3   411  THR411      0.1808
     86  OG1       64.6720   28.8000   32.3780 O.3   411  THR411     -0.2208
     87  CG2       65.0560   30.6550   30.9090 C.3   411  THR411      0.0379
     88  N         62.5140   27.2910   30.2460 N.am  412  GLY412     -0.1939
     89  CA        61.9070   25.9630   30.2110 C.3   412  GLY412      0.2014
     90  C         62.1720   25.2710   28.8970 C.2   412  GLY412      0.2640
     91  O         61.6740   25.6900   27.8610 O.2   412  GLY412     -0.2714
     92  N         62.9920   24.2230   28.9380 N.am  413  THR413     -0.1936
     93  CA        63.3440   23.4820   27.7350 C.3   413  THR413      0.2028
     94  C         63.4310   21.9850   28.0170 C.2   413  THR413      0.2642
     95  O         64.0800   21.5660   28.9710 O.2   413  THR413     -0.2714
     96  CB        64.7030   23.9760   27.1340 C.3   413  THR413      0.1808
     97  OG1       64.5420   25.2740   26.5370 O.3   413  THR413     -0.2208
     98  CG2       65.2410   23.0060   26.0920 C.3   413  THR413      0.0379
     99  N         62.7550   21.2100   27.1680 N.am  414  MET414     -0.1976
    100  CA        63.0200   19.7860   26.9720 C.3   414  MET414      0.1605
    101  C         62.8130   19.4950   25.4700 C.2   414  MET414      0.2287
    102  O         62.4660   20.3980   24.7080 O.2   414  MET414     -0.2864
    103  CB        62.1430   18.9130   27.8950 C.3   414  MET414      0.0413
    104  CG        60.6300   19.1620   27.8000 C.3   414  MET414      0.0598
    105  SD        59.6980   18.3790   29.1490 S.3   414  MET414     -0.1393
    106  CE        58.0350   18.7600   28.6150 C.3   414  MET414      0.0692
@<TRIPOS>BOND
     1   102   101    2
     2   101   100    1
     3    98    96    1
     4    97    96    1
     5   100    99    1
     6   100   103    1
     7    96    93    1
     8    99    94   am
     9    93    94    1
    10    93    92    1
    11   104   103    1
    12   104   105    1
    13    91    90    2
    14    94    95    2
    15   106   105    1
    16    90    92   am
    17    90    89    1
    18     5     2    1
    19     1     2    1
    20     2     3    1
    21    89    88    1
    22    88    83   am
    23    87    85    1
    24    82    85    1
    25    82    83    1
    26    82    81    1
    27    85    86    1
    28    83    84    2
    29    75    74    2
    30     3     6   am
    31     3     4    2
    32    60    59    2
    33    68    67    2
    34     6     7    1
    35    56    55    2
    36    74    81   am
    37    74    73    1
    38    32    31    1
    39    59    58    1
    40    67    66    1
    41     7    10    1
    42     7     8    1
    43    64    62    1
    44    72    73    1
    45    55    54    1
    46    55    57   am
    47    10    11    1
    48     8     9    2
    49    31    29   ar
    50    31    30   ar
    51    73    76    1
    52    58    57    1
    53    58    61    1
    54    69    70    1
    55    69    66    1
    56    69    71    1
    57    54    53    1
    58    29    27   ar
    59    30    28   ar
    60    66    65    1
    61    76    77    1
    62    77    78    1
    63    62    61    1
    64    62    63    1
    65    80    79    1
    66    27    26   ar
    67    28    26   ar
    68    53    49   am
    69    26    25    1
    70    50    49    2
    71    78    79    1
    72    38    37    1
    73    49    48    1
    74    12    13    1
    75    46    44   am
    76    25    22    1
    77    37    34    1
    78    20    19    1
    79    45    44    2
    80    52    51    1
    81    44    43    1
    82    48    51    1
    83    48    47    1
    84    13    16    1
    85    13    14    1
    86    17    16    1
    87    17    18    1
    88    14    15    2
    89    24    23    2
    90    22    23    1
    91    22    21    1
    92    18    19    1
    93    36    35    2
    94    34    33    1
    95    34    35    1
    96    43    40    1
    97    40    39    1
    98    40    41    1
    99    41    42    2
