@<TRIPOS>MOLECULE
tmp/3zvxA00.pdb
 108 103 0 0 0
SMALL
GASTEIGER

@<TRIPOS>ATOM
      1  N         -4.3170   16.9270   19.7590 N.3    85  ASN85      -0.1240
      2  CA        -4.7310   15.5230   19.5960 C.3    85  ASN85       0.1653
      3  C         -5.1430   15.1420   18.1240 C.2    85  ASN85       0.2266
      4  O         -6.3030   14.8040   17.8530 O.2    85  ASN85      -0.2867
      5  CB        -5.8810   15.2320   20.5680 C.3    85  ASN85       0.1155
      6  CG        -6.9750   16.3470   20.5700 C.2    85  ASN85       0.2627
      7  OD1       -6.9380   17.3350   19.7810 O.2    85  ASN85      -0.2716
      8  ND2       -7.9580   16.1880   21.4840 N.am   85  ASN85      -0.0877
      9  N         -5.9230   13.3270   14.6110 N.3    87  ALA87      -0.1231
     10  CA        -6.5870   12.0590   14.3570 C.3    87  ALA87       0.1694
     11  C         -6.9070   11.8980   12.8230 C.2    87  ALA87       0.2592
     12  O         -7.0920   12.8910   12.1200 O.2    87  ALA87      -0.2718
     13  CB        -7.8810   11.9940   15.2150 C.3    87  ALA87       0.0304
     14  N         -6.9950   10.6840   12.2940 N.am   88  ASP88      -0.1974
     15  CA        -6.8480    9.4400   13.0200 C.3    88  ASP88       0.1709
     16  C         -5.6870    8.5580   12.5530 C.2    88  ASP88       0.2293
     17  O         -5.2610    7.7270   13.2980 O.2    88  ASP88      -0.2864
     18  CB        -8.1430    8.6350   12.9110 C.3    88  ASP88       0.1436
     19  CG        -9.1520    9.0410   13.9440 C.2    88  ASP88       0.3671
     20  OD1       -9.0380    8.5920   15.0990 O.co2  88  ASP88      -0.2456
     21  OD2      -10.0210    9.8430   13.6090 O.co2  88  ASP88      -0.2456
     22  N        -15.3350    7.0260    8.9780 N.3   106  ALA106     -0.1231
     23  CA       -14.5890    8.2820    9.1450 C.3   106  ALA106      0.1694
     24  C        -14.2520    8.4950   10.6130 C.2   106  ALA106      0.2593
     25  O        -15.0230    9.0710   11.3780 O.2   106  ALA106     -0.2718
     26  CB       -15.3550    9.4760    8.5920 C.3   106  ALA106      0.0304
     27  N        -13.0900    8.0300   11.0090 N.am  107  GLY107     -0.1942
     28  CA       -12.7100    8.1060   12.3940 C.3   107  GLY107      0.2014
     29  C        -11.6920    7.0420   12.7180 C.2   107  GLY107      0.2639
     30  O        -10.7640    6.8000   11.9350 O.2   107  GLY107     -0.2714
     31  N        -11.8430    6.4300   13.8940 N.am  108  GLY108     -0.1954
     32  CA       -10.9120    5.4150   14.3340 C.3   108  GLY108      0.1869
     33  C        -10.8720    4.1440   13.4930 C.2   108  GLY108      0.2309
     34  O         -9.9480    3.3290   13.6480 O.2   108  GLY108     -0.2863
     35  N         -4.2590    8.5520   17.0870 N.3   134  PHE134     -0.1241
     36  CA        -5.3030    8.8020   18.0910 C.3   134  PHE134      0.1605
     37  C         -5.7650    7.4710   18.7150 C.2   134  PHE134      0.2264
     38  O         -6.2290    6.5690   18.0140 O.2   134  PHE134     -0.2867
     39  CB        -6.4610    9.5700   17.4600 C.3   134  PHE134      0.0534
     40  CG        -7.4820   10.0420   18.4560 C.ar  134  PHE134     -0.0203
     41  CD1       -7.3270   11.2600   19.1220 C.ar  134  PHE134     -0.0042
     42  CD2       -8.6090    9.2680   18.7290 C.ar  134  PHE134     -0.0042
     43  CE1       -8.2830   11.6850   20.0730 C.ar  134  PHE134     -0.0003
     44  CE2       -9.5560    9.6750   19.6730 C.ar  134  PHE134     -0.0003
     45  CZ        -9.3990   10.8840   20.3270 C.ar  134  PHE134     -0.0000
     46  N         -7.3830    7.3760   22.1710 N.3   136  ALA136     -0.1245
     47  CA        -8.2890    7.5620   23.3330 C.3   136  ALA136      0.1562
     48  C         -9.1360    6.3030   23.5650 C.2   136  ALA136      0.2260
     49  O         -9.7380    5.7520   22.6410 O.2   136  ALA136     -0.2867
     50  CB        -9.1870    8.8300   23.1840 C.3   136  ALA136      0.0290
     51  N        -11.7240    5.7270   25.2050 N.3   138  ASN138     -0.1225
     52  CA       -13.1670    5.9530   25.2220 C.3   138  ASN138      0.1785
     53  C        -13.8420    5.5940   23.9060 C.2   138  ASN138      0.2598
     54  O        -14.9940    5.1330   23.9050 O.2   138  ASN138     -0.2718
     55  CB       -13.4810    7.4260   25.6270 C.3   138  ASN138      0.1169
     56  CG       -13.3330    8.4320   24.4530 C.2   138  ASN138      0.2627
     57  OD1      -12.5260    9.3410   24.5090 O.2   138  ASN138     -0.2716
     58  ND2      -14.1500    8.2760   23.4140 N.am  138  ASN138     -0.0877
     59  N        -13.1510    5.8520   22.7870 N.am  139  SER139     -0.1938
     60  CA       -13.6800    5.5610   21.4540 C.3   139  SER139      0.2055
     61  C        -12.8220    4.5800   20.6500 C.2   139  SER139      0.2643
     62  O        -13.3020    3.9810   19.7040 O.2   139  SER139     -0.2714
     63  CB       -13.8320    6.8580   20.6450 C.3   139  SER139      0.2130
     64  OG       -12.5650    7.4610   20.4060 O.3   139  SER139     -0.2179
     65  N        -11.5370    4.4720   20.9800 N.am  140  ASN140     -0.1971
     66  CA       -10.6360    3.5810   20.2420 C.3   140  ASN140      0.1688
     67  C        -10.2060    2.4610   21.2100 C.2   140  ASN140      0.2292
     68  O         -9.0080    2.2940   21.5260 O.2   140  ASN140     -0.2864
     69  CB        -9.4300    4.3630   19.6800 C.3   140  ASN140      0.1181
     70  CG        -9.7850    5.2330   18.4450 C.2   140  ASN140      0.2629
     71  OD1       -9.2010    5.0700   17.3760 O.2   140  ASN140     -0.2716
     72  ND2      -10.7240    6.1510   18.6040 N.am  140  ASN140     -0.0877
     73  N        -10.1870   -0.7640   21.1640 N.3   142  TRP142     -0.1241
     74  CA        -9.2770   -1.7520   20.5710 C.3   142  TRP142      0.1605
     75  C         -7.7770   -1.3690   20.6020 C.2   142  TRP142      0.2264
     76  O         -6.9290   -2.2310   20.4830 O.2   142  TRP142     -0.2867
     77  CB        -9.6880   -2.0310   19.1100 C.3   142  TRP142      0.0550
     78  CG        -9.8420   -0.7600   18.3200 C.ar  142  TRP142      0.0003
     79  CD1       -8.8500   -0.0130   17.7620 C.ar  142  TRP142      0.0946
     80  CD2      -11.0600   -0.0620   18.0670 C.ar  142  TRP142      0.0152
     81  NE1       -9.3740    1.0940   17.1640 N.ar  142  TRP142     -0.2442
     82  CE2      -10.7330    1.0890   17.3340 C.ar  142  TRP142      0.0810
     83  CE3      -12.4060   -0.3100   18.3860 C.ar  142  TRP142      0.0012
     84  CZ2      -11.6950    1.9990   16.9040 C.ar  142  TRP142      0.0191
     85  CZ3      -13.3600    0.5790   17.9550 C.ar  142  TRP142      0.0001
     86  CH2      -13.0000    1.7340   17.2180 C.ar  142  TRP142      0.0015
     87  N        -12.0390   11.6890   12.3940 N.3   222  GLY222     -0.1210
     88  CA       -13.3690   11.7930   13.0280 C.3   222  GLY222      0.1956
     89  C        -13.6620   13.1910   13.5440 C.2   222  GLY222      0.2612
     90  O        -13.6920   14.1340   12.7610 O.2   222  GLY222     -0.2717
     91  N        -13.8720   13.3140   14.8580 N.am  223  GLU223     -0.1965
     92  CA       -13.9600   14.6170   15.5340 C.3   223  GLU223      0.1733
     93  C        -12.6130   15.3600   15.6420 C.2   223  GLU223      0.2616
     94  O        -12.5740   16.5930   15.6800 O.2   223  GLU223     -0.2715
     95  CB       -14.5490   14.4330   16.9340 C.3   223  GLU223      0.0429
     96  CG       -16.0280   13.9890   16.9320 C.3   223  GLU223      0.1163
     97  CD       -16.5640   13.8640   18.3400 C.2   223  GLU223      0.3649
     98  OE1      -15.7590   14.0350   19.2850 O.co2 223  GLU223     -0.2457
     99  OE2      -17.7670   13.5970   18.5160 O.co2 223  GLU223     -0.2457
    100  N        -11.5310   14.5990   15.7440 N.am  224  GLN224     -0.1977
    101  CA       -10.1720   15.1340   15.6780 C.3   224  GLN224      0.1601
    102  C         -9.6940   14.9390   14.2340 C.2   224  GLN224      0.2287
    103  O        -10.2150   14.0710   13.4990 O.2   224  GLN224     -0.2864
    104  CB        -9.2590   14.3790   16.6230 C.3   224  GLN224      0.0394
    105  CG        -9.1890   14.8790   18.0340 C.3   224  GLN224      0.0908
    106  CD       -10.4800   15.4150   18.5360 C.2   224  GLN224      0.2608
    107  OE1      -10.6280   16.6300   18.7390 O.2   224  GLN224     -0.2717
    108  NE2      -11.4400   14.5240   18.7430 N.am  224  GLN224     -0.0878
@<TRIPOS>BOND
     1    26    23    1
     2    22    23    1
     3    23    24    1
     4    24    27   am
     5    24    25    2
     6    27    28    1
     7    30    29    2
     8    12    11    2
     9    14    11   am
    10    14    15    1
    11    28    29    1
    12    87    88    1
    13    16    15    1
    14    16    17    2
    15    29    31   am
    16    90    89    2
    17    11    10    1
    18    18    15    1
    19    18    19    1
    20    88    89    1
    21    33    34    2
    22    33    32    1
    23   103   102    2
    24    89    91   am
    25    21    19   ar
    26    31    32    1
    27    19    20   ar
    28   102   101    1
    29    10     9    1
    30    10    13    1
    31    91    92    1
    32    92    93    1
    33    92    95    1
    34    93    94    2
    35    93   100   am
    36   101   100    1
    37   101   104    1
    38   104   105    1
    39    84    86   ar
    40    84    82   ar
    41    96    95    1
    42    96    97    1
    43    35    36    1
    44    81    82   ar
    45    81    79   ar
    46    86    85   ar
    47    82    80   ar
    48    71    70    2
    49    39    36    1
    50    39    40    1
    51    79    78   ar
    52     4     3    2
    53    85    83   ar
    54    38    37    2
    55   105   106    1
    56    80    78   ar
    57    80    83   ar
    58    36    37    1
    59     3     2    1
    60    78    77    1
    61    97    99   ar
    62    97    98   ar
    63    70    72   am
    64    70    69    1
    65    40    42   ar
    66    40    41   ar
    67   106   107    2
    68   106   108   am
    69    42    44   ar
    70    77    74    1
    71    41    43   ar
    72     2     1    1
    73     2     5    1
    74    44    45   ar
    75    69    66    1
    76    62    61    2
    77     7     6    2
    78    43    45   ar
    79    66    65    1
    80    66    67    1
    81    64    63    1
    82    76    75    2
    83     5     6    1
    84     6     8   am
    85    74    75    1
    86    74    73    1
    87    63    60    1
    88    61    65   am
    89    61    60    1
    90    67    68    2
    91    60    59    1
    92    46    47    1
    93    49    48    2
    94    59    53   am
    95    50    47    1
    96    47    48    1
    97    58    56   am
    98    54    53    2
    99    53    52    1
   100    56    57    2
   101    56    55    1
   102    51    52    1
   103    52    55    1
