@<TRIPOS>MOLECULE
tmp/3zw0C00.pdb
 104 101 0 0 0
SMALL
GASTEIGER

@<TRIPOS>ATOM
      1  N         -7.8050    8.1230   -1.5350 N.3     8  TRP8       -0.1241
      2  CA        -8.8400    8.7380   -0.7110 C.3     8  TRP8        0.1605
      3  C         -8.2860    9.6320    0.3570 C.2     8  TRP8        0.2264
      4  O         -7.1650    9.4990    0.8420 O.2     8  TRP8       -0.2867
      5  CB        -9.7240    7.6890   -0.0050 C.3     8  TRP8        0.0550
      6  CG        -9.0090    6.8910    1.0360 C.ar    8  TRP8        0.0003
      7  CD1       -8.8730    7.1870    2.3620 C.ar    8  TRP8        0.0946
      8  CD2       -8.2710    5.6680    0.8210 C.ar    8  TRP8        0.0152
      9  NE1       -8.1180    6.2150    2.9890 N.ar    8  TRP8       -0.2442
     10  CE2       -7.7310    5.2800    2.0680 C.ar    8  TRP8        0.0810
     11  CE3       -7.9900    4.8860   -0.3060 C.ar    8  TRP8        0.0012
     12  CZ2       -6.9600    4.1240    2.2230 C.ar    8  TRP8        0.0191
     13  CZ3       -7.2380    3.7420   -0.1390 C.ar    8  TRP8        0.0001
     14  CH2       -6.7170    3.3750    1.1100 C.ar    8  TRP8        0.0015
     15  N         -3.6660    3.2740   -2.9420 N.3    15  ARG15      -0.1245
     16  CA        -3.4080    1.8500   -3.0630 C.3    15  ARG15       0.1563
     17  C         -3.2930    1.4880   -4.5400 C.2    15  ARG15       0.2260
     18  O         -4.1130    1.9350   -5.3570 O.2    15  ARG15      -0.2867
     19  CB        -4.5370    1.0240   -2.4090 C.3    15  ARG15       0.0307
     20  CG        -4.7440    1.3430   -0.9660 C.3    15  ARG15       0.0489
     21  CD        -3.6450    0.7710   -0.0700 C.3    15  ARG15       0.2205
     22  NE        -3.8590    1.0340    1.3490 N.pl3  15  ARG15      -0.0865
     23  CZ        -3.4620    2.1210    2.0200 C.cat  15  ARG15       0.5346
     24  NH1       -2.8120    3.1260    1.4350 N.pl3  15  ARG15       0.1354
     25  NH2       -3.7110    2.2130    3.2930 N.pl3  15  ARG15       0.1354
     26  N         -0.7120   -5.8080   -3.3440 N.3    26  GLU26      -0.1245
     27  CA        -1.1170   -4.4300   -3.0380 C.3    26  GLU26       0.1567
     28  C          0.0300   -3.6550   -2.4520 C.2    26  GLU26       0.2260
     29  O          0.6980   -4.1310   -1.5330 O.2    26  GLU26      -0.2867
     30  CB        -2.2990   -4.4660   -2.0720 C.3    26  GLU26       0.0388
     31  CG        -2.8020   -3.1170   -1.5720 C.3    26  GLU26       0.1160
     32  CD        -3.6780   -3.2480   -0.3440 C.2    26  GLU26       0.3649
     33  OE1       -3.3530   -4.0280    0.5880 O.co2  26  GLU26      -0.2457
     34  OE2       -4.7220   -2.5730   -0.2640 O.co2  26  GLU26      -0.2457
     35  N          1.0450    0.3000   -0.9180 N.3    28  CYS28      -0.1235
     36  CA         0.2900    1.2740   -0.1340 C.3    28  CYS28       0.1677
     37  C          1.1140    2.4990    0.2090 C.2    28  CYS28       0.2270
     38  O          2.2720    2.3890    0.6220 O.2    28  CYS28      -0.2867
     39  CB        -0.1170    0.6750    1.2160 C.3    28  CYS28       0.0956
     40  SG        -0.9440   -0.9480    1.1090 S.3    28  CYS28      -0.0801
     41  N          4.6260    0.6930    1.2200 N.3    35  TYR35      -0.1241
     42  CA         4.7390   -0.5910    1.8780 C.3    35  TYR35       0.1605
     43  C          3.7980   -1.5630    1.2520 C.2    35  TYR35       0.2264
     44  O          2.8670   -1.1910    0.5020 O.2    35  TYR35      -0.2867
     45  CB         4.4950   -0.4520    3.3930 C.3    35  TYR35       0.0534
     46  CG         3.0950   -0.0440    3.7860 C.ar   35  TYR35      -0.0201
     47  CD1        2.7090    1.3070    3.8470 C.ar   35  TYR35      -0.0009
     48  CD2        2.1210   -1.0130    4.0630 C.ar   35  TYR35      -0.0009
     49  CE1        1.4420    1.6640    4.2000 C.ar   35  TYR35       0.0417
     50  CE2        0.8580   -0.6540    4.3780 C.ar   35  TYR35       0.0417
     51  CZ         0.4930    0.6900    4.4510 C.ar   35  TYR35       0.1957
     52  OH        -0.7930    1.0460    4.7930 O.3    35  TYR35      -0.2866
     53  N          0.8000   -4.1480    1.2640 N.3    37  GLY37      -0.1210
     54  CA        -0.4700   -4.2650    1.9670 C.3    37  GLY37       0.1956
     55  C         -0.8700   -5.7040    2.2140 C.2    37  GLY37       0.2611
     56  O         -0.2570   -6.6340    1.6610 O.2    37  GLY37      -0.2717
     57  N         -1.8990   -5.8550    3.0490 N.am   38  ALA38      -0.1979
     58  CA        -2.4650   -7.1740    3.3930 C.3    38  ALA38       0.1597
     59  C         -3.2660   -7.8690    2.2840 C.2    38  ALA38       0.2287
     60  O         -3.6080   -9.0620    2.4070 O.2    38  ALA38      -0.2864
     61  CB        -3.3310   -7.0580    4.6380 C.3    38  ALA38       0.0319
     62  N        -12.1740    4.4830    5.0850 N.3    57  VAL57      -0.1245
     63  CA       -12.3270    3.9870    3.7150 C.3    57  VAL57       0.1561
     64  C        -13.0380    2.6540    3.5950 C.2    57  VAL57       0.2260
     65  O        -12.9430    1.7850    4.4760 O.2    57  VAL57      -0.2867
     66  CB       -10.9680    3.9310    3.0180 C.3    57  VAL57       0.0252
     67  CG1      -10.1400    2.7010    3.5140 C.3    57  VAL57       0.0019
     68  CG2      -11.1530    3.8860    1.4770 C.3    57  VAL57       0.0019
     69  N        -13.1690   -0.1290    0.4740 N.3    59  ILE59      -0.1245
     70  CA       -12.5560   -0.4890   -0.8020 C.3    59  ILE59       0.1561
     71  C        -13.2350   -1.7220   -1.3550 C.2    59  ILE59       0.2260
     72  O        -13.5240   -2.6500   -0.6020 O.2    59  ILE59      -0.2867
     73  CB       -11.0050   -0.8360   -0.6330 C.3    59  ILE59       0.0252
     74  CG1      -10.2650    0.3400    0.0510 C.3    59  ILE59       0.0019
     75  CG2      -10.3430   -1.1310   -1.9790 C.3    59  ILE59       0.0019
     76  CD1       -8.8710    0.0570    0.6070 C.3    59  ILE59       0.0001
     77  N        -12.8200   -4.2750    1.7360 N.3    74  TRP74      -0.1241
     78  CA       -12.1930   -3.7580    2.9120 C.3    74  TRP74       0.1605
     79  C        -13.1290   -2.7110    3.4850 C.2    74  TRP74       0.2264
     80  O        -13.4740   -1.7280    2.8060 O.2    74  TRP74      -0.2867
     81  CB       -10.8430   -3.0880    2.6040 C.3    74  TRP74       0.0550
     82  CG       -10.2550   -2.4520    3.8610 C.ar   74  TRP74       0.0003
     83  CD1      -10.5190   -1.2050    4.3740 C.ar   74  TRP74       0.0946
     84  CD2       -9.3240   -3.0550    4.7650 C.ar   74  TRP74       0.0152
     85  NE1       -9.7950   -0.9990    5.5230 N.ar   74  TRP74      -0.2442
     86  CE2       -9.0490   -2.1130    5.7800 C.ar   74  TRP74       0.0810
     87  CE3       -8.6680   -4.2920    4.8010 C.ar   74  TRP74       0.0012
     88  CZ2       -8.1590   -2.3630    6.8220 C.ar   74  TRP74       0.0191
     89  CZ3       -7.7620   -4.5300    5.8580 C.ar   74  TRP74       0.0001
     90  CH2       -7.5550   -3.5810    6.8620 C.ar   74  TRP74       0.0015
     91  N         -9.9430   -8.1460    4.8110 N.3    79  TRP79      -0.1241
     92  CA       -10.5720   -8.3590    3.5330 C.3    79  TRP79       0.1605
     93  C        -11.6310   -9.4670    3.5900 C.2    79  TRP79       0.2264
     94  O        -11.3200  -10.5840    4.0710 O.2    79  TRP79      -0.2867
     95  CB        -9.5230   -8.6690    2.4710 C.3    79  TRP79       0.0550
     96  CG        -8.6630   -7.4690    2.2000 C.ar   79  TRP79       0.0003
     97  CD1       -7.4830   -7.1550    2.7980 C.ar   79  TRP79       0.0946
     98  CD2       -8.9480   -6.4080    1.2810 C.ar   79  TRP79       0.0152
     99  NE1       -6.9910   -5.9840    2.2850 N.ar   79  TRP79      -0.2442
    100  CE2       -7.8690   -5.4860    1.3630 C.ar   79  TRP79       0.0810
    101  CE3       -9.9840   -6.1640    0.3690 C.ar   79  TRP79       0.0012
    102  CZ2       -7.7980   -4.3410    0.5590 C.ar   79  TRP79       0.0191
    103  CZ3       -9.9220   -5.0150   -0.4110 C.ar   79  TRP79       0.0001
    104  CH2       -8.8230   -4.1190   -0.3080 C.ar   79  TRP79       0.0015
@<TRIPOS>BOND
     1    18    17    2
     2    17    16    1
     3    26    27    1
     4    16    15    1
     5    16    19    1
     6    27    28    1
     7    27    30    1
     8    28    29    2
     9    19    20    1
    10    30    31    1
    11    75    73    1
    12    31    32    1
    13     1     2    1
    14    71    70    1
    15    71    72    2
    16    20    21    1
    17    35    36    1
    18    70    73    1
    19    70    69    1
    20     2     5    1
    21     2     3    1
    22    73    74    1
    23   103   104   ar
    24   103   101   ar
    25    32    34   ar
    26    32    33   ar
    27   104   102   ar
    28    11    13   ar
    29    11     8   ar
    30    13    14   ar
    31    36    37    1
    32    36    39    1
    33    21    22    1
    34     5     6    1
    35    74    76    1
    36    37    38    2
    37     3     4    2
    38   101    98   ar
    39    44    43    2
    40   102   100   ar
    41     8     6   ar
    42     8    10   ar
    43     6     7   ar
    44    40    39    1
    45    14    12   ar
    46    41    42    1
    47    43    42    1
    48    53    54    1
    49    98   100   ar
    50    98    96   ar
    51    22    23    2
    52   100    99   ar
    53    24    23    1
    54    68    66    1
    55    56    55    2
    56    77    78    1
    57    42    45    1
    58    54    55    1
    59    23    25    1
    60    10    12   ar
    61    10     9   ar
    62    96    95    1
    63    96    97   ar
    64    55    57   am
    65    59    60    2
    66    59    58    1
    67    99    97   ar
    68     7     9   ar
    69    95    92    1
    70    81    78    1
    71    81    82    1
    72    80    79    2
    73    78    79    1
    74    66    67    1
    75    66    63    1
    76    57    58    1
    77    58    61    1
    78    45    46    1
    79    92    93    1
    80    92    91    1
    81    93    94    2
    82    64    63    1
    83    64    65    2
    84    63    62    1
    85    46    47   ar
    86    46    48   ar
    87    47    49   ar
    88    82    83   ar
    89    82    84   ar
    90    48    50   ar
    91    49    51   ar
    92    83    85   ar
    93    50    51   ar
    94    51    52    1
    95    84    87   ar
    96    84    86   ar
    97    87    89   ar
    98    85    86   ar
    99    86    88   ar
   100    89    90   ar
   101    88    90   ar
