@<TRIPOS>MOLECULE
tmp/3zw1B01.pdb
 118 113 0 0 0
SMALL
GASTEIGER

@<TRIPOS>ATOM
      1  N          2.9060   -6.9460   -6.4950 N.3     8  TRP8       -0.1241
      2  CA         3.3890   -6.3780   -5.2590 C.3     8  TRP8        0.1605
      3  C          4.8140   -5.8800   -5.4060 C.2     8  TRP8        0.2264
      4  O          5.5530   -6.2910   -6.2950 O.2     8  TRP8       -0.2867
      5  CB         3.3370   -7.4050   -4.1320 C.3     8  TRP8        0.0550
      6  CG         4.3090   -8.5290   -4.2690 C.ar    8  TRP8        0.0003
      7  CD1        5.5810   -8.6010   -3.7490 C.ar    8  TRP8        0.0946
      8  CD2        4.0780   -9.7950   -4.9230 C.ar    8  TRP8        0.0152
      9  NE1        6.1300   -9.8290   -4.0370 N.ar    8  TRP8       -0.2442
     10  CE2        5.2300  -10.5720   -4.7650 C.ar    8  TRP8        0.0810
     11  CE3        2.9950  -10.3390   -5.6280 C.ar    8  TRP8        0.0012
     12  CZ2        5.3520  -11.8570   -5.3160 C.ar    8  TRP8        0.0191
     13  CZ3        3.1070  -11.6240   -6.1500 C.ar    8  TRP8        0.0001
     14  CH2        4.2950  -12.3560   -6.0150 C.ar    8  TRP8        0.0015
     15  N          6.7570   -7.4500   -8.6550 N.3    13  SER13      -0.1217
     16  CA         6.4320   -8.8430   -8.9690 C.3    13  SER13       0.1889
     17  C          4.9760   -8.8880   -9.4360 C.2    13  SER13       0.2288
     18  O          4.1220   -8.1990   -8.8950 O.2    13  SER13      -0.2866
     19  CB         6.5690   -9.7520   -7.7340 C.3    13  SER13       0.2089
     20  OG         7.9080   -9.9360   -7.3470 O.3    13  SER13      -0.2183
     21  N          1.9700  -11.8800  -10.6920 N.3    15  ARG15      -0.1245
     22  CA         1.5770  -13.2600  -10.9060 C.3    15  ARG15       0.1563
     23  C          0.2290  -13.2550  -11.6240 C.2    15  ARG15       0.2260
     24  O         -0.7240  -12.5500  -11.2190 O.2    15  ARG15      -0.2867
     25  CB         1.4120  -14.0400   -9.6080 C.3    15  ARG15       0.0307
     26  CG         2.6640  -14.0840   -8.7290 C.3    15  ARG15       0.0489
     27  CD         3.7450  -14.9380   -9.3500 C.3    15  ARG15       0.2205
     28  NE         4.9840  -15.0090   -8.5400 N.pl3  15  ARG15      -0.0865
     29  CZ         6.0150  -14.1580   -8.6450 C.cat  15  ARG15       0.5346
     30  NH1        6.0020  -13.1670   -9.5260 N.pl3  15  ARG15       0.1354
     31  NH2        7.0720  -14.3340   -7.8620 N.pl3  15  ARG15       0.1354
     32  N          0.2070  -20.8340  -13.3420 N.3    26  GLU26      -0.1245
     33  CA         0.6980  -19.4990  -12.9010 C.3    26  GLU26       0.1567
     34  C          1.8700  -19.0650  -13.7350 C.2    26  GLU26       0.2260
     35  O          2.7840  -19.8410  -13.9920 O.2    26  GLU26      -0.2867
     36  CB         1.1170  -19.6470  -11.4380 C.3    26  GLU26       0.0388
     37  CG         1.7090  -18.4160  -10.7360 C.3    26  GLU26       0.1160
     38  CD         2.3210  -18.7360   -9.4350 C.2    26  GLU26       0.3649
     39  OE1        3.0750  -19.7520   -9.3450 O.co2  26  GLU26      -0.2457
     40  OE2        2.1500  -18.0000   -8.4520 O.co2  26  GLU26      -0.2457
     41  N          4.7880  -15.8080  -13.9990 N.3    28  CYS28      -0.1235
     42  CA         5.3910  -14.9390  -13.0110 C.3    28  CYS28       0.1677
     43  C          6.3770  -13.9720  -13.6450 C.2    28  CYS28       0.2270
     44  O          7.0990  -14.3500  -14.5660 O.2    28  CYS28      -0.2867
     45  CB         6.2100  -15.7620  -12.0630 C.3    28  CYS28       0.0956
     46  SG         5.3940  -17.2300  -11.3420 S.3    28  CYS28      -0.0801
     47  N          9.2690  -11.0330  -12.2890 N.3    30  ASP30      -0.1239
     48  CA        10.0540  -10.4930  -11.1650 C.3    30  ASP30       0.1674
     49  C         11.1430   -9.5230  -11.7080 C.2    30  ASP30       0.2266
     50  O         12.2170   -9.4350  -11.1420 O.2    30  ASP30      -0.2867
     51  CB        10.7030  -11.5590  -10.3250 C.3    30  ASP30       0.1410
     52  CG         9.7010  -12.4940   -9.5950 C.2    30  ASP30       0.3668
     53  OD1        8.7260  -12.0260   -9.0120 O.co2  30  ASP30      -0.2456
     54  OD2       10.0260  -13.7080   -9.5390 O.co2  30  ASP30      -0.2456
     55  N          8.1690  -16.4340  -16.3660 N.3    35  TYR35      -0.1241
     56  CA         8.4860  -17.8430  -16.1400 C.3    35  TYR35       0.1605
     57  C          7.2840  -18.5230  -15.5380 C.2    35  TYR35       0.2264
     58  O          6.3830  -17.8710  -15.0170 O.2    35  TYR35      -0.2867
     59  CB         9.7430  -18.0370  -15.2700 C.3    35  TYR35       0.0534
     60  CG         9.6190  -17.5220  -13.8460 C.ar   35  TYR35      -0.0201
     61  CD1        9.8630  -16.1540  -13.5350 C.ar   35  TYR35      -0.0009
     62  CD2        9.1960  -18.3470  -12.8330 C.ar   35  TYR35      -0.0009
     63  CE1        9.7380  -15.6920  -12.2210 C.ar   35  TYR35       0.0417
     64  CE2        9.0600  -17.9040  -11.5360 C.ar   35  TYR35       0.0417
     65  CZ         9.3270  -16.5650  -11.2150 C.ar   35  TYR35       0.1957
     66  OH         9.1660  -16.1580   -9.9080 O.3    35  TYR35      -0.2866
     67  N          5.3460  -20.5310  -12.7890 N.3    37  GLY37      -0.1210
     68  CA         5.3470  -20.6650  -11.3790 C.3    37  GLY37       0.1956
     69  C          5.0490  -22.0790  -10.8850 C.2    37  GLY37       0.2611
     70  O          4.5530  -22.9300  -11.6430 O.2    37  GLY37      -0.2717
     71  N          5.2450  -22.2690   -9.5870 N.am   38  ALA38      -0.1979
     72  CA         4.9930  -23.5640   -8.9420 C.3    38  ALA38       0.1597
     73  C          3.5060  -23.9030   -8.7920 C.2    38  ALA38       0.2287
     74  O          3.1890  -25.0810   -8.5340 O.2    38  ALA38      -0.2864
     75  CB         5.6450  -23.6110   -7.5700 C.3    38  ALA38       0.0319
     76  N          5.9850  -11.9600    0.9890 N.3    57  VAL57      -0.1245
     77  CA         4.6530  -11.9340    0.3580 C.3    57  VAL57       0.1561
     78  C          3.8060  -13.1040    0.8170 C.2    57  VAL57       0.2260
     79  O          4.2950  -14.2260    1.0890 O.2    57  VAL57      -0.2867
     80  CB         4.7090  -11.9260   -1.2040 C.3    57  VAL57       0.0252
     81  CG1        5.0830  -13.2950   -1.7990 C.3    57  VAL57       0.0019
     82  CG2        3.3420  -11.4580   -1.7830 C.3    57  VAL57       0.0019
     83  N          0.2100  -14.9660   -0.5950 N.3    59  ILE59      -0.1245
     84  CA        -0.7620  -14.9910   -1.7130 C.3    59  ILE59       0.1561
     85  C         -1.8570  -15.9590   -1.3010 C.2    59  ILE59       0.2260
     86  O         -1.5740  -17.0510   -0.7370 O.2    59  ILE59      -0.2867
     87  CB        -0.1140  -15.4780   -2.9940 C.3    59  ILE59       0.0252
     88  CG1        1.1330  -14.6720   -3.3320 C.3    59  ILE59       0.0019
     89  CG2       -1.1210  -15.5440   -4.1830 C.3    59  ILE59       0.0019
     90  CD1        1.9550  -15.2360   -4.5130 C.3    59  ILE59       0.0001
     91  N          0.2500  -19.2720   -0.2590 N.3    74  TRP74      -0.1241
     92  CA         1.7190  -19.1070   -0.2850 C.3    74  TRP74       0.1605
     93  C          2.1460  -18.1770    0.8410 C.2    74  TRP74       0.2264
     94  O          1.6650  -17.0480    0.9510 O.2    74  TRP74      -0.2867
     95  CB         2.1710  -18.5580   -1.6250 C.3    74  TRP74       0.0550
     96  CG         3.6420  -18.2770   -1.6450 C.ar   74  TRP74       0.0003
     97  CD1        4.3020  -17.1610   -1.2000 C.ar   74  TRP74       0.0946
     98  CD2        4.6110  -19.1330   -2.1860 C.ar   74  TRP74       0.0152
     99  NE1        5.6660  -17.3080   -1.4030 N.ar   74  TRP74      -0.2442
    100  CE2        5.8690  -18.5120   -2.0190 C.ar   74  TRP74       0.0810
    101  CE3        4.5440  -20.3750   -2.7930 C.ar   74  TRP74       0.0012
    102  CZ2        7.0580  -19.1120   -2.4490 C.ar   74  TRP74       0.0191
    103  CZ3        5.7200  -20.9650   -3.2290 C.ar   74  TRP74       0.0001
    104  CH2        6.9540  -20.3160   -3.0860 C.ar   74  TRP74       0.0015
    105  N          2.9270  -24.0870   -1.6450 N.3    79  TRP79      -0.1241
    106  CA         1.4900  -23.8560   -1.6670 C.3    79  TRP79       0.1605
    107  C          0.8060  -24.8660   -0.7640 C.2    79  TRP79       0.2264
    108  O          1.0220  -26.0870   -0.9490 O.2    79  TRP79      -0.2867
    109  CB         0.9820  -24.0220   -3.0820 C.3    79  TRP79       0.0550
    110  CG         1.4180  -22.8720   -3.9450 C.ar   79  TRP79       0.0003
    111  CD1        2.4770  -22.8430   -4.7730 C.ar   79  TRP79       0.0946
    112  CD2        0.7860  -21.5960   -4.0320 C.ar   79  TRP79       0.0152
    113  NE1        2.5730  -21.6090   -5.3910 N.ar   79  TRP79      -0.2442
    114  CE2        1.5370  -20.8250   -4.9440 C.ar   79  TRP79       0.0810
    115  CE3       -0.3560  -21.0240   -3.4350 C.ar   79  TRP79       0.0012
    116  CZ2        1.1750  -19.5150   -5.2810 C.ar   79  TRP79       0.0191
    117  CZ3       -0.6900  -19.7410   -3.7530 C.ar   79  TRP79       0.0001
    118  CH2        0.0730  -18.9910   -4.6610 C.ar   79  TRP79       0.0015
@<TRIPOS>BOND
     1    55    56    1
     2    56    57    1
     3    56    59    1
     4    57    58    2
     5    59    60    1
     6    44    43    2
     7    41    42    1
     8    35    34    2
     9    60    61   ar
    10    60    62   ar
    11    34    33    1
    12    43    42    1
    13    61    63   ar
    14    32    33    1
    15    42    45    1
    16    33    36    1
    17    62    64   ar
    18    67    68    1
    19    47    48    1
    20    63    65   ar
    21    45    46    1
    22    49    48    1
    23    49    50    2
    24    70    69    2
    25    23    24    2
    26    23    22    1
    27    64    65   ar
    28    36    37    1
    29    68    69    1
    30    65    66    1
    31    48    51    1
    32    22    21    1
    33    22    25    1
    34    69    71   am
    35    37    38    1
    36    51    52    1
    37    25    26    1
    38    52    54   ar
    39    52    53   ar
    40    71    72    1
    41    30    29    1
    42    17    16    1
    43    17    18    2
    44    38    39   ar
    45    38    40   ar
    46    27    26    1
    47    27    28    1
    48    16    15    1
    49    16    19    1
    50    72    73    1
    51    72    75    1
    52    73    74    2
    53    29    28    2
    54    29    31    1
    55    19    20    1
    56     1     2    1
    57     4     3    2
    58    13    14   ar
    59    13    11   ar
    60    14    12   ar
    61    11     8   ar
    62     3     2    1
    63   113   114   ar
    64   113   111   ar
    65    12    10   ar
    66   116   114   ar
    67   116   118   ar
    68     2     5    1
    69   114   112   ar
    70     8    10   ar
    71     8     6   ar
    72   111   110   ar
    73    10     9   ar
    74   118   117   ar
    75    90    88    1
    76     6     5    1
    77     6     7   ar
    78    89    87    1
    79     9     7   ar
    80   112   110   ar
    81   112   115   ar
    82   110   109    1
    83   117   115   ar
    84    88    87    1
    85   103   104   ar
    86   103   101   ar
    87   104   102   ar
    88   109   106    1
    89    87    84    1
    90   101    98   ar
    91   102   100   ar
    92    98   100   ar
    93    98    96   ar
    94   100    99   ar
    95    81    80    1
    96    82    80    1
    97    84    85    1
    98    84    83    1
    99   106   105    1
   100   106   107    1
   101    96    95    1
   102    96    97   ar
   103    95    92    1
   104    99    97   ar
   105    85    86    2
   106    80    77    1
   107   108   107    2
   108    92    91    1
   109    92    93    1
   110    77    78    1
   111    77    76    1
   112    78    79    2
   113    93    94    2
