@<TRIPOS>MOLECULE
tmp/3zw1A00.pdb
 102 99 0 0 0
SMALL
GASTEIGER

@<TRIPOS>ATOM
      1  N          5.7820   -0.9840   28.7300 N.3    50  TRP50      -0.1241
      2  CA         5.2570   -0.2530   29.8890 C.3    50  TRP50       0.1605
      3  C          3.9820    0.4740   29.4550 C.2    50  TRP50       0.2264
      4  O          3.7010    0.6430   28.2610 O.2    50  TRP50      -0.2867
      5  CB         6.3130    0.7320   30.4420 C.3    50  TRP50       0.0550
      6  CG         6.7550    1.7660   29.5120 C.ar   50  TRP50       0.0003
      7  CD1        6.2570    3.0530   29.4020 C.ar   50  TRP50       0.0946
      8  CD2        7.7940    1.6690   28.5430 C.ar   50  TRP50       0.0152
      9  NE1        6.9240    3.7510   28.4470 N.ar   50  TRP50      -0.2442
     10  CE2        7.8810    2.9370   27.8860 C.ar   50  TRP50       0.0810
     11  CE3        8.6470    0.6420   28.1450 C.ar   50  TRP50       0.0012
     12  CZ2        8.7770    3.1920   26.8530 C.ar   50  TRP50       0.0191
     13  CZ3        9.5640    0.9120   27.1170 C.ar   50  TRP50       0.0001
     14  CH2        9.6060    2.1610   26.4690 C.ar   50  TRP50       0.0015
     15  N          3.5880    1.1190   25.4570 N.3    57  HIS57      -0.1241
     16  CA         4.8130    1.3850   24.7720 C.3    57  HIS57       0.1621
     17  C          5.6300    0.1110   24.7960 C.2    57  HIS57       0.2264
     18  O          5.7670   -0.4790   25.8520 O.2    57  HIS57      -0.2867
     19  CB         5.5570    2.5130   25.4840 C.3    57  HIS57       0.0745
     20  CG         4.7980    3.8100   25.4600 C.ar   57  HIS57       0.0817
     21  ND1        4.9950    4.7570   24.4760 N.ar   57  HIS57      -0.2268
     22  CD2        3.8200    4.2940   26.2670 C.ar   57  HIS57       0.1154
     23  CE1        4.1950    5.7920   24.7030 C.ar   57  HIS57       0.1986
     24  NE2        3.4480    5.5230   25.7640 N.ar   57  HIS57      -0.2212
     25  N          9.1980   -1.9410   23.3740 N.3    59  ARG59      -0.1245
     26  CA        10.5010   -1.9520   22.7620 C.3    59  ARG59       0.1563
     27  C         10.9140   -3.3770   22.4450 C.2    59  ARG59       0.2260
     28  O         10.8830   -4.2310   23.3410 O.2    59  ARG59      -0.2867
     29  CB        11.5140   -1.3030   23.6850 C.3    59  ARG59       0.0307
     30  CG        11.2500    0.1680   23.9790 C.3    59  ARG59       0.0489
     31  CD        11.3480    1.0250   22.7610 C.3    59  ARG59       0.2205
     32  NE        11.0550    2.4470   23.0530 N.pl3  59  ARG59      -0.0865
     33  CZ         9.8450    3.0190   22.9930 C.cat  59  ARG59       0.5346
     34  NH1        8.7440    2.3470   22.6800 N.pl3  59  ARG59       0.1354
     35  NH2        9.7350    4.3000   23.2990 N.pl3  59  ARG59       0.1354
     36  N         13.9850   -5.6980   20.7530 N.3    61  TYR61      -0.1241
     37  CA        15.4430   -5.7190   20.4520 C.3    61  TYR61       0.1605
     38  C         15.6870   -6.8790   19.5240 C.2    61  TYR61       0.2264
     39  O         15.5670   -8.0460   19.8900 O.2    61  TYR61      -0.2867
     40  CB        16.2700   -5.7420   21.7730 C.3    61  TYR61       0.0534
     41  CG        15.9810   -4.5100   22.5880 C.ar   61  TYR61      -0.0201
     42  CD1       16.6310   -3.3130   22.3350 C.ar   61  TYR61      -0.0009
     43  CD2       14.9490   -4.5200   23.5390 C.ar   61  TYR61      -0.0009
     44  CE1       16.2960   -2.1510   23.0160 C.ar   61  TYR61       0.0417
     45  CE2       14.5940   -3.3870   24.2070 C.ar   61  TYR61       0.0417
     46  CZ        15.2710   -2.2030   23.9480 C.ar   61  TYR61       0.1957
     47  OH        14.8670   -1.0640   24.5920 O.3    61  TYR61      -0.2866
     48  N         16.8710   -1.6670   17.9990 N.3    70  GLU70      -0.1245
     49  CA        15.6470   -1.4270   18.7680 C.3    70  GLU70       0.1567
     50  C         14.5510   -0.8840   17.8860 C.2    70  GLU70       0.2260
     51  O         14.7530    0.0390   17.1000 O.2    70  GLU70      -0.2867
     52  CB        15.9400   -0.4100   19.8980 C.3    70  GLU70       0.0388
     53  CG        14.8270    0.0230   20.7500 C.3    70  GLU70       0.1160
     54  CD        15.1980    1.1460   21.6860 C.2    70  GLU70       0.3649
     55  OE1       15.7240    2.1560   21.1840 O.co2  70  GLU70      -0.2457
     56  OE2       14.9360    1.0330   22.9030 O.co2  70  GLU70      -0.2457
     57  N         10.4330    0.4880   18.1850 N.3    72  CYS72      -0.1235
     58  CA         9.5990    1.1780   19.1520 C.3    72  CYS72       0.1677
     59  C          8.1560    1.2410   18.6830 C.2    72  CYS72       0.2270
     60  O          7.9240    1.6690   17.5730 O.2    72  CYS72      -0.2867
     61  CB        10.0830    2.6120   19.3610 C.3    72  CYS72       0.0956
     62  SG        11.8210    2.7580   19.7120 S.3    72  CYS72      -0.0801
     63  N          4.8170    3.2320   19.9660 N.3    74  ASP74      -0.1239
     64  CA         4.3660    4.2840   20.8750 C.3    74  ASP74       0.1674
     65  C          2.9740    4.7830   20.4470 C.2    74  ASP74       0.2266
     66  O          2.6360    5.9530   20.6250 O.2    74  ASP74      -0.2867
     67  CB         5.3750    5.4280   20.9240 C.3    74  ASP74       0.1410
     68  CG         6.7760    4.9510   21.3830 C.2    74  ASP74       0.3668
     69  OD1        6.8940    4.6860   22.5980 O.co2  74  ASP74      -0.2456
     70  OD2        7.6800    4.8330   20.5220 O.co2  74  ASP74      -0.2456
     71  N         12.2680    3.1290   14.4070 N.3    80  ARG80      -0.1231
     72  CA        13.6030    2.7280   14.8260 C.3    80  ARG80       0.1694
     73  C         14.0400    3.5490   16.0360 C.2    80  ARG80       0.2593
     74  O         13.9100    4.7810   16.0650 O.2    80  ARG80      -0.2718
     75  CB        14.5950    2.8700   13.6690 C.3    80  ARG80       0.0321
     76  CG        16.0410    2.4700   13.9930 C.3    80  ARG80       0.0489
     77  CD        16.9720    2.8630   12.8660 C.3    80  ARG80       0.2205
     78  NE        16.5110    2.2450   11.6150 N.pl3  80  ARG80      -0.0865
     79  CZ        16.9580    1.0850   11.1390 C.cat  80  ARG80       0.5346
     80  NH1       17.9130    0.4070   11.7850 N.pl3  80  ARG80       0.1354
     81  NH2       16.4580    0.6060    9.9980 N.pl3  80  ARG80       0.1354
     82  N         14.4880    2.8430   17.0810 N.am   81  GLY81      -0.1942
     83  CA        14.9750    3.4600   18.3060 C.3    81  GLY81       0.2014
     84  C         16.4660    3.7650   18.2960 C.2    81  GLY81       0.2639
     85  O         17.2110    3.3140   17.4170 O.2    81  GLY81      -0.2714
     86  N         16.8720    4.5020   19.3170 N.am   82  ALA82      -0.1963
     87  CA        18.2400    5.0140   19.4580 C.3    82  ALA82       0.1728
     88  C         19.2490    4.0300   20.0080 C.2    82  ALA82       0.2616
     89  O         20.4710    4.2900   19.9770 O.2    82  ALA82      -0.2715
     90  CB        18.2530    6.2980   20.3290 C.3    82  ALA82       0.0334
     91  N         18.7690    2.8680   20.4590 N.am   83  TYR83      -0.1974
     92  CA        19.6580    1.8860   21.0720 C.3    83  TYR83       0.1639
     93  C         20.8410    1.5950   20.1850 C.2    83  TYR83       0.2290
     94  O         20.6920    1.4000   18.9670 O.2    83  TYR83      -0.2864
     95  CB        18.9180    0.5860   21.3240 C.3    83  TYR83       0.0560
     96  CG        19.7930   -0.5260   21.8450 C.ar   83  TYR83      -0.0198
     97  CD1       19.9840   -0.6980   23.2150 C.ar   83  TYR83      -0.0009
     98  CD2       20.4290   -1.4100   20.9950 C.ar   83  TYR83      -0.0009
     99  CE1       20.8160   -1.7180   23.7120 C.ar   83  TYR83       0.0417
    100  CE2       21.2650   -2.3960   21.4630 C.ar   83  TYR83       0.0417
    101  CZ        21.4410   -2.5650   22.8270 C.ar   83  TYR83       0.1957
    102  OH        22.2420   -3.5550   23.3180 O.3    83  TYR83      -0.2866
@<TRIPOS>BOND
     1    81    79    1
     2    79    78    2
     3    79    80    1
     4    78    77    1
     5    77    76    1
     6    75    76    1
     7    75    72    1
     8    71    72    1
     9    72    73    1
    10    73    74    2
    11    73    82   am
    12    82    83    1
    13    51    50    2
    14    85    84    2
    15    60    59    2
    16    50    49    1
    17    48    49    1
    18    57    58    1
    19    84    83    1
    20    84    86   am
    21    59    58    1
    22    49    52    1
    23    94    93    2
    24    58    61    1
    25    86    87    1
    26    61    62    1
    27    87    88    1
    28    87    90    1
    29    38    39    2
    30    38    37    1
    31    52    53    1
    32    63    64    1
    33    89    88    2
    34    88    91   am
    35    93    92    1
    36    65    66    2
    37    65    64    1
    38    37    36    1
    39    37    40    1
    40    91    92    1
    41    70    68   ar
    42    53    54    1
    43    64    67    1
    44    67    68    1
    45    98   100   ar
    46    98    96   ar
    47    92    95    1
    48    55    54   ar
    49    95    96    1
    50    68    69   ar
    51   100   101   ar
    52    54    56   ar
    53    40    41    1
    54    96    97   ar
    55    42    41   ar
    56    42    44   ar
    57    27    26    1
    58    27    28    2
    59    41    43   ar
    60    34    33    1
    61    31    32    1
    62    31    30    1
    63    26    25    1
    64    26    29    1
    65   101   102    1
    66   101    99   ar
    67    33    32    2
    68    33    35    1
    69    44    46   ar
    70    97    99   ar
    71    43    45   ar
    72    29    30    1
    73    46    45   ar
    74    46    47    1
    75    21    23   ar
    76    21    20   ar
    77    23    24   ar
    78    16    17    1
    79    16    15    1
    80    16    19    1
    81    17    18    2
    82    20    19    1
    83    20    22   ar
    84    24    22   ar
    85    14    12   ar
    86    14    13   ar
    87    12    10   ar
    88    13    11   ar
    89    10     9   ar
    90    10     8   ar
    91    11     8   ar
    92     4     3    2
    93     9     7   ar
    94     8     6   ar
    95     1     2    1
    96     7     6   ar
    97     3     2    1
    98     6     5    1
    99     2     5    1
