@<TRIPOS>MOLECULE
tmp/3zw1A01.pdb
 129 124 0 0 0
SMALL
GASTEIGER

@<TRIPOS>ATOM
      1  N          0.3780   -6.9160   29.1680 N.3     7  TRP7       -0.1241
      2  CA         0.0280   -5.7060   29.9420 C.3     7  TRP7        0.1605
      3  C         -1.4660   -5.6220   30.1330 C.2     7  TRP7        0.2264
      4  O         -2.2650   -6.2310   29.3990 O.2     7  TRP7       -0.2867
      5  CB         0.4960   -4.4310   29.2600 C.3     7  TRP7        0.0550
      6  CG        -0.1670   -4.1700   27.9320 C.ar    7  TRP7        0.0003
      7  CD1       -1.3170   -3.4260   27.7220 C.ar    7  TRP7        0.0946
      8  CD2        0.2430   -4.6100   26.6290 C.ar    7  TRP7        0.0152
      9  NE1       -1.6470   -3.4280   26.3880 N.ar    7  TRP7       -0.2442
     10  CE2       -0.6820   -4.1200   25.6970 C.ar    7  TRP7        0.0810
     11  CE3        1.3200   -5.3770   26.1530 C.ar    7  TRP7        0.0012
     12  CZ2       -0.5770   -4.3770   24.3560 C.ar    7  TRP7        0.0191
     13  CZ3        1.4160   -5.6230   24.7970 C.ar    7  TRP7        0.0001
     14  CH2        0.4910   -5.1230   23.9130 C.ar    7  TRP7        0.0015
     15  N         -3.5490   -7.9920   27.4620 N.3    12  SER12      -0.1217
     16  CA        -2.9900   -8.1030   26.1080 C.3    12  SER12       0.1889
     17  C         -1.6590   -8.8290   26.2130 C.2    12  SER12       0.2288
     18  O         -0.9610   -8.6490   27.2010 O.2    12  SER12      -0.2866
     19  CB        -2.7780   -6.7520   25.4610 C.3    12  SER12       0.2089
     20  OG        -4.0380   -6.2270   24.9650 O.3    12  SER12      -0.2183
     21  N          1.7590  -10.1010   23.6570 N.3    14  ARG14      -0.1245
     22  CA         2.4600  -10.1230   22.3560 C.3    14  ARG14       0.1563
     23  C          3.5670  -11.1360   22.4540 C.2    14  ARG14       0.2260
     24  O          4.3090  -11.1200   23.4400 O.2    14  ARG14      -0.2867
     25  CB         3.0600   -8.7480   22.0020 C.3    14  ARG14       0.0307
     26  CG         2.0400   -7.6280   21.8640 C.3    14  ARG14       0.0489
     27  CD         1.1230   -7.7910   20.6650 C.3    14  ARG14       0.2205
     28  NE         0.1350   -6.7280   20.5020 N.pl3  14  ARG14      -0.0865
     29  CZ        -1.0880   -6.7630   21.0260 C.cat  14  ARG14       0.5346
     30  NH1       -1.4460   -7.7760   21.7830 N.pl3  14  ARG14       0.1354
     31  NH2       -1.9260   -5.7470   20.8360 N.pl3  14  ARG14       0.1354
     32  N          5.2020  -11.2760   14.8030 N.3    25  GLU25      -0.1245
     33  CA         4.4940  -10.9620   16.0140 C.3    25  GLU25       0.1567
     34  C          3.0870  -11.5290   15.9970 C.2    25  GLU25       0.2260
     35  O          2.3640  -11.3740   15.0110 O.2    25  GLU25      -0.2867
     36  CB         4.4100   -9.4370   16.1420 C.3    25  GLU25       0.0388
     37  CG         3.6070   -8.8760   17.3750 C.3    25  GLU25       0.1160
     38  CD         3.3310   -7.3890   17.2650 C.2    25  GLU25       0.3649
     39  OE1        2.9460   -6.9420   16.1520 O.co2  25  GLU25      -0.2457
     40  OE2        3.5500   -6.6700   18.2430 O.co2  25  GLU25      -0.2457
     41  N         -0.5300  -11.7120   18.4550 N.3    27  CYS27      -0.1235
     42  CA        -1.1500  -10.7760   19.3640 C.3    27  CYS27       0.1677
     43  C         -2.4230  -11.3780   19.9540 C.2    27  CYS27       0.2270
     44  O         -3.2010  -12.0370   19.2430 O.2    27  CYS27      -0.2867
     45  CB        -1.5590   -9.5070   18.6400 C.3    27  CYS27       0.0956
     46  SG        -0.3120   -8.7060   17.6440 S.3    27  CYS27      -0.0801
     47  N         -5.6170   -9.8610   22.4340 N.3    29  ASP29      -0.1239
     48  CA        -6.2800   -8.7450   23.1320 C.3    29  ASP29       0.1674
     49  C         -7.5970   -9.1630   23.7670 C.2    29  ASP29       0.2266
     50  O         -8.4650   -8.2850   24.0340 O.2    29  ASP29      -0.2867
     51  CB        -6.5390   -7.6120   22.1610 C.3    29  ASP29       0.1410
     52  CG        -5.2480   -6.9730   21.6200 C.2    29  ASP29       0.3668
     53  OD1       -4.2710   -6.7920   22.3640 O.co2  29  ASP29      -0.2456
     54  OD2       -5.2450   -6.5720   20.4380 O.co2  29  ASP29      -0.2456
     55  N         -3.9730  -13.1100   16.6630 N.3    34  TYR34      -0.1227
     56  CA        -3.8700  -12.5850   15.2730 C.3    34  TYR34       0.1736
     57  C         -2.4570  -12.1690   14.9890 C.2    34  TYR34       0.2596
     58  O         -1.6540  -11.9820   15.8980 O.2    34  TYR34      -0.2718
     59  CB        -4.8530  -11.4150   15.0460 C.3    34  TYR34       0.0548
     60  CG        -4.6550  -10.1990   15.8870 C.ar   34  TYR34      -0.0200
     61  CD1       -5.2230  -10.0970   17.1850 C.ar   34  TYR34      -0.0009
     62  CD2       -3.9020   -9.1490   15.4380 C.ar   34  TYR34      -0.0009
     63  CE1       -5.0130   -8.9730   17.9490 C.ar   34  TYR34       0.0417
     64  CE2       -3.7230   -8.0460   16.1650 C.ar   34  TYR34       0.0417
     65  CZ        -4.2400   -7.9320   17.4370 C.ar   34  TYR34       0.1957
     66  OH        -3.9610   -6.7600   18.1410 O.3    34  TYR34      -0.2866
     67  N         -2.1360  -11.9870   13.7250 N.am   35  THR35      -0.1939
     68  CA        -0.8150  -11.5690   13.3360 C.3    35  THR35       0.2028
     69  C         -0.7210  -10.0590   13.4180 C.2    35  THR35       0.2643
     70  O         -1.5410   -9.3060   12.8560 O.2    35  THR35      -0.2714
     71  CB        -0.5080  -12.0380   11.9130 C.3    35  THR35       0.1808
     72  OG1       -0.4770  -13.4500   11.9690 O.3    35  THR35      -0.2208
     73  CG2        0.8300  -11.5080   11.3880 C.3    35  THR35       0.0379
     74  N          0.3060   -9.6110   14.1460 N.am   36  GLY36      -0.1939
     75  CA         0.5770   -8.1880   14.3410 C.3    36  GLY36       0.2014
     76  C          1.3580   -7.5280   13.2090 C.2    36  GLY36       0.2638
     77  O          1.8680   -8.1850   12.3180 O.2    36  GLY36      -0.2714
     78  N          1.4400   -6.2060   13.2610 N.am   37  ALA37      -0.1977
     79  CA         2.1260   -5.4290   12.2570 C.3    37  ALA37       0.1597
     80  C          3.6500   -5.5890   12.2550 C.2    37  ALA37       0.2287
     81  O          4.3020   -5.2370   11.2480 O.2    37  ALA37      -0.2864
     82  CB         1.7510   -3.9270   12.4540 C.3    37  ALA37       0.0319
     83  N          0.0230    1.5810   25.6840 N.3    56  VAL56      -0.1245
     84  CA         1.2230    0.7320   25.7480 C.3    56  VAL56       0.1561
     85  C          2.3800    1.3080   24.9110 C.2    56  VAL56       0.2260
     86  O          2.2140    1.9310   23.8360 O.2    56  VAL56      -0.2867
     87  CB         0.8970   -0.7140   25.3260 C.3    56  VAL56       0.0252
     88  CG1        0.7620   -0.8320   23.8290 C.3    56  VAL56       0.0019
     89  CG2        1.9730   -1.6790   25.8250 C.3    56  VAL56       0.0019
     90  N          6.1070   -0.2800   23.6170 N.3    58  ILE58      -0.1245
     91  CA         6.8220   -1.5300   23.4490 C.3    58  ILE58       0.1561
     92  C          8.1840   -1.2360   22.8640 C.2    58  ILE58       0.2260
     93  O          8.3200   -0.4340   21.9210 O.2    58  ILE58      -0.2867
     94  CB         6.0490   -2.4840   22.5000 C.3    58  ILE58       0.0252
     95  CG1        4.6380   -2.7390   22.9770 C.3    58  ILE58       0.0019
     96  CG2        6.8150   -3.8450   22.3590 C.3    58  ILE58       0.0019
     97  CD1        3.7910   -3.4710   21.9630 C.3    58  ILE58       0.0001
     98  N          7.2190    0.8540   19.5450 N.3    73  TRP73      -0.1241
     99  CA         5.7920    1.1010   19.3850 C.3    73  TRP73       0.1605
    100  C          5.3560    2.0890   20.4220 C.2    73  TRP73       0.2264
    101  O          5.4500    1.8320   21.6270 O.2    73  TRP73      -0.2867
    102  CB         4.9900   -0.1890   19.5090 C.3    73  TRP73       0.0550
    103  CG         3.4880    0.1220   19.4500 C.ar   73  TRP73       0.0003
    104  CD1        2.6550    0.5010   20.5030 C.ar   73  TRP73       0.0946
    105  CD2        2.7060    0.0670   18.3210 C.ar   73  TRP73       0.0152
    106  NE1        1.3900    0.6830   20.0670 N.ar   73  TRP73      -0.2442
    107  CE2        1.3850    0.4320   18.7100 C.ar   73  TRP73       0.0810
    108  CE3        2.9740   -0.2600   16.9880 C.ar   73  TRP73       0.0012
    109  CZ2        0.3400    0.4690   17.8190 C.ar   73  TRP73       0.0191
    110  CZ3        1.9470   -0.2210   16.0930 C.ar   73  TRP73       0.0001
    111  CH2        0.6270    0.1520   16.5160 C.ar   73  TRP73       0.0015
    112  N          2.1730    3.8880   19.8980 N.3    75  GLY75      -0.1225
    113  CA         0.7740    4.2210   19.5980 C.3    75  GLY75       0.1811
    114  C          0.5000    4.4320   18.1320 C.2    75  GLY75       0.2280
    115  O         -0.6660    4.3610   17.7430 O.2    75  GLY75      -0.2866
    116  N          5.5490    1.1910   14.0640 N.3    78  TRP78      -0.1241
    117  CA         6.8840    0.8040   14.5560 C.3    78  TRP78       0.1605
    118  C          7.9820    1.7290   14.0070 C.2    78  TRP78       0.2264
    119  O          8.1150    1.8870   12.7820 O.2    78  TRP78      -0.2867
    120  CB         7.1910   -0.6390   14.2050 C.3    78  TRP78       0.0550
    121  CG         6.3250   -1.5850   14.9520 C.ar   78  TRP78       0.0003
    122  CD1        5.1590   -2.1700   14.5360 C.ar   78  TRP78       0.0946
    123  CD2        6.5830   -2.0880   16.2590 C.ar   78  TRP78       0.0152
    124  NE1        4.6710   -2.9750   15.5210 N.ar   78  TRP78      -0.2442
    125  CE2        5.5280   -2.9520   16.5890 C.ar   78  TRP78       0.0810
    126  CE3        7.6400   -1.9190   17.1630 C.ar   78  TRP78       0.0012
    127  CZ2        5.4890   -3.6750   17.7870 C.ar   78  TRP78       0.0191
    128  CZ3        7.5820   -2.5940   18.3670 C.ar   78  TRP78       0.0001
    129  CH2        6.4940   -3.4730   18.6670 C.ar   78  TRP78       0.0015
@<TRIPOS>BOND
     1    81    80    2
     2    73    71    1
     3    71    72    1
     4    71    68    1
     5    80    79    1
     6    79    82    1
     7    79    78    1
     8    77    76    2
     9   119   118    2
    10    70    69    2
    11    76    78   am
    12    76    75    1
    13    68    69    1
    14    68    67    1
    15    69    74   am
    16    67    57   am
    17   118   117    1
    18   116   117    1
    19    74    75    1
    20   120   117    1
    21   120   121    1
    22   122   121   ar
    23   122   124   ar
    24    32    33    1
    25   121   123   ar
    26    57    56    1
    27    57    58    2
    28    35    34    2
    29    59    56    1
    30    59    60    1
    31    56    55    1
    32    62    60   ar
    33    62    64   ar
    34   124   125   ar
    35    60    61   ar
    36    34    33    1
    37    33    36    1
    38   110   111   ar
    39   110   108   ar
    40    36    37    1
    41    39    38   ar
    42    64    65   ar
    43   123   125   ar
    44   123   126   ar
    45   111   109   ar
    46   125   127   ar
    47   108   105   ar
    48   126   128   ar
    49    61    63   ar
    50    38    37    1
    51    38    40   ar
    52    65    63   ar
    53    65    66    1
    54    46    45    1
    55   115   114    2
    56   127   129   ar
    57   109   107   ar
    58   114   113    1
    59   105   107   ar
    60   105   103   ar
    61   128   129   ar
    62    41    42    1
    63    45    42    1
    64   107   106   ar
    65    44    43    2
    66    42    43    1
    67    99   102    1
    68    99    98    1
    69    99   100    1
    70   103   102    1
    71   103   104   ar
    72   113   112    1
    73   106   104   ar
    74   100   101    2
    75    54    52   ar
    76    28    27    1
    77    28    29    2
    78    27    26    1
    79    31    29    1
    80    29    30    1
    81    52    51    1
    82    52    53   ar
    83    26    25    1
    84    93    92    2
    85    97    95    1
    86    25    22    1
    87    51    48    1
    88    22    23    1
    89    22    21    1
    90    96    94    1
    91    47    48    1
    92    23    24    2
    93    94    95    1
    94    94    91    1
    95    92    91    1
    96    48    49    1
    97    91    90    1
    98    49    50    2
    99    88    87    1
   100    86    85    2
   101    14    12   ar
   102    14    13   ar
   103    12    10   ar
   104    13    11   ar
   105    85    84    1
   106    20    19    1
   107    87    84    1
   108    87    89    1
   109    19    16    1
   110    83    84    1
   111    10     9   ar
   112    10     8   ar
   113    16    17    1
   114    16    15    1
   115    11     8   ar
   116    17    18    2
   117     9     7   ar
   118     8     6   ar
   119     7     6   ar
   120     6     5    1
   121     1     2    1
   122     5     2    1
   123     4     3    2
   124     2     3    1
