@<TRIPOS>MOLECULE
tmp/3zw1B00.pdb
 109 106 0 0 0
SMALL
GASTEIGER

@<TRIPOS>ATOM
      1  N         -0.6780   -9.8190   -0.0110 N.3    51  TRP51      -0.1241
      2  CA        -0.2040   -8.7310    0.8540 C.3    51  TRP51       0.1605
      3  C          1.2290   -9.0210    1.2740 C.2    51  TRP51       0.2264
      4  O          1.7120  -10.1630    1.1890 O.2    51  TRP51      -0.2867
      5  CB        -1.0800   -8.5520    2.0840 C.3    51  TRP51       0.0550
      6  CG        -1.0770   -9.6970    3.0400 C.ar   51  TRP51       0.0003
      7  CD1       -0.2980   -9.8340    4.1880 C.ar   51  TRP51       0.0946
      8  CD2       -1.8460  -10.9030    2.9260 C.ar   51  TRP51       0.0152
      9  NE1       -0.5810  -11.0770    4.7820 N.ar   51  TRP51      -0.2442
     10  CE2       -1.5220  -11.7280    4.0280 C.ar   51  TRP51       0.0810
     11  CE3       -2.8330  -11.3590    2.0000 C.ar   51  TRP51       0.0012
     12  CZ2       -2.1050  -12.9930    4.2030 C.ar   51  TRP51       0.0191
     13  CZ3       -3.3770  -12.5730    2.1740 C.ar   51  TRP51       0.0001
     14  CH2       -3.0280  -13.3870    3.2780 C.ar   51  TRP51       0.0015
     15  N          2.5120  -12.8420    0.8820 N.3    58  HIS58      -0.1241
     16  CA         1.5060  -13.8720    1.1590 C.3    58  HIS58       0.1621
     17  C          0.5100  -13.8150    0.0200 C.2    58  HIS58       0.2264
     18  O          0.0240  -12.7320   -0.3190 O.2    58  HIS58      -0.2867
     19  CB         0.8140  -13.6030    2.4870 C.3    58  HIS58       0.0745
     20  CG         1.7690  -13.4740    3.6240 C.ar   58  HIS58       0.0817
     21  ND1        2.1750  -14.5700    4.3520 N.ar   58  HIS58      -0.2268
     22  CD2        2.5060  -12.4260    4.0610 C.ar   58  HIS58       0.1154
     23  CE1        3.0830  -14.1820    5.2410 C.ar   58  HIS58       0.1986
     24  NE2        3.2910  -12.8810    5.0960 N.ar   58  HIS58      -0.2212
     25  N         -3.0870  -15.5830   -1.6230 N.3    60  ARG60      -0.1245
     26  CA        -4.2210  -16.4810   -1.4770 C.3    60  ARG60       0.1563
     27  C         -4.8600  -16.6060   -2.8430 C.2    60  ARG60       0.2260
     28  O         -5.2100  -15.6010   -3.4530 O.2    60  ARG60      -0.2867
     29  CB        -5.1910  -15.9900   -0.4260 C.3    60  ARG60       0.0307
     30  CG        -4.6080  -15.8600    0.9480 C.3    60  ARG60       0.0489
     31  CD        -4.2980  -17.2480    1.5590 C.3    60  ARG60       0.2205
     32  NE        -3.6730  -17.1290    2.8750 N.pl3  60  ARG60      -0.0865
     33  CZ        -2.3730  -16.9780    3.0970 C.cat  60  ARG60       0.5346
     34  NH1       -1.4840  -16.9500    2.1050 N.pl3  60  ARG60       0.1354
     35  NH2       -1.9670  -16.9280    4.3470 N.pl3  60  ARG60       0.1354
     36  N         -8.0090  -18.5580   -4.8980 N.3    62  TYR62      -0.1241
     37  CA        -9.3230  -19.1930   -4.6740 C.3    62  TYR62       0.1605
     38  C         -9.6430  -19.9310   -5.9870 C.2    62  TYR62       0.2264
     39  O         -9.9120  -19.3060   -7.0240 O.2    62  TYR62      -0.2867
     40  CB       -10.3870  -18.1530   -4.2430 C.3    62  TYR62       0.0534
     41  CG        -9.9760  -17.5570   -2.9360 C.ar   62  TYR62      -0.0201
     42  CD1      -10.2390  -18.2160   -1.7380 C.ar   62  TYR62      -0.0009
     43  CD2       -9.2250  -16.3760   -2.9050 C.ar   62  TYR62      -0.0009
     44  CE1       -9.7640  -17.6940   -0.5330 C.ar   62  TYR62       0.0417
     45  CE2       -8.7130  -15.8590   -1.7100 C.ar   62  TYR62       0.0417
     46  CZ        -8.9650  -16.5260   -0.5470 C.ar   62  TYR62       0.1957
     47  OH        -8.4500  -16.0490    0.6420 O.3    62  TYR62      -0.2866
     48  N         -9.1880  -22.6990   -1.1560 N.3    71  GLU71      -0.1245
     49  CA        -8.1190  -21.6750   -0.9660 C.3    71  GLU71       0.1567
     50  C         -6.7350  -22.3140   -0.8920 C.2    71  GLU71       0.2260
     51  O         -6.5260  -23.3070   -0.1700 O.2    71  GLU71      -0.2867
     52  CB        -8.4290  -20.9280    0.3270 C.3    71  GLU71       0.0388
     53  CG        -7.3840  -19.8050    0.7150 C.3    71  GLU71       0.1160
     54  CD        -7.6290  -19.2960    2.1000 C.2    71  GLU71       0.3649
     55  OE1       -7.7760  -20.1020    3.0440 O.co2  71  GLU71      -0.2457
     56  OE2       -7.6570  -18.0640    2.2960 O.co2  71  GLU71      -0.2457
     57  N         -2.5500  -21.3330   -0.3290 N.3    73  CYS73      -0.1235
     58  CA        -1.8210  -20.3190    0.4090 C.3    73  CYS73       0.1677
     59  C         -0.3370  -20.4280    0.0910 C.2    73  CYS73       0.2270
     60  O          0.2620  -21.5070    0.2120 O.2    73  CYS73      -0.2867
     61  CB        -1.9560  -20.5360    1.9200 C.3    73  CYS73       0.0956
     62  SG        -3.6380  -20.5860    2.5340 S.3    73  CYS73      -0.0801
     63  N          3.0540  -18.6640    1.7080 N.3    75  ASP75      -0.1239
     64  CA         3.5230  -17.8760    2.8310 C.3    75  ASP75       0.1674
     65  C          5.0410  -18.0400    2.9360 C.2    75  ASP75       0.2266
     66  O          5.5880  -17.9850    4.0370 O.2    75  ASP75      -0.2867
     67  CB         2.8360  -18.2700    4.1280 C.3    75  ASP75       0.1410
     68  CG         1.3270  -18.1050    4.0640 C.2    75  ASP75       0.3668
     69  OD1        0.8310  -16.9650    4.1990 O.co2  75  ASP75      -0.2456
     70  OD2        0.6150  -19.1410    3.8700 O.co2  75  ASP75      -0.2456
     71  N         -0.0180  -24.3960    0.1660 N.3    80  THR80      -0.1203
     72  CA        -0.7280  -25.2830    1.0920 C.3    80  THR80       0.1994
     73  C         -2.2050  -24.9590    1.0800 C.2    80  THR80       0.2618
     74  O         -2.5920  -23.8310    0.7970 O.2    80  THR80      -0.2717
     75  CB        -0.1600  -25.1830    2.5250 C.3    80  THR80       0.1784
     76  OG1       -0.6010  -24.0020    3.1480 O.3    80  THR80      -0.2211
     77  CG2        1.3830  -25.1320    2.5080 C.3    80  THR80       0.0376
     78  N         -3.0450  -25.9140    1.4390 N.am   81  ARG81      -0.1965
     79  CA        -4.4680  -25.6980    1.4560 C.3    81  ARG81       0.1729
     80  C         -4.8700  -24.8760    2.6610 C.2    81  ARG81       0.2617
     81  O         -4.4630  -25.1610    3.8020 O.2    81  ARG81      -0.2715
     82  CB        -5.2050  -27.0620    1.4560 C.3    81  ARG81       0.0348
     83  CG        -6.6730  -26.9610    1.5750 C.3    81  ARG81       0.0492
     84  CD        -7.2050  -28.3660    1.8960 C.3    81  ARG81       0.2205
     85  NE        -7.5030  -29.0300    0.6540 N.pl3  81  ARG81      -0.0865
     86  CZ        -8.6860  -28.9890    0.0500 C.cat  81  ARG81       0.5346
     87  NH1       -9.7130  -28.3330    0.5940 N.pl3  81  ARG81       0.1354
     88  NH2       -8.8400  -29.6260   -1.0990 N.pl3  81  ARG81       0.1354
     89  N         -5.6430  -23.8120    2.4040 N.am   82  GLY82      -0.1940
     90  CA        -6.1470  -22.9570    3.4150 C.3    82  GLY82       0.2014
     91  C         -7.4410  -23.3700    4.0680 C.2    82  GLY82       0.2639
     92  O         -8.1160  -24.3110    3.6040 O.2    82  GLY82      -0.2714
     93  N         -7.8070  -22.6500    5.1180 N.am   83  ALA83      -0.1963
     94  CA        -9.0090  -22.9340    5.9070 C.3    83  ALA83       0.1728
     95  C        -10.3280  -22.4550    5.2930 C.2    83  ALA83       0.2616
     96  O        -11.3890  -22.8270    5.7840 O.2    83  ALA83      -0.2715
     97  CB        -8.8760  -22.3920    7.3380 C.3    83  ALA83       0.0334
     98  N        -10.2880  -21.6430    4.2220 N.am   84  TYR84      -0.1974
     99  CA       -11.5010  -21.1470    3.6080 C.3    84  TYR84       0.1639
    100  C        -12.5320  -22.2430    3.3240 C.2    84  TYR84       0.2290
    101  O        -12.1970  -23.2910    2.7930 O.2    84  TYR84      -0.2864
    102  CB       -11.1640  -20.4870    2.2580 C.3    84  TYR84       0.0560
    103  CG       -12.3640  -19.9960    1.5180 C.ar   84  TYR84      -0.0198
    104  CD1      -12.8460  -18.7380    1.7240 C.ar   84  TYR84      -0.0009
    105  CD2      -13.0230  -20.8090    0.5990 C.ar   84  TYR84      -0.0009
    106  CE1      -13.9670  -18.2710    1.0480 C.ar   84  TYR84       0.0417
    107  CE2      -14.1840  -20.3490   -0.0810 C.ar   84  TYR84       0.0417
    108  CZ       -14.6280  -19.1040    0.1550 C.ar   84  TYR84       0.1957
    109  OH       -15.7610  -18.6260   -0.5040 O.3    84  TYR84      -0.2866
@<TRIPOS>BOND
     1    39    38    2
     2    38    37    1
     3    36    37    1
     4    37    40    1
     5    40    41    1
     6    28    27    2
     7    41    43   ar
     8    41    42   ar
     9    43    45   ar
    10    27    26    1
    11    42    44   ar
    12    45    46   ar
    13    25    26    1
    14    26    29    1
    15    48    49    1
    16    88    86    1
    17    49    50    1
    18    49    52    1
    19    50    51    2
    20    46    44   ar
    21    46    47    1
    22   109   108    1
    23    29    30    1
    24    57    58    1
    25    18    17    2
    26   107   108   ar
    27   107   105   ar
    28     1     2    1
    29    17    16    1
    30    86    87    1
    31    86    85    2
    32    59    60    2
    33    59    58    1
    34   108   106   ar
    35    71    72    1
    36    52    53    1
    37    58    61    1
    38   105   103   ar
    39    85    84    1
    40    53    54    1
    41    74    73    2
    42     2     3    1
    43     2     5    1
    44    15    16    1
    45    30    31    1
    46   106   104   ar
    47    73    72    1
    48    73    78   am
    49    72    75    1
    50    16    19    1
    51     4     3    2
    52    78    79    1
    53    79    82    1
    54    79    80    1
    55    82    83    1
    56   103   104   ar
    57   103   102    1
    58    31    32    1
    59    83    84    1
    60    63    64    1
    61    61    62    1
    62    11    13   ar
    63    11     8   ar
    64     5     6    1
    65    54    56   ar
    66    54    55   ar
    67    34    33    1
    68    13    14   ar
    69   102    99    1
    70    89    80   am
    71    89    90    1
    72    19    20    1
    73    77    75    1
    74    75    76    1
    75    80    81    2
    76   101   100    2
    77    64    65    1
    78    64    67    1
    79    32    33    2
    80     8     6   ar
    81     8    10   ar
    82    65    66    2
    83     6     7   ar
    84    33    35    1
    85    14    12   ar
    86   100    99    1
    87    90    91    1
    88    92    91    2
    89    99    98    1
    90    20    22   ar
    91    20    21   ar
    92    70    68   ar
    93    10    12   ar
    94    10     9   ar
    95    22    24   ar
    96    68    67    1
    97    68    69   ar
    98    91    93   am
    99     7     9   ar
   100    98    95   am
   101    21    23   ar
   102    24    23   ar
   103    93    94    1
   104    95    96    2
   105    95    94    1
   106    94    97    1
