@<TRIPOS>MOLECULE
tmp/3zw2C01.pdb
 145 138 0 0 0
SMALL
GASTEIGER

@<TRIPOS>ATOM
      1  N         -2.6520   32.6940   47.7220 N.3     8  TRP8       -0.1227
      2  CA        -1.5110   32.0700   48.4040 C.3     8  TRP8        0.1737
      3  C         -0.1990   32.3340   47.7040 C.2     8  TRP8        0.2596
      4  O         -0.1220   32.6790   46.5120 O.2     8  TRP8       -0.2718
      5  CB        -1.7140   30.5590   48.5280 C.3     8  TRP8        0.0564
      6  CG        -1.6610   29.8030   47.2150 C.ar    8  TRP8        0.0003
      7  CD1       -0.5790   29.2580   46.6230 C.ar    8  TRP8        0.0946
      8  CD2       -2.7730   29.4930   46.3800 C.ar    8  TRP8        0.0152
      9  NE1       -0.9330   28.6570   45.4320 N.ar    8  TRP8       -0.2442
     10  CE2       -2.2810   28.7670   45.2750 C.ar    8  TRP8        0.0810
     11  CE3       -4.1390   29.7580   46.4600 C.ar    8  TRP8        0.0012
     12  CZ2       -3.0930   28.3050   44.2710 C.ar    8  TRP8        0.0191
     13  CZ3       -4.9420   29.3050   45.4490 C.ar    8  TRP8        0.0001
     14  CH2       -4.4150   28.6000   44.3640 C.ar    8  TRP8        0.0015
     15  N          0.8590   32.1660   48.4770 N.am    9  GLY9       -0.1957
     16  CA         2.2070   32.3150   47.9890 C.3     9  GLY9        0.1869
     17  C          2.6230   33.7550   47.7700 C.2     9  GLY9        0.2309
     18  O          1.9220   34.7140   48.1320 O.2     9  GLY9       -0.2863
     19  N         -0.7610   33.3920   43.6860 N.3    13  SER13      -0.1217
     20  CA        -1.9380   32.8160   43.0430 C.3    13  SER13       0.1889
     21  C         -3.1870   33.3580   43.7140 C.2    13  SER13       0.2288
     22  O         -3.2320   33.5180   44.9280 O.2    13  SER13      -0.2866
     23  CB        -1.9210   31.2800   43.1510 C.3    13  SER13       0.2089
     24  OG        -0.9530   30.7160   42.2760 O.3    13  SER13      -0.2183
     25  N         -7.6130   32.8670   43.5850 N.3    15  ARG15      -0.1245
     26  CA        -8.8300   32.2430   43.0400 C.3    15  ARG15       0.1563
     27  C        -10.0370   33.0170   43.4750 C.2    15  ARG15       0.2260
     28  O        -10.1690   33.3650   44.6510 O.2    15  ARG15      -0.2867
     29  CB        -8.9630   30.7820   43.5430 C.3    15  ARG15       0.0307
     30  CG        -7.8120   29.8740   43.1690 C.3    15  ARG15       0.0489
     31  CD        -7.7470   29.6360   41.7050 C.3    15  ARG15       0.2205
     32  NE        -6.6920   28.7270   41.2780 N.pl3  15  ARG15      -0.0865
     33  CZ        -5.4610   29.1010   40.9460 C.cat  15  ARG15       0.5346
     34  NH1       -5.1160   30.4080   40.8960 N.pl3  15  ARG15       0.1354
     35  NH2       -4.5850   28.1890   40.5720 N.pl3  15  ARG15       0.1354
     36  N        -15.1760   29.5910   38.7570 N.3    26  GLU26      -0.1245
     37  CA       -13.8650   29.9470   39.3170 C.3    26  GLU26       0.1567
     38  C        -12.9990   30.6510   38.2650 C.2    26  GLU26       0.2260
     39  O        -12.8380   30.1230   37.1420 O.2    26  GLU26      -0.2867
     40  CB       -13.1900   28.6850   39.7970 C.3    26  GLU26       0.0388
     41  CG       -11.8290   28.8400   40.3790 C.3    26  GLU26       0.1160
     42  CD       -11.1080   27.5060   40.5480 C.2    26  GLU26       0.3649
     43  OE1      -11.0660   26.7210   39.5980 O.co2  26  GLU26      -0.2457
     44  OE2      -10.5190   27.2610   41.6190 O.co2  26  GLU26      -0.2457
     45  N         -9.0930   32.3010   37.8580 N.3    28  CYS28      -0.1235
     46  CA        -7.7840   31.9970   38.4160 C.3    28  CYS28       0.1677
     47  C         -6.6980   32.9030   37.8940 C.2    28  CYS28       0.2270
     48  O         -6.6290   33.2050   36.6860 O.2    28  CYS28      -0.2867
     49  CB        -7.3730   30.5730   38.0470 C.3    28  CYS28       0.0956
     50  SG        -8.5890   29.3280   38.3680 S.3    28  CYS28      -0.0801
     51  N         -2.3960   32.9790   38.2640 N.3    30  ASP30      -0.1239
     52  CA        -1.1390   32.3610   38.7080 C.3    30  ASP30       0.1674
     53  C          0.1150   33.1490   38.3150 C.2    30  ASP30       0.2266
     54  O          1.1890   32.5810   38.2180 O.2    30  ASP30      -0.2867
     55  CB        -1.0410   30.9330   38.1390 C.3    30  ASP30       0.1410
     56  CG        -2.0910   29.9960   38.6940 C.2    30  ASP30       0.3668
     57  OD1       -2.3840   30.0840   39.9070 O.co2  30  ASP30      -0.2456
     58  OD2       -2.5400   29.1100   37.9340 O.co2  30  ASP30      -0.2456
     59  N         -7.6650   33.1330   33.9710 N.3    35  TYR35      -0.1241
     60  CA        -8.2540   32.0370   33.2270 C.3    35  TYR35       0.1605
     61  C         -9.3820   31.4210   34.0190 C.2    35  TYR35       0.2264
     62  O         -9.4610   31.5770   35.2440 O.2    35  TYR35      -0.2867
     63  CB        -7.1970   30.9670   32.8390 C.3    35  TYR35       0.0534
     64  CG        -6.5720   30.2220   33.9850 C.ar   35  TYR35      -0.0201
     65  CD1       -7.1350   29.0420   34.4740 C.ar   35  TYR35      -0.0009
     66  CD2       -5.3680   30.6500   34.5600 C.ar   35  TYR35      -0.0009
     67  CE1       -6.5800   28.3690   35.5600 C.ar   35  TYR35       0.0417
     68  CE2       -4.8060   29.9750   35.6130 C.ar   35  TYR35       0.0417
     69  CZ        -5.3550   28.8230   36.0810 C.ar   35  TYR35       0.1957
     70  OH        -4.7860   28.2130   37.1570 O.3    35  TYR35      -0.2866
     71  N        -11.0660   28.4100   35.7310 N.3    37  GLY37      -0.1210
     72  CA       -10.5700   27.2020   36.3960 C.3    37  GLY37       0.1956
     73  C        -11.5070   26.0380   36.3060 C.2    37  GLY37       0.2611
     74  O        -12.6610   26.1520   35.7780 O.2    37  GLY37      -0.2717
     75  N        -11.0200   24.9180   36.8100 N.am   38  ALA38      -0.1979
     76  CA       -11.7580   23.6540   36.7450 C.3    38  ALA38       0.1597
     77  C        -13.0000   23.5840   37.6660 C.2    38  ALA38       0.2287
     78  O        -13.8880   22.7440   37.4230 O.2    38  ALA38      -0.2864
     79  CB       -10.8070   22.4950   37.0170 C.3    38  ALA38       0.0319
     80  N         -1.2730   25.9440   52.5050 N.3    52  LEU52      -0.1245
     81  CA        -0.2030   25.2280   51.8440 C.3    52  LEU52       0.1561
     82  C          0.4120   24.2480   52.8020 C.2    52  LEU52       0.2260
     83  O          0.7510   24.5910   53.9630 O.2    52  LEU52      -0.2867
     84  CB         0.8720   26.1770   51.3180 C.3    52  LEU52       0.0270
     85  CG         0.4140   27.2750   50.3660 C.3    52  LEU52       0.0019
     86  CD1        1.5620   28.2130   49.9890 C.3    52  LEU52       0.0001
     87  CD2       -0.1940   26.6730   49.1030 C.3    52  LEU52       0.0001
     88  N          3.7510   20.0860   50.1710 N.3    55  SER55      -0.1202
     89  CA         4.1380   20.3780   48.7620 C.3    55  SER55       0.2020
     90  C          2.8910   20.4420   47.8740 C.2    55  SER55       0.2619
     91  O          2.8880   19.9620   46.7350 O.2    55  SER55      -0.2717
     92  CB         5.1570   19.3760   48.1880 C.3    55  SER55       0.2103
     93  OG         6.3450   19.2920   48.9720 O.3    55  SER55      -0.2182
     94  N          1.8440   21.0220   48.4220 N.am   56  ALA56      -0.1965
     95  CA         0.5520   21.1470   47.7390 C.3    56  ALA56       0.1728
     96  C         -0.1840   22.3610   48.2210 C.2    56  ALA56       0.2616
     97  O          0.0020   22.8090   49.3460 O.2    56  ALA56      -0.2715
     98  CB        -0.3120   19.8510   47.9800 C.3    56  ALA56       0.0334
     99  N         -1.1220   22.8370   47.3730 N.am   57  VAL57      -0.1977
    100  CA        -2.1090   23.8210   47.7920 C.3    57  VAL57       0.1596
    101  C         -3.4080   23.0580   48.0470 C.2    57  VAL57       0.2287
    102  O         -3.7110   22.1200   47.3370 O.2    57  VAL57      -0.2864
    103  CB        -2.3760   24.9700   46.7640 C.3    57  VAL57       0.0276
    104  CG1       -2.8200   24.4350   45.3670 C.3    57  VAL57       0.0022
    105  CG2       -3.3910   25.9740   47.3290 C.3    57  VAL57       0.0022
    106  N         -7.4490   23.7100   48.8850 N.3    59  ILE59      -0.1245
    107  CA        -8.5070   24.6920   48.8680 C.3    59  ILE59       0.1561
    108  C         -9.7840   23.9870   49.3280 C.2    59  ILE59       0.2260
    109  O         -9.9850   22.8110   49.0300 O.2    59  ILE59      -0.2867
    110  CB        -8.7560   25.2830   47.4390 C.3    59  ILE59       0.0252
    111  CG1       -7.4950   25.9560   46.8890 C.3    59  ILE59       0.0019
    112  CG2       -9.9550   26.2540   47.4260 C.3    59  ILE59       0.0019
    113  CD1       -7.5710   26.2510   45.3780 C.3    59  ILE59       0.0001
    114  N         -9.8800   20.7810   46.9430 N.3    74  TRP74      -0.1241
    115  CA        -8.7900   20.6290   46.0110 C.3    74  TRP74       0.1605
    116  C         -7.5460   20.3370   46.8660 C.2    74  TRP74       0.2264
    117  O         -7.1930   21.1230   47.7470 O.2    74  TRP74      -0.2867
    118  CB        -8.5440   21.9100   45.1800 C.3    74  TRP74       0.0550
    119  CG        -7.4240   21.7140   44.1850 C.ar   74  TRP74       0.0003
    120  CD1       -6.0890   21.9190   44.3890 C.ar   74  TRP74       0.0946
    121  CD2       -7.5470   21.1990   42.8600 C.ar   74  TRP74       0.0152
    122  NE1       -5.3840   21.5710   43.2620 N.ar   74  TRP74      -0.2442
    123  CE2       -6.2660   21.1400   42.3050 C.ar   74  TRP74       0.0810
    124  CE3       -8.6390   20.8000   42.0800 C.ar   74  TRP74       0.0012
    125  CZ2       -6.0310   20.6820   40.9920 C.ar   74  TRP74       0.0191
    126  CZ3       -8.4140   20.3550   40.7710 C.ar   74  TRP74       0.0001
    127  CH2       -7.1290   20.3150   40.2420 C.ar   74  TRP74       0.0015
    128  N         -4.7950   18.8300   44.9320 N.3    76  GLY76      -0.1225
    129  CA        -3.8770   18.5410   43.8500 C.3    76  GLY76       0.1811
    130  C         -4.3450   17.5270   42.8300 C.2    76  GLY76       0.2280
    131  O         -3.6610   17.3290   41.8330 O.2    76  GLY76      -0.2866
    132  N        -11.3340   18.0510   42.1350 N.3    79  TRP79      -0.1241
    133  CA       -12.1880   18.5670   43.1890 C.3    79  TRP79       0.1605
    134  C        -13.0210   17.3960   43.6990 C.2    79  TRP79       0.2264
    135  O        -13.7190   16.7370   42.9100 O.2    79  TRP79      -0.2867
    136  CB       -13.1140   19.6490   42.6190 C.3    79  TRP79       0.0550
    137  CG       -12.4290   20.9400   42.3810 C.ar   79  TRP79       0.0003
    138  CD1      -11.9410   21.4240   41.1970 C.ar   79  TRP79       0.0946
    139  CD2      -12.1550   21.9320   43.3520 C.ar   79  TRP79       0.0152
    140  NE1      -11.3890   22.6700   41.3750 N.ar   79  TRP79      -0.2442
    141  CE2      -11.5030   23.0040   42.7010 C.ar   79  TRP79       0.0810
    142  CE3      -12.3930   22.0320   44.7320 C.ar   79  TRP79       0.0012
    143  CZ2      -11.1100   24.1530   43.3830 C.ar   79  TRP79       0.0191
    144  CZ3      -12.0300   23.1500   45.3560 C.ar   79  TRP79       0.0001
    145  CH2      -11.3950   24.1950   44.7120 C.ar   79  TRP79       0.0015
@<TRIPOS>BOND
     1    63    60    1
     2    63    64    1
     3    60    59    1
     4    60    61    1
     5    64    65   ar
     6    64    66   ar
     7    61    62    2
     8    65    67   ar
     9    66    68   ar
    10    67    69   ar
    11    68    69   ar
    12    71    72    1
    13    74    73    2
    14    69    70    1
    15    73    72    1
    16    73    75   am
    17    48    47    2
    18    76    75    1
    19    76    79    1
    20    76    77    1
    21    39    38    2
    22    78    77    2
    23    45    46    1
    24    47    46    1
    25    58    56   ar
    26    49    50    1
    27    49    46    1
    28    55    56    1
    29    55    52    1
    30    54    53    2
    31    51    52    1
    32    38    37    1
    33    53    52    1
    34    56    57   ar
    35    36    37    1
    36    37    40    1
    37    43    42   ar
    38    40    41    1
    39   127   126   ar
    40   127   125   ar
    41    41    42    1
    42    42    44   ar
    43    35    33    1
    44   126   124   ar
    45    34    33    1
    46    33    32    2
    47   125   123   ar
    48   138   140   ar
    49   138   137   ar
    50    32    31    1
    51   140   141   ar
    52    31    30    1
    53   131   130    2
    54   124   121   ar
    55   132   133    1
    56    24    23    1
    57   123   121   ar
    58   123   122   ar
    59   137   136    1
    60   137   139   ar
    61   136   133    1
    62   141   139   ar
    63   141   143   ar
    64   130   129    1
    65   121   119   ar
    66   135   134    2
    67    26    27    1
    68    26    29    1
    69    26    25    1
    70    20    23    1
    71    20    19    1
    72    20    21    1
    73    30    29    1
    74   133   134    1
    75   122   120   ar
    76   139   142   ar
    77   143   145   ar
    78    27    28    2
    79    21    22    2
    80   129   128    1
    81   119   120   ar
    82   119   118    1
    83    12    14   ar
    84    12    10   ar
    85    14    13   ar
    86   145   144   ar
    87   142   144   ar
    88   118   115    1
    89    10     9   ar
    90    10     8   ar
    91   104   103    1
    92   113   111    1
    93     9     7   ar
    94    13    11   ar
    95   115   116    1
    96   115   114    1
    97     8    11   ar
    98     8     6   ar
    99     4     3    2
   100     7     6   ar
   101    91    90    2
   102   103   105    1
   103   103   100    1
   104   116   117    2
   105   111   110    1
   106     6     5    1
   107   102   101    2
   108    99   100    1
   109    99    96   am
   110   112   110    1
   111   110   107    1
   112     3     2    1
   113     3    15   am
   114     1     2    1
   115    95    98    1
   116    95    96    1
   117    95    94    1
   118    17    16    1
   119    17    18    2
   120   100   101    1
   121    90    94   am
   122    90    89    1
   123    16    15    1
   124    92    89    1
   125    92    93    1
   126    96    97    2
   127     2     5    1
   128    89    88    1
   129   107   106    1
   130   107   108    1
   131   109   108    2
   132    87    85    1
   133    86    85    1
   134    85    84    1
   135    84    81    1
   136    81    80    1
   137    81    82    1
   138    82    83    2
