@<TRIPOS>MOLECULE
tmp/3zw2B02.pdb
 102 99 0 0 0
SMALL
GASTEIGER

@<TRIPOS>ATOM
      1  N         -2.0700   39.6480   50.7110 N.3    51  TRP51      -0.1241
      2  CA        -0.8540   38.9270   50.9400 C.3    51  TRP51       0.1605
      3  C          0.2770   39.8980   51.1880 C.2    51  TRP51       0.2264
      4  O          0.2180   41.0940   50.8690 O.2    51  TRP51      -0.2867
      5  CB        -0.5090   38.0040   49.7430 C.3    51  TRP51       0.0550
      6  CG        -0.1960   38.7340   48.4690 C.ar   51  TRP51       0.0003
      7  CD1        1.0210   39.1480   48.0420 C.ar   51  TRP51       0.0946
      8  CD2       -1.1240   39.1700   47.4950 C.ar   51  TRP51       0.0152
      9  NE1        0.9270   39.8070   46.8470 N.ar   51  TRP51      -0.2442
     10  CE2       -0.3950   39.8570   46.4980 C.ar   51  TRP51       0.0810
     11  CE3       -2.5060   39.0830   47.3740 C.ar   51  TRP51       0.0012
     12  CZ2       -0.9910   40.4200   45.3980 C.ar   51  TRP51       0.0191
     13  CZ3       -3.0900   39.6270   46.2670 C.ar   51  TRP51       0.0001
     14  CH2       -2.3490   40.3070   45.3070 C.ar   51  TRP51       0.0015
     15  N         -0.3130   43.7100   49.9620 N.3    58  HIS58      -0.1241
     16  CA        -1.0970   43.8250   48.7450 C.3    58  HIS58       0.1621
     17  C         -2.4830   43.3860   49.0480 C.2    58  HIS58       0.2264
     18  O         -2.6760   42.3110   49.6270 O.2    58  HIS58      -0.2867
     19  CB        -0.4530   42.9420   47.6580 C.3    58  HIS58       0.0745
     20  CG         0.9610   43.3020   47.3830 C.ar   58  HIS58       0.0817
     21  ND1        1.3320   44.2060   46.4010 N.ar   58  HIS58      -0.2268
     22  CD2        2.0960   42.9440   48.0150 C.ar   58  HIS58       0.1154
     23  CE1        2.6490   44.3520   46.4280 C.ar   58  HIS58       0.1986
     24  NE2        3.1340   43.6020   47.4030 N.ar   58  HIS58      -0.2212
     25  N         -6.4830   42.7960   47.3780 N.3    60  ARG60      -0.1245
     26  CA        -7.3770   42.7660   46.2180 C.3    60  ARG60       0.1563
     27  C         -8.7920   42.7180   46.6860 C.2    60  ARG60       0.2260
     28  O         -9.1520   41.8480   47.4700 O.2    60  ARG60      -0.2867
     29  CB        -7.0820   41.5900   45.2650 C.3    60  ARG60       0.0307
     30  CG        -5.6560   41.6200   44.7150 C.3    60  ARG60       0.0489
     31  CD        -5.5010   42.7130   43.6600 C.3    60  ARG60       0.2205
     32  NE        -4.1720   42.7460   43.0620 N.pl3  60  ARG60      -0.0865
     33  CZ        -3.1200   43.3720   43.5720 C.cat  60  ARG60       0.5346
     34  NH1       -3.2030   44.0550   44.7380 N.pl3  60  ARG60       0.1354
     35  NH2       -1.9610   43.3450   42.9250 N.pl3  60  ARG60       0.1354
     36  N        -12.7350   42.5560   45.3820 N.3    62  TYR62      -0.1241
     37  CA       -13.6050   42.1980   44.2710 C.3    62  TYR62       0.1605
     38  C        -15.0040   42.7660   44.5270 C.2    62  TYR62       0.2264
     39  O        -15.7240   42.3180   45.4310 O.2    62  TYR62      -0.2867
     40  CB       -13.6230   40.6520   44.0600 C.3    62  TYR62       0.0534
     41  CG       -12.1970   40.2130   43.7820 C.ar   62  TYR62      -0.0201
     42  CD1      -11.6760   40.2190   42.4850 C.ar   62  TYR62      -0.0009
     43  CD2      -11.3630   39.8470   44.8150 C.ar   62  TYR62      -0.0009
     44  CE1      -10.3440   39.8900   42.2470 C.ar   62  TYR62       0.0417
     45  CE2      -10.0300   39.5160   44.5780 C.ar   62  TYR62       0.0417
     46  CZ        -9.5330   39.5440   43.2850 C.ar   62  TYR62       0.1957
     47  OH        -8.2260   39.2920   42.9850 O.3    62  TYR62      -0.2866
     48  N        -12.0500   44.1270   40.0260 N.3    71  GLU71      -0.1245
     49  CA       -10.9410   43.9970   40.9900 C.3    71  GLU71       0.1567
     50  C        -10.2570   45.3380   41.1740 C.2    71  GLU71       0.2260
     51  O         -9.9080   45.9910   40.1930 O.2    71  GLU71      -0.2867
     52  CB        -9.9590   42.9440   40.5160 C.3    71  GLU71       0.0388
     53  CG        -8.7060   42.7760   41.3400 C.3    71  GLU71       0.1160
     54  CD        -7.6590   41.9140   40.6170 C.2    71  GLU71       0.3649
     55  OE1       -7.3850   42.2330   39.4380 O.co2  71  GLU71      -0.2457
     56  OE2       -7.1440   40.9240   41.1780 O.co2  71  GLU71      -0.2457
     57  N         -7.0650   47.1100   43.3670 N.3    73  CYS73      -0.1235
     58  CA        -5.7690   46.7140   43.8790 C.3    73  CYS73       0.1677
     59  C         -5.1120   47.7670   44.7570 C.2    73  CYS73       0.2270
     60  O         -4.9850   48.9390   44.3610 O.2    73  CYS73      -0.2867
     61  CB        -4.8440   46.4800   42.7210 C.3    73  CYS73       0.0956
     62  SG        -5.4250   45.3690   41.4180 S.3    73  CYS73      -0.0801
     63  N         -1.3770   48.3120   46.3670 N.3    75  ASP75      -0.1239
     64  CA        -0.0040   47.7970   46.2990 C.3    75  ASP75       0.1674
     65  C          0.9680   48.7650   46.9430 C.2    75  ASP75       0.2266
     66  O          2.1570   48.7750   46.6210 O.2    75  ASP75      -0.2867
     67  CB         0.3670   47.5000   44.8360 C.3    75  ASP75       0.1410
     68  CG        -0.5300   46.4410   44.2050 C.2    75  ASP75       0.3668
     69  OD1       -0.4910   45.2730   44.6670 O.co2  75  ASP75      -0.2456
     70  OD2       -1.3070   46.7530   43.2710 O.co2  75  ASP75      -0.2456
     71  N         -7.1070   49.7770   39.2420 N.3    81  ARG81      -0.1231
     72  CA        -8.0280   48.7820   38.7070 C.3    81  ARG81       0.1694
     73  C         -7.2470   47.5730   38.1810 C.2    81  ARG81       0.2593
     74  O         -6.2760   47.7180   37.4100 O.2    81  ARG81      -0.2718
     75  CB        -8.9140   49.3720   37.6240 C.3    81  ARG81       0.0321
     76  CG       -10.1430   48.5150   37.3340 C.3    81  ARG81       0.0489
     77  CD       -11.1780   49.3300   36.7030 C.3    81  ARG81       0.2205
     78  NE       -12.4050   48.6200   36.4050 N.pl3  81  ARG81      -0.0865
     79  CZ       -13.5460   49.2260   36.1630 C.cat  81  ARG81       0.5346
     80  NH1      -13.6290   50.5690   36.1720 N.pl3  81  ARG81       0.1354
     81  NH2      -14.6260   48.5100   35.9160 N.pl3  81  ARG81       0.1354
     82  N         -7.6650   46.4030   38.6210 N.am   82  GLY82      -0.1942
     83  CA        -7.0010   45.1320   38.2890 C.3    82  GLY82       0.2014
     84  C         -7.4520   44.5490   36.9660 C.2    82  GLY82       0.2639
     85  O         -8.5160   44.9090   36.4380 O.2    82  GLY82      -0.2714
     86  N         -6.6460   43.6220   36.4420 N.am   83  ALA83      -0.1963
     87  CA        -6.9450   42.9600   35.1890 C.3    83  ALA83       0.1728
     88  C         -8.1270   41.9870   35.2380 C.2    83  ALA83       0.2616
     89  O         -8.6280   41.6010   34.1960 O.2    83  ALA83      -0.2715
     90  CB        -5.6830   42.2340   34.6680 C.3    83  ALA83       0.0334
     91  N         -8.5800   41.6030   36.4430 N.am   84  TYR84      -0.1974
     92  CA        -9.6350   40.6350   36.6000 C.3    84  TYR84       0.1639
     93  C        -10.8160   40.9410   35.7040 C.2    84  TYR84       0.2290
     94  O        -11.3160   42.0700   35.6990 O.2    84  TYR84      -0.2864
     95  CB       -10.1580   40.5860   38.0390 C.3    84  TYR84       0.0560
     96  CG       -11.2730   39.5730   38.2570 C.ar   84  TYR84      -0.0198
     97  CD1      -12.6030   39.9200   37.9880 C.ar   84  TYR84      -0.0009
     98  CD2      -11.0110   38.2520   38.6240 C.ar   84  TYR84      -0.0009
     99  CE1      -13.6110   39.0010   38.1490 C.ar   84  TYR84       0.0417
    100  CE2      -12.0100   37.3390   38.8110 C.ar   84  TYR84       0.0417
    101  CZ       -13.3140   37.6950   38.5270 C.ar   84  TYR84       0.1957
    102  OH       -14.3260   36.7990   38.6950 O.3    84  TYR84      -0.2866
@<TRIPOS>BOND
     1    89    88    2
     2    90    87    1
     3    87    88    1
     4    87    86    1
     5    88    91   am
     6    94    93    2
     7    93    92    1
     8    81    79    1
     9    79    80    1
    10    79    78    2
    11    78    77    1
    12    85    84    2
    13    86    84   am
    14    91    92    1
    15    92    95    1
    16    77    76    1
    17    84    83    1
    18    76    75    1
    19    74    73    2
    20    75    72    1
    21    97    99   ar
    22    97    96   ar
    23    95    96    1
    24    99   101   ar
    25    73    82   am
    26    73    72    1
    27    96    98   ar
    28    83    82    1
    29   101   102    1
    30   101   100   ar
    31    98   100   ar
    32    72    71    1
    33    55    54   ar
    34    48    49    1
    35    51    50    2
    36    52    49    1
    37    52    53    1
    38    54    56   ar
    39    54    53    1
    40    49    50    1
    41    62    61    1
    42    44    42   ar
    43    44    46   ar
    44    42    41   ar
    45    61    58    1
    46    35    33    1
    47    47    46    1
    48    32    33    2
    49    32    31    1
    50    70    68   ar
    51    46    45   ar
    52    57    58    1
    53    33    34    1
    54    31    30    1
    55    41    40    1
    56    41    43   ar
    57    58    59    1
    58    40    37    1
    59    68    69   ar
    60    68    67    1
    61    37    38    1
    62    37    36    1
    63    60    59    2
    64    38    39    2
    65    45    43   ar
    66    30    29    1
    67    67    64    1
    68    29    26    1
    69    14    12   ar
    70    14    13   ar
    71    12    10   ar
    72    26    27    1
    73    26    25    1
    74    13    11   ar
    75    64    63    1
    76    64    65    1
    77    21    23   ar
    78    21    20   ar
    79    23    24   ar
    80    10     9   ar
    81    10     8   ar
    82    66    65    2
    83    27    28    2
    84     9     7   ar
    85    11     8   ar
    86    20    19    1
    87    20    22   ar
    88    24    22   ar
    89     8     6   ar
    90    19    16    1
    91     7     6   ar
    92     6     5    1
    93    16    17    1
    94    16    15    1
    95    17    18    2
    96     5     2    1
    97     1     2    1
    98     4     3    2
    99     2     3    1
