@<TRIPOS>MOLECULE
tmp/3zw2A01.pdb
 92 89 0 0 0
SMALL
GASTEIGER

@<TRIPOS>ATOM
      1  N         -5.7070   35.2030   62.6810 N.3    51  TRP51      -0.1241
      2  CA        -4.2380   35.2150   62.6640 C.3    51  TRP51       0.1605
      3  C         -3.7230   34.5230   63.8970 C.2    51  TRP51       0.2264
      4  O         -4.4310   34.3150   64.8550 O.2    51  TRP51      -0.2867
      5  CB        -3.6780   36.6390   62.5750 C.3    51  TRP51       0.0550
      6  CG        -3.9590   37.4650   63.7680 C.ar   51  TRP51       0.0003
      7  CD1       -3.1440   37.6640   64.8320 C.ar   51  TRP51       0.0946
      8  CD2       -5.1320   38.2150   64.0110 C.ar   51  TRP51       0.0152
      9  NE1       -3.7400   38.4880   65.7530 N.ar   51  TRP51      -0.2442
     10  CE2       -5.0000   38.7940   65.2940 C.ar   51  TRP51       0.0810
     11  CE3       -6.3460   38.3910   63.3110 C.ar   51  TRP51       0.0012
     12  CZ2       -5.9610   39.6100   65.8410 C.ar   51  TRP51       0.0191
     13  CZ3       -7.3010   39.2020   63.8690 C.ar   51  TRP51       0.0001
     14  CH2       -7.1210   39.7840   65.1340 C.ar   51  TRP51       0.0015
     15  N        -11.5560   37.0550   64.3220 N.3    60  ARG60      -0.1245
     16  CA       -12.5160   38.1480   64.3360 C.3    60  ARG60       0.1563
     17  C        -13.6460   37.8020   63.3730 C.2    60  ARG60       0.2260
     18  O        -13.4140   37.4920   62.1750 O.2    60  ARG60      -0.2867
     19  CB       -11.9000   39.4680   63.9350 C.3    60  ARG60       0.0307
     20  CG       -10.7340   39.8740   64.8310 C.3    60  ARG60       0.0489
     21  CD       -11.2750   40.2950   66.2100 C.3    60  ARG60       0.2205
     22  NE       -10.2210   40.7240   67.1130 N.pl3  60  ARG60      -0.0865
     23  CZ        -9.5300   39.9290   67.9230 C.cat  60  ARG60       0.5346
     24  NH1       -9.7190   38.6060   67.9100 N.pl3  60  ARG60       0.1354
     25  NH2       -8.5890   40.4420   68.7110 N.pl3  60  ARG60       0.1354
     26  N        -17.3370   39.2150   61.9010 N.3    62  TYR62      -0.1241
     27  CA       -18.0960   40.4530   61.6920 C.3    62  TYR62       0.1605
     28  C        -19.5360   40.0590   61.3560 C.2    62  TYR62       0.2264
     29  O        -19.8290   39.5010   60.3000 O.2    62  TYR62      -0.2867
     30  CB       -17.4380   41.3600   60.6200 C.3    62  TYR62       0.0534
     31  CG       -16.0560   41.7480   61.0970 C.ar   62  TYR62      -0.0201
     32  CD1      -15.8620   42.8470   61.9520 C.ar   62  TYR62      -0.0009
     33  CD2      -14.9900   40.9950   60.7710 C.ar   62  TYR62      -0.0009
     34  CE1      -14.6130   43.1480   62.4580 C.ar   62  TYR62       0.0417
     35  CE2      -13.7340   41.2690   61.2940 C.ar   62  TYR62       0.0417
     36  CZ       -13.5590   42.3760   62.1370 C.ar   62  TYR62       0.1957
     37  OH       -12.3090   42.6820   62.6830 O.3    62  TYR62      -0.2866
     38  N        -18.3950   43.2950   65.7600 N.3    71  GLU71      -0.1245
     39  CA       -17.2380   42.4260   65.7710 C.3    71  GLU71       0.1567
     40  C        -17.2660   41.5310   67.0230 C.2    71  GLU71       0.2260
     41  O        -17.5560   41.9900   68.1260 O.2    71  GLU71      -0.2867
     42  CB       -15.9860   43.2870   65.7760 C.3    71  GLU71       0.0388
     43  CG       -14.6380   42.5950   65.8000 C.3    71  GLU71       0.1160
     44  CD       -13.4700   43.5750   65.9890 C.2    71  GLU71       0.3649
     45  OE1      -13.5450   44.4420   66.8980 O.co2  71  GLU71      -0.2457
     46  OE2      -12.4660   43.4610   65.2580 O.co2  71  GLU71      -0.2457
     47  N        -14.7490   38.6050   68.9780 N.3    73  CYS73      -0.1235
     48  CA       -13.3590   38.2410   69.0720 C.3    73  CYS73       0.1677
     49  C        -13.1120   36.9750   69.8570 C.2    73  CYS73       0.2270
     50  O        -13.6400   36.8320   70.9900 O.2    73  CYS73      -0.2867
     51  CB       -12.5880   39.3340   69.7870 C.3    73  CYS73       0.0956
     52  SG       -12.9030   41.0240   69.3010 S.3    73  CYS73      -0.0801
     53  N         -9.7620   35.1750   71.3940 N.3    75  ASP75      -0.1239
     54  CA        -8.3380   35.3140   71.6750 C.3    75  ASP75       0.1674
     55  C         -7.8810   34.2610   72.6710 C.2    75  ASP75       0.2266
     56  O         -6.8860   34.4540   73.3850 O.2    75  ASP75      -0.2867
     57  CB        -8.0620   36.7180   72.2060 C.3    75  ASP75       0.1410
     58  CG        -8.5140   37.7930   71.2520 C.2    75  ASP75       0.3668
     59  OD1       -7.8610   37.9930   70.1990 O.co2  75  ASP75      -0.2456
     60  OD2       -9.5380   38.4560   71.5460 O.co2  75  ASP75      -0.2456
     61  N        -17.1160   40.7930   72.6560 N.3    81  ARG81      -0.1231
     62  CA       -17.4040   41.8250   71.6650 C.3    81  ARG81       0.1694
     63  C        -16.1060   42.5960   71.4050 C.2    81  ARG81       0.2593
     64  O        -15.2500   42.7200   72.2820 O.2    81  ARG81      -0.2718
     65  CB       -18.5240   42.7570   72.1220 C.3    81  ARG81       0.0321
     66  CG       -19.2160   43.5340   71.0250 C.3    81  ARG81       0.0489
     67  CD       -20.2500   44.4490   71.6570 C.3    81  ARG81       0.2205
     68  NE       -21.1650   45.0960   70.7180 N.pl3  81  ARG81      -0.0865
     69  CZ       -22.3910   44.6710   70.4220 C.cat  81  ARG81       0.5346
     70  NH1      -22.8770   43.5550   70.9550 N.pl3  81  ARG81       0.1354
     71  NH2      -23.1280   45.3570   69.5520 N.pl3  81  ARG81       0.1354
     72  N        -15.9350   43.0520   70.1730 N.am   82  GLY82      -0.1942
     73  CA       -14.8110   43.8820   69.8240 C.3    82  GLY82       0.2014
     74  C        -15.2000   45.3400   69.6800 C.2    82  GLY82       0.2639
     75  O        -16.3940   45.6950   69.6420 O.2    82  GLY82      -0.2714
     76  N        -14.1740   46.1660   69.5620 N.am   83  ALA83      -0.1963
     77  CA       -14.3120   47.6190   69.4660 C.3    83  ALA83       0.1728
     78  C        -14.7240   48.1630   68.1020 C.2    83  ALA83       0.2616
     79  O        -14.9690   49.3570   67.9900 O.2    83  ALA83      -0.2715
     80  CB       -13.0080   48.3110   69.9340 C.3    83  ALA83       0.0334
     81  N        -14.8040   47.3100   67.0810 N.am   84  TYR84      -0.1974
     82  CA       -15.1720   47.7500   65.7490 C.3    84  TYR84       0.1639
     83  C        -16.4490   48.6030   65.7350 C.2    84  TYR84       0.2290
     84  O        -17.4570   48.2510   66.3230 O.2    84  TYR84      -0.2864
     85  CB       -15.3910   46.5690   64.8200 C.3    84  TYR84       0.0560
     86  CG       -15.8910   46.9520   63.4530 C.ar   84  TYR84      -0.0198
     87  CD1      -15.0070   47.2270   62.4290 C.ar   84  TYR84      -0.0009
     88  CD2      -17.2570   47.0400   63.1790 C.ar   84  TYR84      -0.0009
     89  CE1      -15.4400   47.5570   61.1800 C.ar   84  TYR84       0.0417
     90  CE2      -17.7140   47.3660   61.9370 C.ar   84  TYR84       0.0417
     91  CZ       -16.8000   47.6200   60.9260 C.ar   84  TYR84       0.1957
     92  OH       -17.2000   47.9940   59.6810 O.3    84  TYR84      -0.2866
@<TRIPOS>BOND
     1    92    91    1
     2    29    28    2
     3    30    31    1
     4    30    27    1
     5    33    31   ar
     6    33    35   ar
     7    91    89   ar
     8    91    90   ar
     9    31    32   ar
    10    89    87   ar
    11    35    36   ar
    12    28    27    1
    13    27    26    1
    14    90    88   ar
    15    32    34   ar
    16    36    34   ar
    17    36    37    1
    18    18    17    2
    19    87    86   ar
    20     5     2    1
    21     5     6    1
    22     2     1    1
    23     2     3    1
    24    88    86   ar
    25    11    13   ar
    26    11     8   ar
    27    17    16    1
    28    86    85    1
    29     6     8   ar
    30     6     7   ar
    31    13    14   ar
    32     3     4    2
    33    19    16    1
    34    19    20    1
    35     8    10   ar
    36    15    16    1
    37    85    82    1
    38    20    21    1
    39     7     9   ar
    40    14    12   ar
    41    46    44   ar
    42    10     9   ar
    43    10    12   ar
    44    83    82    1
    45    83    84    2
    46    82    81    1
    47    38    39    1
    48    39    42    1
    49    39    40    1
    50    42    43    1
    51    43    44    1
    52    44    45   ar
    53    21    22    1
    54    40    41    2
    55    81    78   am
    56    22    23    2
    57    24    23    1
    58    23    25    1
    59    79    78    2
    60    78    77    1
    61    47    48    1
    62    48    51    1
    63    48    49    1
    64    52    51    1
    65    77    76    1
    66    77    80    1
    67    71    69    1
    68    76    74   am
    69    75    74    2
    70    74    73    1
    71    73    72    1
    72    49    50    2
    73    72    63   am
    74    59    58   ar
    75    69    68    2
    76    69    70    1
    77    68    67    1
    78    66    67    1
    79    66    65    1
    80    58    60   ar
    81    58    57    1
    82    53    54    1
    83    63    62    1
    84    63    64    2
    85    62    65    1
    86    62    61    1
    87    54    57    1
    88    54    55    1
    89    55    56    2
