@<TRIPOS>MOLECULE
tmp/3zw2A00.pdb
 127 121 0 0 0
SMALL
GASTEIGER

@<TRIPOS>ATOM
      1  N         -6.3660   27.9610   59.7150 N.3     8  TRP8       -0.1241
      2  CA        -5.0150   28.2160   60.1890 C.3     8  TRP8        0.1605
      3  C         -4.2220   26.9800   60.4970 C.2     8  TRP8        0.2264
      4  O         -4.7570   25.9310   60.7680 O.2     8  TRP8       -0.2867
      5  CB        -5.0090   29.1060   61.4520 C.3     8  TRP8        0.0550
      6  CG        -5.5890   28.4750   62.6770 C.ar    8  TRP8        0.0003
      7  CD1       -4.9090   27.8140   63.6370 C.ar    8  TRP8        0.0946
      8  CD2       -6.9650   28.4500   63.0760 C.ar    8  TRP8        0.0152
      9  NE1       -5.7660   27.3640   64.6310 N.ar    8  TRP8       -0.2442
     10  CE2       -7.0390   27.7360   64.3050 C.ar    8  TRP8        0.0810
     11  CE3       -8.1490   28.9600   62.5250 C.ar    8  TRP8        0.0012
     12  CZ2       -8.2360   27.5300   64.9810 C.ar    8  TRP8        0.0191
     13  CZ3       -9.3170   28.7520   63.1960 C.ar    8  TRP8        0.0001
     14  CH2       -9.3610   28.0250   64.4000 C.ar    8  TRP8        0.0015
     15  N         -6.6800   23.7080   61.1560 N.3    13  SER13      -0.1217
     16  CA        -7.9880   23.9790   61.7550 C.3    13  SER13       0.1889
     17  C         -8.8040   24.7770   60.7590 C.2    13  SER13       0.2288
     18  O         -8.2630   25.6550   60.0980 O.2    13  SER13      -0.2866
     19  CB        -7.8700   24.7440   63.0590 C.3    13  SER13       0.2089
     20  OG        -7.3820   23.8660   64.0630 O.3    13  SER13      -0.2183
     21  N        -12.6540   26.9250   60.4130 N.3    15  ARG15      -0.1245
     22  CA       -13.9490   27.3300   60.9510 C.3    15  ARG15       0.1563
     23  C        -14.8340   27.8280   59.8410 C.2    15  ARG15       0.2260
     24  O        -14.4070   28.6510   59.0230 O.2    15  ARG15      -0.2867
     25  CB       -13.8070   28.4150   62.0430 C.3    15  ARG15       0.0307
     26  CG       -12.9120   28.0420   63.2390 C.3    15  ARG15       0.0489
     27  CD       -13.5760   26.9790   64.1100 C.3    15  ARG15       0.2205
     28  NE       -12.7540   26.6120   65.2510 N.pl3  15  ARG15      -0.0865
     29  CZ       -11.8820   25.6060   65.2900 C.cat  15  ARG15       0.5346
     30  NH1      -11.6140   24.8780   64.2100 N.pl3  15  ARG15       0.1354
     31  NH2      -11.1860   25.3860   66.4000 N.pl3  15  ARG15       0.1354
     32  N        -21.3430   28.1580   64.0580 N.3    26  GLU26      -0.1245
     33  CA       -19.9300   27.8690   63.7510 C.3    26  GLU26       0.1567
     34  C        -19.6980   26.3550   63.7070 C.2    26  GLU26       0.2260
     35  O        -20.0540   25.6830   64.6330 O.2    26  GLU26      -0.2867
     36  CB       -19.0250   28.5240   64.7780 C.3    26  GLU26       0.0388
     37  CG       -17.5460   28.2300   64.6440 C.3    26  GLU26       0.1160
     38  CD       -16.7310   28.6410   65.8530 C.2    26  GLU26       0.3649
     39  OE1      -17.1450   28.2760   66.9740 O.co2  26  GLU26      -0.2457
     40  OE2      -15.6460   29.3000   65.7130 O.co2  26  GLU26      -0.2457
     41  N        -16.6040   23.4700   63.0060 N.3    28  CYS28      -0.1235
     42  CA       -15.1810   23.4550   63.3040 C.3    28  CYS28       0.1677
     43  C        -14.5640   22.1470   62.8930 C.2    28  CYS28       0.2270
     44  O        -15.1470   21.0860   63.1500 O.2    28  CYS28      -0.2867
     45  CB       -15.0090   23.5550   64.8030 C.3    28  CYS28       0.0956
     46  SG       -15.8560   24.9850   65.5950 S.3    28  CYS28      -0.0801
     47  N        -10.7720   20.3670   63.5200 N.3    30  ASP30      -0.1239
     48  CA        -9.4520   20.4010   64.1230 C.3    30  ASP30       0.1674
     49  C         -8.6070   19.1500   63.8300 C.2    30  ASP30       0.2266
     50  O         -7.6340   18.8910   64.5480 O.2    30  ASP30      -0.2867
     51  CB        -9.6040   20.5650   65.6370 C.3    30  ASP30       0.1410
     52  CG       -10.0660   21.9420   66.0660 C.2    30  ASP30       0.3668
     53  OD1       -9.7310   22.9600   65.4410 O.co2  30  ASP30      -0.2456
     54  OD2      -10.7510   22.0090   67.1180 O.co2  30  ASP30      -0.2456
     55  N        -17.4190   19.5450   64.2090 N.3    35  TYR35      -0.1241
     56  CA       -18.2140   19.7670   65.4150 C.3    35  TYR35       0.1605
     57  C        -18.7710   21.1810   65.4310 C.2    35  TYR35       0.2264
     58  O        -18.2990   22.0870   64.7090 O.2    35  TYR35      -0.2867
     59  CB       -17.3850   19.4930   66.6730 C.3    35  TYR35       0.0534
     60  CG       -16.2300   20.4230   66.9410 C.ar   35  TYR35      -0.0201
     61  CD1      -14.9560   20.1480   66.4670 C.ar   35  TYR35      -0.0009
     62  CD2      -16.3850   21.5430   67.7790 C.ar   35  TYR35      -0.0009
     63  CE1      -13.8660   20.9740   66.7760 C.ar   35  TYR35       0.0417
     64  CE2      -15.3290   22.3700   68.0590 C.ar   35  TYR35       0.0417
     65  CZ       -14.0730   22.0880   67.5560 C.ar   35  TYR35       0.1957
     66  OH       -13.0490   22.9470   67.8990 O.3    35  TYR35      -0.2866
     67  N        -19.1510   24.6460   67.1930 N.3    37  GLY37      -0.1210
     68  CA       -18.3540   25.4080   68.1310 C.3    37  GLY37       0.1956
     69  C        -19.1590   26.3390   68.9980 C.2    37  GLY37       0.2611
     70  O        -20.3930   26.4220   68.8900 O.2    37  GLY37      -0.2717
     71  N        -18.4460   27.0380   69.8600 N.am   38  ALA38      -0.1979
     72  CA       -19.0380   27.8930   70.8650 C.3    38  ALA38       0.1597
     73  C        -19.6020   29.1920   70.2750 C.2    38  ALA38       0.2287
     74  O        -20.3430   29.8670   70.9690 O.2    38  ALA38      -0.2864
     75  CB       -17.9670   28.2340   71.9210 C.3    38  ALA38       0.0319
     76  N         -1.5230   31.7650   70.8530 N.3    56  ALA56      -0.1231
     77  CA        -2.9670   31.7700   70.6710 C.3    56  ALA56       0.1694
     78  C         -3.3660   31.9070   69.2000 C.2    56  ALA56       0.2591
     79  O         -2.6040   32.3830   68.3760 O.2    56  ALA56      -0.2718
     80  CB        -3.5890   32.8860   71.5200 C.3    56  ALA56       0.0304
     81  N         -4.5920   31.4900   68.8760 N.am   57  VAL57      -0.1980
     82  CA        -5.2150   31.8230   67.5850 C.3    57  VAL57       0.1595
     83  C         -6.1830   32.9390   67.9130 C.2    57  VAL57       0.2287
     84  O         -6.7690   32.9480   69.0110 O.2    57  VAL57      -0.2864
     85  CB        -5.9860   30.6170   66.9160 C.3    57  VAL57       0.0276
     86  CG1       -6.9860   29.9870   67.8830 C.3    57  VAL57       0.0022
     87  CG2       -6.6910   31.0500   65.6480 C.3    57  VAL57       0.0022
     88  N         -9.4140   35.1590   66.3120 N.3    59  ILE59      -0.1245
     89  CA       -10.4350   35.1610   65.2820 C.3    59  ILE59       0.1561
     90  C        -11.2600   36.4050   65.4320 C.2    59  ILE59       0.2260
     91  O        -11.5990   36.7970   66.5550 O.2    59  ILE59      -0.2867
     92  CB       -11.3880   33.9590   65.4070 C.3    59  ILE59       0.0252
     93  CG1      -10.6360   32.6480   65.3300 C.3    59  ILE59       0.0019
     94  CG2      -12.4780   34.0440   64.3030 C.3    59  ILE59       0.0019
     95  CD1      -11.4200   31.4460   65.7380 C.3    59  ILE59       0.0001
     96  N        -12.2850   36.0850   69.2980 N.3    74  TRP74      -0.1241
     97  CA       -11.7390   34.9570   70.0280 C.3    74  TRP74       0.1605
     98  C        -10.2440   35.2260   70.1690 C.2    74  TRP74       0.2264
     99  O         -9.5670   35.4820   69.1770 O.2    74  TRP74      -0.2867
    100  CB       -11.9680   33.6410   69.3000 C.3    74  TRP74       0.0550
    101  CG       -11.4130   32.4550   70.0400 C.ar   74  TRP74       0.0003
    102  CD1      -10.1630   31.9570   69.9520 C.ar   74  TRP74       0.0946
    103  CD2      -12.1010   31.6410   70.9940 C.ar   74  TRP74       0.0152
    104  NE1      -10.0240   30.8540   70.7840 N.ar   74  TRP74      -0.2442
    105  CE2      -11.2000   30.6510   71.4360 C.ar   74  TRP74       0.0810
    106  CE3      -13.3880   31.6590   71.5210 C.ar   74  TRP74       0.0012
    107  CZ2      -11.5530   29.6830   72.3880 C.ar   74  TRP74       0.0191
    108  CZ3      -13.7430   30.6740   72.4720 C.ar   74  TRP74       0.0001
    109  CH2      -12.8300   29.7140   72.8790 C.ar   74  TRP74       0.0015
    110  N         -8.6160   33.1520   72.7260 N.3    76  GLY76      -0.1225
    111  CA        -8.2430   31.9970   73.5570 C.3    76  GLY76       0.1811
    112  C         -9.0460   31.8690   74.8430 C.2    76  GLY76       0.2280
    113  O         -8.9180   30.8580   75.5420 O.2    76  GLY76      -0.2866
    114  N        -15.5060   34.1000   73.5550 N.3    79  TRP79      -0.1241
    115  CA       -15.9130   35.0960   72.6050 C.3    79  TRP79       0.1605
    116  C        -16.2920   36.3780   73.3350 C.2    79  TRP79       0.2264
    117  O        -17.0490   36.3350   74.2950 O.2    79  TRP79      -0.2867
    118  CB       -17.1070   34.5760   71.7890 C.3    79  TRP79       0.0550
    119  CG       -16.7070   33.5070   70.8020 C.ar   79  TRP79       0.0003
    120  CD1      -16.8010   32.1460   70.9450 C.ar   79  TRP79       0.0946
    121  CD2      -16.0830   33.7290   69.5420 C.ar   79  TRP79       0.0152
    122  NE1      -16.3110   31.5160   69.8230 N.ar   79  TRP79      -0.2442
    123  CE2      -15.8350   32.4710   68.9620 C.ar   79  TRP79       0.0810
    124  CE3      -15.6980   34.8780   68.8390 C.ar   79  TRP79       0.0012
    125  CZ2      -15.2740   32.3370   67.6860 C.ar   79  TRP79       0.0191
    126  CZ3      -15.1610   34.7310   67.5780 C.ar   79  TRP79       0.0001
    127  CH2      -14.9490   33.4800   67.0260 C.ar   79  TRP79       0.0015
@<TRIPOS>BOND
     1    24    23    2
     2     1     2    1
     3    23    22    1
     4    18    17    2
     5     2     3    1
     6     2     5    1
     7    21    22    1
     8     3     4    2
     9    17    16    1
    10    22    25    1
    11    15    16    1
    12     5     6    1
    13    16    19    1
    14    25    26    1
    15    11     8   ar
    16    11    13   ar
    17     6     8   ar
    18     6     7   ar
    19    43    44    2
    20    43    42    1
    21    41    42    1
    22    19    20    1
    23     8    10   ar
    24    13    14   ar
    25    26    27    1
    26    42    45    1
    27    47    48    1
    28     7     9   ar
    29    34    33    1
    30    34    35    2
    31    33    32    1
    32    33    36    1
    33    49    48    1
    34    49    50    2
    35    27    28    1
    36    48    51    1
    37    55    56    1
    38    30    29    1
    39    94    92    1
    40    10     9   ar
    41    10    12   ar
    42    14    12   ar
    43    37    36    1
    44    37    38    1
    45    58    57    2
    46    45    46    1
    47    28    29    2
    48    89    92    1
    49    89    90    1
    50    89    88    1
    51    29    31    1
    52    93    92    1
    53    93    95    1
    54    56    57    1
    55    56    59    1
    56    90    91    2
    57    53    52   ar
    58    51    52    1
    59    87    85    1
    60    40    38   ar
    61    38    39   ar
    62    52    54   ar
    63    61    63   ar
    64    61    60   ar
    65    59    60    1
    66    63    65   ar
    67    85    82    1
    68    85    86    1
    69    60    62   ar
    70   127   126   ar
    71   127   125   ar
    72    67    68    1
    73    65    66    1
    74    65    64   ar
    75   126   124   ar
    76    82    83    1
    77    82    81    1
    78   125   123   ar
    79    62    64   ar
    80    83    84    2
    81    68    69    1
    82    79    78    2
    83   124   121   ar
    84    81    78   am
    85    70    69    2
    86   123   121   ar
    87   123   122   ar
    88    69    71   am
    89    99    98    2
    90    78    77    1
    91    96    97    1
    92   100    97    1
    93   100   101    1
    94   121   119   ar
    95   122   120   ar
    96    71    72    1
    97   102   101   ar
    98   102   104   ar
    99    97    98    1
   100   101   103   ar
   101    73    72    1
   102    73    74    2
   103    77    76    1
   104    77    80    1
   105   104   105   ar
   106   119   120   ar
   107   119   118    1
   108    72    75    1
   109   103   105   ar
   110   103   106   ar
   111   105   107   ar
   112   106   108   ar
   113   118   115    1
   114   107   109   ar
   115   108   109   ar
   116   115   116    1
   117   115   114    1
   118   110   111    1
   119   116   117    2
   120   111   112    1
   121   112   113    2
