@<TRIPOS>MOLECULE
tmp/3zw3A00.pdb
 178 169 0 0 0
SMALL
GASTEIGER

@<TRIPOS>ATOM
      1  N         46.8360   17.5220   41.1880 N.3   554  MET554     -0.1245
      2  CA        46.5450   18.3970   40.0580 C.3   554  MET554      0.1570
      3  C         45.7250   19.6000   40.4820 C.2   554  MET554      0.2261
      4  O         44.9040   19.5210   41.4040 O.2   554  MET554     -0.2867
      5  CB        45.8720   17.6120   38.9260 C.3   554  MET554      0.0387
      6  CG        46.7680   16.5310   38.3200 C.3   554  MET554      0.0595
      7  SD        46.0510   15.7620   36.8610 S.3   554  MET554     -0.1393
      8  CE        46.3520   16.9860   35.6560 C.3   554  MET554      0.0692
      9  N         43.0730   21.1590   39.9570 N.3   556  SER556     -0.1217
     10  CA        41.6790   21.1430   39.5390 C.3   556  SER556      0.1889
     11  C         40.7320   21.0580   40.7410 C.2   556  SER556      0.2288
     12  O         41.1600   20.6920   41.8200 O.2   556  SER556     -0.2866
     13  CB        41.4540   19.9960   38.5650 C.3   556  SER556      0.2089
     14  OG        40.0760   19.7580   38.3230 O.3   556  SER556     -0.2183
     15  N         38.3880   18.9030   41.3110 N.3   558  LYS558     -0.1245
     16  CA        38.4310   17.4660   41.6090 C.3   558  LYS558      0.1561
     17  C         39.9200   17.5100   41.7470 C.2   558  LYS558      0.2260
     18  O         40.5690   17.9740   40.8070 O.2   558  LYS558     -0.2867
     19  CB        38.1110   16.5850   40.3670 C.3   558  LYS558      0.0271
     20  CG        36.8800   16.9430   39.5320 C.3   558  LYS558      0.0035
     21  CD        35.6260   16.3660   40.1340 C.3   558  LYS558      0.0206
     22  CE        34.3610   16.8720   39.4860 C.3   558  LYS558      0.1093
     23  NZ        33.1940   16.7610   40.4070 N.3   558  LYS558     -0.1314
     24  N         42.6770   15.6800   41.3050 N.3   560  PRO560     -0.2116
     25  CA        43.1800   14.3280   41.0650 C.3   560  PRO560      0.1372
     26  C         44.6570   14.1580   41.3630 C.2   560  PRO560      0.2244
     27  O         45.4110   15.1290   41.3620 O.2   560  PRO560     -0.2868
     28  CB        42.8260   14.0610   39.5920 C.3   560  PRO560      0.0268
     29  CG        42.7530   15.3520   38.9730 C.3   560  PRO560      0.0207
     30  CD        42.3660   16.3450   40.0190 C.3   560  PRO560      0.0892
     31  N         48.3600   12.8800   40.4500 N.3   562  TRP562     -0.1241
     32  CA        49.2650   12.6480   39.3370 C.3   562  TRP562      0.1605
     33  C         50.3800   11.7410   39.9010 C.2   562  TRP562      0.2264
     34  O         51.2060   12.1950   40.7030 O.2   562  TRP562     -0.2867
     35  CB        49.8240   13.9840   38.8570 C.3   562  TRP562      0.0550
     36  CG        50.9230   13.9220   37.8310 C.ar  562  TRP562      0.0003
     37  CD1       52.2270   13.5610   38.0360 C.ar  562  TRP562      0.0946
     38  CD2       50.8410   14.3830   36.4770 C.ar  562  TRP562      0.0152
     39  NE1       52.9400   13.6960   36.8740 N.ar  562  TRP562     -0.2442
     40  CE2       52.1220   14.2240   35.9050 C.ar  562  TRP562      0.0810
     41  CE3       49.7970   14.8830   35.6770 C.ar  562  TRP562      0.0012
     42  CZ2       52.3940   14.5730   34.5770 C.ar  562  TRP562      0.0191
     43  CZ3       50.0750   15.2600   34.3730 C.ar  562  TRP562      0.0001
     44  CH2       51.3540   15.0900   33.8300 C.ar  562  TRP562      0.0015
     45  N         46.9170    8.9630   36.2470 N.3   581  ILE581     -0.1245
     46  CA        46.1130    9.9080   37.0100 C.3   581  ILE581      0.1561
     47  C         45.0160    9.1380   37.7390 C.2   581  ILE581      0.2260
     48  O         44.3840    8.3010   37.1250 O.2   581  ILE581     -0.2867
     49  CB        45.5090   11.0630   36.1530 C.3   581  ILE581      0.0252
     50  CG1       46.5920   12.0630   35.6910 C.3   581  ILE581      0.0019
     51  CG2       44.3700   11.7830   36.9110 C.3   581  ILE581      0.0019
     52  CD1       46.2500   12.7680   34.4410 C.3   581  ILE581      0.0001
     53  N         41.4800    9.8380   39.7490 N.3   583  LYS583     -0.1245
     54  CA        40.4970   10.8910   39.9350 C.3   583  LYS583      0.1561
     55  C         39.1940   10.4340   40.5550 C.2   583  LYS583      0.2260
     56  O         38.6290    9.4200   40.1180 O.2   583  LYS583     -0.2867
     57  CB        40.2210   11.5920   38.5900 C.3   583  LYS583      0.0271
     58  CG        39.2340   12.7610   38.6860 C.3   583  LYS583      0.0035
     59  CD        39.2860   13.6770   37.5260 C.3   583  LYS583      0.0206
     60  CE        38.7400   12.9200   36.3390 C.3   583  LYS583      0.1093
     61  NZ        38.2220   13.7310   35.2010 N.3   583  LYS583     -0.1314
     62  N         33.7150    7.9000   35.1550 N.3   588  LEU588     -0.1245
     63  CA        34.6550    7.4750   34.1150 C.3   588  LEU588      0.1561
     64  C         34.1360    6.3750   33.2040 C.2   588  LEU588      0.2260
     65  O         34.7760    6.0720   32.1960 O.2   588  LEU588     -0.2867
     66  CB        36.0230    7.1280   34.7180 C.3   588  LEU588      0.0270
     67  CG        36.7590    8.3060   35.3800 C.3   588  LEU588      0.0019
     68  CD1       38.0110    7.8350   36.0460 C.3   588  LEU588      0.0001
     69  CD2       37.0880    9.4090   34.3930 C.3   588  LEU588      0.0001
     70  N         33.5410    8.2400   30.0870 N.3   591  ASP591     -0.1239
     71  CA        34.7840    8.4150   29.3390 C.3   591  ASP591      0.1674
     72  C         35.1600    7.1200   28.6120 C.2   591  ASP591      0.2266
     73  O         35.5260    7.1740   27.4400 O.2   591  ASP591     -0.2867
     74  CB        35.9260    8.8470   30.2670 C.3   591  ASP591      0.1410
     75  CG        35.7350   10.2290   30.9070 C.2   591  ASP591      0.3668
     76  OD1       34.9250   10.3360   31.8610 O.co2 591  ASP591     -0.2456
     77  OD2       36.4480   11.1910   30.4930 O.co2 591  ASP591     -0.2456
     78  N         43.2920    7.7770   24.7990 N.3   617  TYR617     -0.1241
     79  CA        44.1050    7.3700   25.9470 C.3   617  TYR617      0.1605
     80  C         43.4280    6.3440   26.8510 C.2   617  TYR617      0.2264
     81  O         42.1970    6.2390   26.8610 O.2   617  TYR617     -0.2867
     82  CB        44.5400    8.6060   26.7440 C.3   617  TYR617      0.0534
     83  CG        43.3690    9.4550   27.1780 C.ar  617  TYR617     -0.0201
     84  CD1       42.6460    9.1420   28.3240 C.ar  617  TYR617     -0.0009
     85  CD2       42.9530   10.5450   26.4190 C.ar  617  TYR617     -0.0009
     86  CE1       41.5360    9.8740   28.7000 C.ar  617  TYR617      0.0417
     87  CE2       41.8510   11.3040   26.8040 C.ar  617  TYR617      0.0417
     88  CZ        41.1490   10.9630   27.9550 C.ar  617  TYR617      0.1957
     89  OH        40.0740   11.6700   28.4390 O.3   617  TYR617     -0.2866
     90  N         43.4430    7.0590   34.7220 N.3   629  ILE629     -0.1231
     91  CA        43.6440    7.6420   33.3910 C.3   629  ILE629      0.1692
     92  C         45.1300    7.6120   33.0000 C.2   629  ILE629      0.2592
     93  O         46.0020    7.9750   33.7930 O.2   629  ILE629     -0.2718
     94  CB        43.1440    9.1190   33.3660 C.3   629  ILE629      0.0266
     95  CG1       41.6340    9.2220   33.6540 C.3   629  ILE629      0.0019
     96  CG2       43.5430    9.8020   32.0470 C.3   629  ILE629      0.0020
     97  CD1       41.2400   10.4320   34.4450 C.3   629  ILE629      0.0001
     98  N         45.3890    7.2510   31.7570 N.am  630  GLU630     -0.1966
     99  CA        46.7320    7.2440   31.1910 C.3   630  GLU630      0.1733
    100  C         47.2220    8.6710   30.9390 C.2   630  GLU630      0.2616
    101  O         46.5680    9.4470   30.2470 O.2   630  GLU630     -0.2715
    102  CB        46.7760    6.4340   29.8780 C.3   630  GLU630      0.0429
    103  CG        48.1070    6.5080   29.1420 C.3   630  GLU630      0.1163
    104  CD        48.1000    6.0510   27.6910 C.2   630  GLU630      0.3649
    105  OE1       47.0710    5.5130   27.2150 O.co2 630  GLU630     -0.2457
    106  OE2       49.1410    6.2430   27.0240 O.co2 630  GLU630     -0.2457
    107  N         48.3870    9.0080   31.4770 N.am  631  ILE631     -0.1963
    108  CA        49.0000   10.3210   31.2160 C.3   631  ILE631      0.1727
    109  C         49.7370   10.2250   29.8460 C.2   631  ILE631      0.2616
    110  O         50.6740    9.4290   29.6950 O.2   631  ILE631     -0.2715
    111  CB        49.9950   10.7580   32.3280 C.3   631  ILE631      0.0290
    112  CG1       49.3220   10.9330   33.6890 C.3   631  ILE631      0.0022
    113  CG2       50.7610   11.9820   31.9040 C.3   631  ILE631      0.0023
    114  CD1       50.2960   11.2340   34.8660 C.3   631  ILE631      0.0001
    115  N         49.3120   11.0370   28.8660 N.am  632  VAL632     -0.1963
    116  CA        49.9690   11.1420   27.5730 C.3   632  VAL632      0.1727
    117  C         51.1530   12.0720   27.7920 C.2   632  VAL632      0.2616
    118  O         50.9940   13.2300   28.2080 O.2   632  VAL632     -0.2715
    119  CB        49.0490   11.6870   26.4690 C.3   632  VAL632      0.0290
    120  CG1       49.8120   11.9120   25.1640 C.3   632  VAL632      0.0023
    121  CG2       47.8380   10.7960   26.2540 C.3   632  VAL632      0.0023
    122  N         52.3360   11.5640   27.4780 N.am  633  LYS633     -0.1963
    123  CA        53.5990   12.2800   27.6170 C.3   633  LYS633      0.1728
    124  C         53.7440   13.4890   26.6750 C.2   633  LYS633      0.2616
    125  O         53.2160   13.4930   25.5520 O.2   633  LYS633     -0.2715
    126  CB        54.7870   11.3180   27.4430 C.3   633  LYS633      0.0311
    127  CG        54.6740   10.0090   28.2390 C.3   633  LYS633      0.0038
    128  CD        54.6360   10.1890   29.7900 C.3   633  LYS633      0.0206
    129  CE        55.9960   10.2210   30.4520 C.3   633  LYS633      0.1093
    130  NZ        55.9150    9.7300   31.8520 N.3   633  LYS633     -0.1314
    131  N         54.4720   14.5150   27.1650 N.am  634  ASP634     -0.1957
    132  CA        54.7850   15.7500   26.4590 C.3   634  ASP634      0.1840
    133  C         53.5390   16.4580   25.9450 C.2   634  ASP634      0.2621
    134  O         53.5050   16.8850   24.8020 O.2   634  ASP634     -0.2715
    135  CB        55.8100   15.4910   25.3330 C.3   634  ASP634      0.1450
    136  CG        56.9900   14.6260   25.7540 C.2   634  ASP634      0.3671
    137  OD1       57.6930   15.0040   26.7070 O.co2 634  ASP634     -0.2456
    138  OD2       57.2220   13.5820   25.1120 O.co2 634  ASP634     -0.2456
    139  N         52.5210   16.5860   26.7910 N.am  635  ALA635     -0.1977
    140  CA        51.2460   17.2000   26.4410 C.3   635  ALA635      0.1597
    141  C         50.8840   18.3710   27.3710 C.2   635  ALA635      0.2287
    142  O         51.2460   18.3700   28.5470 O.2   635  ALA635     -0.2864
    143  CB        50.1460   16.1450   26.4500 C.3   635  ALA635      0.0319
    144  N         43.8730   19.2280   24.7430 N.3   703  MET703     -0.1245
    145  CA        45.3200   19.2260   24.8910 C.3   703  MET703      0.1570
    146  C         46.0320   19.0400   23.5680 C.2   703  MET703      0.2261
    147  O         45.4180   18.6450   22.5670 O.2   703  MET703     -0.2867
    148  CB        45.7420   18.1160   25.8810 C.3   703  MET703      0.0387
    149  CG        45.2260   18.3090   27.3000 C.3   703  MET703      0.0595
    150  SD        45.9250   17.0670   28.3250 S.3   703  MET703     -0.1393
    151  CE        47.4100   17.8950   28.8730 C.3   703  MET703      0.0692
    152  N         44.1790   16.6020   21.0910 N.3   711  PHE711     -0.1241
    153  CA        43.2770   15.5980   21.6580 C.3   711  PHE711      0.1605
    154  C         42.4130   16.1450   22.7640 C.2   711  PHE711      0.2264
    155  O         42.8850   16.9490   23.5650 O.2   711  PHE711     -0.2867
    156  CB        43.9880   14.3100   22.0760 C.3   711  PHE711      0.0534
    157  CG        44.9290   14.4230   23.2370 C.ar  711  PHE711     -0.0203
    158  CD1       46.2160   14.9160   23.0620 C.ar  711  PHE711     -0.0042
    159  CD2       44.5530   13.9900   24.4980 C.ar  711  PHE711     -0.0042
    160  CE1       47.0940   15.0280   24.1480 C.ar  711  PHE711     -0.0003
    161  CE2       45.4350   14.0810   25.5720 C.ar  711  PHE711     -0.0003
    162  CZ        46.6980   14.6070   25.3890 C.ar  711  PHE711     -0.0000
    163  N         39.9800   15.7940   26.2180 N.3   713  ILE713     -0.1231
    164  CA        39.9920   15.0400   27.5010 C.3   713  ILE713      0.1692
    165  C         38.7090   15.2930   28.2980 C.2   713  ILE713      0.2592
    166  O         37.8920   16.0940   27.8890 O.2   713  ILE713     -0.2718
    167  CB        41.2510   15.3780   28.3380 C.3   713  ILE713      0.0266
    168  CG1       41.2590   16.8570   28.7810 C.3   713  ILE713      0.0019
    169  CG2       42.5360   14.9890   27.5550 C.3   713  ILE713      0.0020
    170  CD1       42.3460   17.2460   29.7050 C.3   713  ILE713      0.0001
    171  N         38.5380   14.6390   29.4150 N.am  714  ASP714     -0.1974
    172  CA        37.4370   14.8830   30.3470 C.3   714  ASP714      0.1709
    173  C         36.0050   14.7610   29.7940 C.2   714  ASP714      0.2293
    174  O         35.2100   15.6890   29.9090 O.2   714  ASP714     -0.2864
    175  CB        37.6690   16.2410   31.0460 C.3   714  ASP714      0.1436
    176  CG        37.2080   16.2350   32.4760 C.2   714  ASP714      0.3671
    177  OD1       36.8980   15.1120   32.9960 O.co2 714  ASP714     -0.2456
    178  OD2       37.1610   17.3500   33.0980 O.co2 714  ASP714     -0.2456
@<TRIPOS>BOND
     1   152   153    1
     2   153   156    1
     3   153   154    1
     4   156   157    1
     5   147   146    2
     6   154   155    2
     7   158   157   ar
     8   158   160   ar
     9   157   159   ar
    10   146   145    1
    11   160   162   ar
    12   159   161   ar
    13   144   145    1
    14    78    79    1
    15   134   133    2
    16   145   148    1
    17   138   136   ar
    18   120   119    1
    19   135   136    1
    20   135   132    1
    21   162   161   ar
    22   125   124    2
    23   136   137   ar
    24   148   149    1
    25   133   132    1
    26   133   139   am
    27    79    82    1
    28    79    80    1
    29   163   164    1
    30   121   119    1
    31    85    87   ar
    32    85    83   ar
    33   140   143    1
    34   140   139    1
    35   140   141    1
    36   132   131    1
    37   119   116    1
    38   124   131   am
    39   124   123    1
    40    82    83    1
    41    87    88   ar
    42    80    81    2
    43   106   104   ar
    44    83    84   ar
    45   105   104   ar
    46   149   150    1
    47   141   142    2
    48    73    72    2
    49   126   123    1
    50   126   127    1
    51   122   123    1
    52   122   117   am
    53   164   165    1
    54   164   167    1
    55   169   167    1
    56   116   117    1
    57   116   115    1
    58   104   103    1
    59   117   118    2
    60   166   165    2
    61    88    89    1
    62    88    86   ar
    63   127   128    1
    64   165   171   am
    65    84    86   ar
    66   150   151    1
    67   167   168    1
    68    72    71    1
    69   168   170    1
    70   115   109   am
    71   103   102    1
    72    71    70    1
    73    71    74    1
    74   171   172    1
    75   110   109    2
    76   128   129    1
    77   173   174    2
    78   173   172    1
    79   109   108    1
    80   102    99    1
    81   101   100    2
    82    74    75    1
    83   172   175    1
    84   129   130    1
    85    77    75   ar
    86    75    76   ar
    87   100    99    1
    88   100   107   am
    89   175   176    1
    90    99    98    1
    91   108   107    1
    92   108   111    1
    93    98    92   am
    94   113   111    1
    95    96    94    1
    96    65    64    2
    97   111   112    1
    98   176   177   ar
    99   176   178   ar
   100    92    91    1
   101    92    93    2
   102    64    63    1
   103    94    91    1
   104    94    95    1
   105    91    90    1
   106    95    97    1
   107   112   114    1
   108    44    43   ar
   109    44    42   ar
   110    63    66    1
   111    63    62    1
   112    43    41   ar
   113    69    67    1
   114    52    50    1
   115    42    40   ar
   116    66    67    1
   117    61    60    1
   118    67    68    1
   119     8     7    1
   120    41    38   ar
   121    50    49    1
   122    40    38   ar
   123    40    39   ar
   124    49    51    1
   125    49    46    1
   126    45    46    1
   127    60    59    1
   128    38    36   ar
   129     7     6    1
   130    39    37   ar
   131    46    47    1
   132    48    47    2
   133    59    58    1
   134    36    37   ar
   135    36    35    1
   136     6     5    1
   137    14    13    1
   138    13    10    1
   139    57    58    1
   140    57    54    1
   141    35    32    1
   142     5     2    1
   143    29    28    1
   144    29    30    1
   145    32    33    1
   146    32    31    1
   147    22    21    1
   148    22    23    1
   149    20    21    1
   150    20    19    1
   151    10     9    1
   152    10    11    1
   153    28    25    1
   154    53    54    1
   155    33    34    2
   156    54    55    1
   157    30    24    1
   158     2     3    1
   159     2     1    1
   160    56    55    2
   161    19    16    1
   162     3     4    2
   163    11    12    2
   164    18    17    2
   165    25    24    1
   166    25    26    1
   167    15    16    1
   168    27    26    2
   169    16    17    1
