@<TRIPOS>MOLECULE
tmp/3zweB01.pdb
 133 128 0 0 0
SMALL
GASTEIGER

@<TRIPOS>ATOM
      1  N         -6.1650  -11.8730   12.9550 N.3     8  TRP8       -0.1241
      2  CA        -5.1440  -12.1210   11.9630 C.3     8  TRP8        0.1605
      3  C         -4.6940  -13.5990   11.9880 C.2     8  TRP8        0.2264
      4  O         -4.9320  -14.3380   12.9740 O.2     8  TRP8       -0.2867
      5  CB        -3.9200  -11.2410   12.2040 C.3     8  TRP8        0.0550
      6  CG        -3.1530  -11.5430   13.5030 C.ar    8  TRP8        0.0003
      7  CD1       -2.0560  -12.3930   13.6670 C.ar    8  TRP8        0.0946
      8  CD2       -3.4270  -10.9970   14.7910 C.ar    8  TRP8        0.0152
      9  NE1       -1.6400  -12.3620   14.9750 N.ar    8  TRP8       -0.2442
     10  CE2       -2.4570  -11.5180   15.6850 C.ar    8  TRP8        0.0810
     11  CE3       -4.3680  -10.0720   15.2700 C.ar    8  TRP8        0.0012
     12  CZ2       -2.4440  -11.1870   17.0370 C.ar    8  TRP8        0.0191
     13  CZ3       -4.3300   -9.7120   16.6240 C.ar    8  TRP8        0.0001
     14  CH2       -3.3580  -10.2760   17.4880 C.ar    8  TRP8        0.0015
     15  N         -5.6630  -15.4900   15.5420 N.3    13  SER13      -0.1217
     16  CA        -5.6330  -14.7120   16.7800 C.3    13  SER13       0.1889
     17  C         -6.7520  -13.6600   16.7100 C.2    13  SER13       0.2288
     18  O         -7.0390  -13.1130   15.6370 O.2    13  SER13      -0.2866
     19  CB        -4.2960  -14.0140   16.9460 C.3    13  SER13       0.2089
     20  OG        -3.2030  -14.8990   17.2010 O.3    13  SER13      -0.2183
     21  N         -8.3090  -10.1080   18.8860 N.3    15  ARG15      -0.1245
     22  CA        -8.2810   -9.1940   20.0210 C.3    15  ARG15       0.1563
     23  C         -9.5770   -8.4080   20.0440 C.2    15  ARG15       0.2260
     24  O        -10.0480   -7.9180   19.0080 O.2    15  ARG15      -0.2867
     25  CB        -7.0790   -8.2250   20.0340 C.3    15  ARG15       0.0307
     26  CG        -5.6860   -8.8590   19.9760 C.3    15  ARG15       0.0489
     27  CD        -5.3770   -9.6140   21.2790 C.3    15  ARG15       0.2205
     28  NE        -4.0490  -10.2140   21.2190 N.pl3  15  ARG15      -0.0865
     29  CZ        -3.7770  -11.4440   20.7860 C.cat  15  ARG15       0.5346
     30  NH1       -4.7520  -12.2660   20.3900 N.pl3  15  ARG15       0.1354
     31  NH2       -2.5060  -11.8460   20.7640 N.pl3  15  ARG15       0.1354
     32  N         -8.2700   -5.2730   27.1260 N.3    26  GLU26      -0.1245
     33  CA        -8.0990   -6.1340   25.9720 C.3    26  GLU26       0.1567
     34  C         -8.2310   -7.5920   26.3710 C.2    26  GLU26       0.2260
     35  O         -7.5650   -8.0470   27.3240 O.2    26  GLU26      -0.2867
     36  CB        -6.7190   -5.8870   25.3840 C.3    26  GLU26       0.0388
     37  CG        -6.2980   -6.8500   24.2610 C.3    26  GLU26       0.1160
     38  CD        -4.8650   -6.6610   23.8900 C.2    26  GLU26       0.3649
     39  OE1       -4.0070   -6.5800   24.8110 O.co2  26  GLU26      -0.2457
     40  OE2       -4.5860   -6.5650   22.6760 O.co2  26  GLU26      -0.2457
     41  N         -7.8760  -11.5250   24.6730 N.3    28  CYS28      -0.1235
     42  CA        -7.1030  -12.1360   23.5970 C.3    28  CYS28       0.1677
     43  C         -7.3920  -13.6180   23.3810 C.2    28  CYS28       0.2270
     44  O         -7.7140  -14.3620   24.3300 O.2    28  CYS28      -0.2867
     45  CB        -5.6050  -11.9300   23.8470 C.3    28  CYS28       0.0956
     46  SG        -5.1400  -10.3190   24.5350 S.3    28  CYS28      -0.0801
     47  N         -5.6230  -16.8360   20.9320 N.3    30  ASP30      -0.1239
     48  CA        -4.5810  -17.2750   20.0150 C.3    30  ASP30       0.1674
     49  C         -4.7060  -18.7830   19.7600 C.2    30  ASP30       0.2266
     50  O         -3.7290  -19.4450   19.4060 O.2    30  ASP30      -0.2867
     51  CB        -3.1680  -16.9510   20.5200 C.3    30  ASP30       0.1410
     52  CG        -2.9290  -15.4640   20.7620 C.2    30  ASP30       0.3668
     53  OD1       -3.1390  -14.6090   19.8520 O.co2  30  ASP30      -0.2456
     54  OD2       -2.4470  -15.1540   21.8630 O.co2  30  ASP30      -0.2456
     55  N         -7.7670  -14.8260   27.3040 N.3    35  TYR35      -0.1227
     56  CA        -6.9840  -14.2890   28.3790 C.3    35  TYR35       0.1736
     57  C         -6.9670  -12.7790   28.3060 C.2    35  TYR35       0.2596
     58  O         -7.4500  -12.1910   27.3320 O.2    35  TYR35      -0.2718
     59  CB        -5.5540  -14.8310   28.3400 C.3    35  TYR35       0.0548
     60  CG        -4.6890  -14.4020   27.1460 C.ar   35  TYR35      -0.0200
     61  CD1       -4.7030  -15.1250   25.9550 C.ar   35  TYR35      -0.0009
     62  CD2       -3.8290  -13.3030   27.2420 C.ar   35  TYR35      -0.0009
     63  CE1       -3.8800  -14.7500   24.8760 C.ar   35  TYR35       0.0417
     64  CE2       -3.0230  -12.9050   26.1700 C.ar   35  TYR35       0.0417
     65  CZ        -3.0520  -13.6420   24.9880 C.ar   35  TYR35       0.1957
     66  OH        -2.2350  -13.2600   23.9350 O.3    35  TYR35      -0.2866
     67  N         -6.3840  -12.1590   29.3260 N.am   36  THR36      -0.1939
     68  CA        -6.3150  -10.7000   29.4140 C.3    36  THR36       0.2028
     69  C         -5.0200  -10.1420   28.8430 C.2    36  THR36       0.2643
     70  O         -3.9370  -10.5100   29.2730 O.2    36  THR36      -0.2714
     71  CB        -6.5710  -10.1980   30.8500 C.3    36  THR36       0.1808
     72  OG1       -7.9070  -10.5340   31.2170 O.3    36  THR36      -0.2208
     73  CG2       -6.4460   -8.6660   30.9240 C.3    36  THR36       0.0379
     74  N         -5.1440   -9.2400   27.8680 N.am   37  GLY37      -0.1939
     75  CA        -3.9700   -8.6390   27.2590 C.3    37  GLY37       0.2014
     76  C         -3.2830   -7.5920   28.1050 C.2    37  GLY37       0.2638
     77  O         -3.7680   -7.2140   29.1680 O.2    37  GLY37      -0.2714
     78  N         -2.1320   -7.1370   27.6340 N.am   38  ALA38      -0.1977
     79  CA        -1.3680   -6.1230   28.3250 C.3    38  ALA38       0.1597
     80  C         -1.9770   -4.7340   28.1170 C.2    38  ALA38       0.2287
     81  O         -1.7060   -3.8200   28.8880 O.2    38  ALA38      -0.2864
     82  CB         0.0740   -6.1440   27.8440 C.3    38  ALA38       0.0319
     83  N          2.7280   -9.2770   13.8890 N.3    57  VAL57      -0.1245
     84  CA         1.4750   -8.4860   13.9230 C.3    57  VAL57       0.1561
     85  C          1.7210   -7.0380   14.3480 C.2    57  VAL57       0.2260
     86  O          2.5990   -6.7440   15.1860 O.2    57  VAL57      -0.2867
     87  CB         0.3070   -9.1510   14.7070 C.3    57  VAL57       0.0252
     88  CG1        0.5100   -9.0760   16.1870 C.3    57  VAL57       0.0019
     89  CG2       -1.0160   -8.4630   14.3490 C.3    57  VAL57       0.0019
     90  N         -0.6790   -3.6170   15.4580 N.3    59  ILE59      -0.1245
     91  CA        -2.0490   -3.2380   15.8170 C.3    59  ILE59       0.1561
     92  C         -2.0570   -1.7560   16.1280 C.2    59  ILE59       0.2260
     93  O         -1.1170   -1.2420   16.7270 O.2    59  ILE59      -0.2867
     94  CB        -2.5230   -3.9830   17.0940 C.3    59  ILE59       0.0252
     95  CG1       -2.4840   -5.5030   16.9080 C.3    59  ILE59       0.0019
     96  CG2       -3.9370   -3.5400   17.4920 C.3    59  ILE59       0.0019
     97  CD1       -2.6580   -6.2840   18.2030 C.3    59  ILE59       0.0001
     98  N          1.0090   -1.5250   18.8000 N.3    74  TRP74      -0.1241
     99  CA         1.7540   -2.7300   19.0830 C.3    74  TRP74       0.1605
    100  C          2.5510   -3.1130   17.8440 C.2    74  TRP74       0.2264
    101  O          2.0090   -3.2350   16.7490 O.2    74  TRP74      -0.2867
    102  CB         0.8310   -3.8640   19.5030 C.3    74  TRP74       0.0550
    103  CG         1.5560   -5.2020   19.6380 C.ar   74  TRP74       0.0003
    104  CD1        1.8920   -6.0810   18.6310 C.ar   74  TRP74       0.0946
    105  CD2        2.0150   -5.7830   20.8550 C.ar   74  TRP74       0.0152
    106  NE1        2.5320   -7.1950   19.1670 N.ar   74  TRP74      -0.2442
    107  CE2        2.6080   -7.0340   20.5330 C.ar   74  TRP74       0.0810
    108  CE3        1.9510   -5.3800   22.2010 C.ar   74  TRP74       0.0012
    109  CZ2        3.1530   -7.8820   21.5130 C.ar   74  TRP74       0.0191
    110  CZ3        2.4860   -6.2140   23.1760 C.ar   74  TRP74       0.0001
    111  CH2        3.0890   -7.4580   22.8200 C.ar   74  TRP74       0.0015
    112  N          5.3380   -5.5100   18.2530 N.3    76  GLY76      -0.1225
    113  CA         6.1860   -6.6050   18.7300 C.3    76  GLY76       0.1811
    114  C          7.1760   -6.0700   19.7330 C.2    76  GLY76       0.2280
    115  O          8.3900   -6.0280   19.4800 O.2    76  GLY76      -0.2866
    116  N          5.5990   -4.4800   23.2970 N.3    78  GLY78      -0.1210
    117  CA         4.8380   -3.6160   24.1800 C.3    78  GLY78       0.1956
    118  C          4.0640   -2.5280   23.4690 C.2    78  GLY78       0.2611
    119  O          4.3250   -2.2030   22.3060 O.2    78  GLY78      -0.2717
    120  N          3.1050   -1.9650   24.1910 N.am   79  TRP79      -0.1976
    121  CA         2.2290   -0.9260   23.6640 C.3    79  TRP79       0.1640
    122  C          2.8920    0.4280   23.7460 C.2    79  TRP79       0.2290
    123  O          3.3170    0.8380   24.8340 O.2    79  TRP79      -0.2864
    124  CB         0.9200   -0.9250   24.4440 C.3    79  TRP79       0.0576
    125  CG         0.0860   -2.0880   24.1100 C.ar   79  TRP79       0.0006
    126  CD1       -0.0290   -3.2410   24.8120 C.ar   79  TRP79       0.0946
    127  CD2       -0.7450   -2.2350   22.9510 C.ar   79  TRP79       0.0152
    128  NE1       -0.9010   -4.1050   24.1770 N.ar   79  TRP79      -0.2442
    129  CE2       -1.3510   -3.5070   23.0290 C.ar   79  TRP79       0.0810
    130  CE3       -1.0480   -1.4050   21.8690 C.ar   79  TRP79       0.0012
    131  CZ2       -2.2500   -3.9730   22.0610 C.ar   79  TRP79       0.0191
    132  CZ3       -1.9310   -1.8720   20.8940 C.ar   79  TRP79       0.0001
    133  CH2       -2.5190   -3.1330   21.0040 C.ar   79  TRP79       0.0015
@<TRIPOS>BOND
     1     2     3    1
     2     2     5    1
     3     2     1    1
     4     3     4    2
     5     5     6    1
     6     6     7   ar
     7     6     8   ar
     8     7     9   ar
     9    83    84    1
    10    84    85    1
    11    84    87    1
    12    85    86    2
    13    89    87    1
    14    87    88    1
    15     8    11   ar
    16     8    10   ar
    17     9    10   ar
    18    11    13   ar
    19    90    91    1
    20    15    16    1
    21    18    17    2
    22    10    12   ar
    23    91    92    1
    24    91    94    1
    25    92    93    2
    26    13    14   ar
    27    17    16    1
    28   101   100    2
    29    16    19    1
    30    95    94    1
    31    95    97    1
    32    19    20    1
    33    12    14   ar
    34    94    96    1
    35   100    99    1
    36   112   113    1
    37   104   106   ar
    38   104   103   ar
    39   113   114    1
    40    98    99    1
    41    21    22    1
    42    24    23    2
    43    99   102    1
    44   106   107   ar
    45    50    49    2
    46   115   114    2
    47   102   103    1
    48   103   105   ar
    49    49    48    1
    50    53    52   ar
    51    26    25    1
    52    26    27    1
    53    48    51    1
    54    48    47    1
    55    22    25    1
    56    22    23    1
    57    30    29    1
    58    51    52    1
    59   107   105   ar
    60   107   109   ar
    61    52    54   ar
    62    31    29    1
    63    29    28    2
    64   105   108   ar
    65   132   133   ar
    66   132   130   ar
    67   133   131   ar
    68    28    27    1
    69   109   111   ar
    70   130   127   ar
    71   131   129   ar
    72   108   110   ar
    73   119   118    2
    74    40    38   ar
    75   111   110   ar
    76   127   129   ar
    77   127   125   ar
    78   129   128   ar
    79   116   117    1
    80    43    42    1
    81    43    44    2
    82   118   117    1
    83   118   120   am
    84    42    45    1
    85    42    41    1
    86   121   122    1
    87   121   120    1
    88   121   124    1
    89   122   123    2
    90    45    46    1
    91    38    37    1
    92    38    39   ar
    93    66    65    1
    94   125   124    1
    95   125   126   ar
    96   128   126   ar
    97    37    36    1
    98    63    65   ar
    99    63    61   ar
   100    65    64   ar
   101    36    33    1
   102    61    60   ar
   103    33    34    1
   104    33    32    1
   105    64    62   ar
   106    34    35    2
   107    60    62   ar
   108    60    59    1
   109    75    74    1
   110    75    76    1
   111    55    56    1
   112    58    57    2
   113    78    76   am
   114    78    79    1
   115    82    79    1
   116    74    69   am
   117    76    77    2
   118    80    79    1
   119    80    81    2
   120    57    56    1
   121    57    67   am
   122    59    56    1
   123    69    70    2
   124    69    68    1
   125    67    68    1
   126    68    71    1
   127    71    73    1
   128    71    72    1
