@<TRIPOS>MOLECULE
tmp/3zweA00.pdb
 119 116 0 0 0
SMALL
GASTEIGER

@<TRIPOS>ATOM
      1  N        -14.5200   -9.3560    2.8290 N.3     8  TRP8       -0.1241
      2  CA       -13.4720  -10.3380    2.4250 C.3     8  TRP8        0.1605
      3  C        -13.5650  -10.6650    0.9480 C.2     8  TRP8        0.2264
      4  O        -14.6300  -10.4520    0.3150 O.2     8  TRP8       -0.2867
      5  CB       -13.6010  -11.6180    3.2580 C.3     8  TRP8        0.0550
      6  CG       -14.8980  -12.3520    2.9780 C.ar    8  TRP8        0.0003
      7  CD1      -15.1230  -13.3010    2.0090 C.ar    8  TRP8        0.0946
      8  CD2      -16.1500  -12.1500    3.6400 C.ar    8  TRP8        0.0152
      9  NE1      -16.4350  -13.7070    2.0370 N.ar    8  TRP8       -0.2442
     10  CE2      -17.0840  -13.0340    3.0430 C.ar    8  TRP8        0.0810
     11  CE3      -16.5700  -11.3350    4.7060 C.ar    8  TRP8        0.0012
     12  CZ2      -18.4190  -13.1060    3.4620 C.ar    8  TRP8        0.0191
     13  CZ3      -17.9040  -11.4080    5.1300 C.ar    8  TRP8        0.0001
     14  CH2      -18.8100  -12.3050    4.5120 C.ar    8  TRP8        0.0015
     15  N        -20.3050   -7.3320    4.9460 N.3    15  ARG15      -0.1245
     16  CA       -21.3680   -7.4920    5.9610 C.3    15  ARG15       0.1563
     17  C        -21.4310   -6.2660    6.8230 C.2    15  ARG15       0.2260
     18  O        -20.4130   -5.7550    7.2650 O.2    15  ARG15      -0.2867
     19  CB       -21.1850   -8.7510    6.8240 C.3    15  ARG15       0.0307
     20  CG       -21.1980  -10.0810    5.9830 C.3    15  ARG15       0.0489
     21  CD       -22.5610  -10.3710    5.3430 C.3    15  ARG15       0.2205
     22  NE       -22.5480  -11.6740    4.6560 N.pl3  15  ARG15      -0.0865
     23  CZ       -22.2420  -11.8300    3.3820 C.cat  15  ARG15       0.5346
     24  NH1      -21.8720  -10.7720    2.6770 N.pl3  15  ARG15       0.1354
     25  NH2      -22.2600  -13.0550    2.8240 N.pl3  15  ARG15       0.1354
     26  N        -28.3420   -7.8600   10.2140 N.3    26  GLU26      -0.1245
     27  CA       -27.2190   -7.9640    9.2910 C.3    26  GLU26       0.1567
     28  C        -27.7360   -7.7240    7.8950 C.2    26  GLU26       0.2260
     29  O        -28.8010   -8.2590    7.5280 O.2    26  GLU26      -0.2867
     30  CB       -26.5730   -9.3590    9.4350 C.3    26  GLU26       0.0388
     31  CG       -25.4920   -9.7890    8.3850 C.3    26  GLU26       0.1160
     32  CD       -25.1400  -11.2900    8.4830 C.2    26  GLU26       0.3649
     33  OE1      -26.0830  -12.1250    8.6300 O.co2  26  GLU26      -0.2457
     34  OE2      -23.9450  -11.6530    8.4080 O.co2  26  GLU26      -0.2457
     35  N        -26.2050   -7.8290    3.7830 N.3    28  CYS28      -0.1235
     36  CA       -25.1350   -8.5850    3.0960 C.3    28  CYS28       0.1677
     37  C        -25.0140   -8.1780    1.6610 C.2    28  CYS28       0.2270
     38  O        -26.0250   -7.9530    1.0010 O.2    28  CYS28      -0.2867
     39  CB       -25.4270  -10.1220    3.1660 C.3    28  CYS28       0.0956
     40  SG       -25.8870  -10.6900    4.7600 S.3    28  CYS28      -0.0801
     41  N        -22.7470   -9.6060   -1.8670 N.3    30  ASP30      -0.1239
     42  CA       -21.8580  -10.6570   -2.4270 C.3    30  ASP30       0.1674
     43  C        -21.5350  -10.4130   -3.8780 C.2    30  ASP30       0.2266
     44  O        -20.9900  -11.3020   -4.5890 O.2    30  ASP30      -0.2867
     45  CB       -22.4890  -12.0520   -2.3090 C.3    30  ASP30       0.1410
     46  CG       -22.5560  -12.5470   -0.9020 C.2    30  ASP30       0.3668
     47  OD1      -21.6280  -12.3060   -0.0820 O.co2  30  ASP30      -0.2456
     48  OD2      -23.5560  -13.2170   -0.5800 O.co2  30  ASP30      -0.2456
     49  N        -28.8990   -7.9620    0.7200 N.3    35  TYR35      -0.1227
     50  CA       -30.0020   -8.7660    1.2780 C.3    35  TYR35       0.1736
     51  C        -29.9020   -8.8510    2.7890 C.2    35  TYR35       0.2596
     52  O        -28.8630   -8.4830    3.3930 O.2    35  TYR35      -0.2718
     53  CB       -30.0630  -10.1700    0.6300 C.3    35  TYR35       0.0548
     54  CG       -28.8010  -10.9910    0.7940 C.ar   35  TYR35      -0.0200
     55  CD1      -28.5990  -11.7440    1.9460 C.ar   35  TYR35      -0.0009
     56  CD2      -27.7960  -11.0020   -0.1920 C.ar   35  TYR35      -0.0009
     57  CE1      -27.4480  -12.5060    2.1370 C.ar   35  TYR35       0.0417
     58  CE2      -26.6140  -11.7990   -0.0080 C.ar   35  TYR35       0.0417
     59  CZ       -26.4830  -12.5320    1.1880 C.ar   35  TYR35       0.1957
     60  OH       -25.3750  -13.2990    1.4720 O.3    35  TYR35      -0.2866
     61  N        -30.9540   -9.3510    3.4300 N.am   36  THR36      -0.1939
     62  CA       -30.9040   -9.4670    4.8660 C.3    36  THR36       0.2028
     63  C        -30.2760  -10.8110    5.1900 C.2    36  THR36       0.2643
     64  O        -30.6190  -11.8250    4.5550 O.2    36  THR36      -0.2714
     65  CB       -32.2830   -9.3530    5.4720 C.3    36  THR36       0.1808
     66  OG1      -32.7550   -8.0190    5.2490 O.3    36  THR36      -0.2208
     67  CG2      -32.2690   -9.6830    6.9780 C.3    36  THR36       0.0379
     68  N        -29.3550  -10.8020    6.1500 N.am   37  GLY37      -0.1939
     69  CA       -28.6460  -12.0000    6.5460 C.3    37  GLY37       0.2014
     70  C        -29.3250  -12.7690    7.6580 C.2    37  GLY37       0.2638
     71  O        -30.2610  -12.2880    8.3020 O.2    37  GLY37      -0.2714
     72  N        -28.8150  -13.9750    7.8870 N.am   38  ALA38      -0.1977
     73  CA       -29.3110  -14.8580    8.9390 C.3    38  ALA38       0.1597
     74  C        -29.1050  -14.3560   10.3550 C.2    38  ALA38       0.2287
     75  O        -29.7540  -14.8440   11.2680 O.2    38  ALA38      -0.2864
     76  CB       -28.6620  -16.2670    8.7790 C.3    38  ALA38       0.0319
     77  N        -14.9760  -18.8150    4.8300 N.3    57  VAL57      -0.1245
     78  CA       -14.9910  -17.5490    5.6000 C.3    57  VAL57       0.1561
     79  C        -15.5120  -17.7970    6.9960 C.2    57  VAL57       0.2260
     80  O        -16.4570  -18.5740    7.1640 O.2    57  VAL57      -0.2867
     81  CB       -15.8520  -16.4020    4.9270 C.3    57  VAL57       0.0252
     82  CG1      -17.3150  -16.7880    4.8120 C.3    57  VAL57       0.0019
     83  CG2      -15.7210  -15.0520    5.7260 C.3    57  VAL57       0.0019
     84  N        -16.5850  -15.7010   10.7170 N.3    59  ILE59      -0.1245
     85  CA       -16.9760  -14.3860   11.2360 C.3    59  ILE59       0.1561
     86  C        -17.2220  -14.4960   12.7020 C.2    59  ILE59       0.2260
     87  O        -17.8310  -15.4640   13.1600 O.2    59  ILE59      -0.2867
     88  CB       -18.2750  -13.8350   10.5530 C.3    59  ILE59       0.0252
     89  CG1      -18.1680  -13.8990    9.0240 C.3    59  ILE59       0.0019
     90  CG2      -18.5560  -12.3670   11.0330 C.3    59  ILE59       0.0019
     91  CD1      -19.5200  -13.5920    8.3150 C.3    59  ILE59       0.0001
     92  N        -19.8420  -17.6170   12.9290 N.3    74  TRP74      -0.1241
     93  CA       -20.2520  -18.1910   11.6910 C.3    74  TRP74       0.1605
     94  C        -19.0370  -18.9140   11.1630 C.2    74  TRP74       0.2264
     95  O        -17.9520  -18.3250   11.0610 O.2    74  TRP74      -0.2867
     96  CB       -20.7010  -17.1240   10.7070 C.3    74  TRP74       0.0550
     97  CG       -21.0510  -17.6940    9.3840 C.ar   74  TRP74       0.0003
     98  CD1      -20.2170  -17.8990    8.3300 C.ar   74  TRP74       0.0946
     99  CD2      -22.3360  -18.1930    8.9890 C.ar   74  TRP74       0.0152
    100  NE1      -20.8980  -18.4690    7.2940 N.ar   74  TRP74      -0.2442
    101  CE2      -22.2030  -18.6780    7.6760 C.ar   74  TRP74       0.0810
    102  CE3      -23.5770  -18.2960    9.6370 C.ar   74  TRP74       0.0012
    103  CZ2      -23.2770  -19.2270    6.9570 C.ar   74  TRP74       0.0191
    104  CZ3      -24.6550  -18.8500    8.9250 C.ar   74  TRP74       0.0001
    105  CH2      -24.4880  -19.3040    7.5890 C.ar   74  TRP74       0.0015
    106  N        -25.1440  -19.6630   12.9410 N.3    79  TRP79      -0.1241
    107  CA       -24.5340  -18.8790   13.9900 C.3    79  TRP79       0.1605
    108  C        -24.5440  -19.6660   15.2850 C.2    79  TRP79       0.2264
    109  O        -25.6210  -19.9870   15.8070 O.2    79  TRP79      -0.2867
    110  CB       -25.2850  -17.5430   14.1580 C.3    79  TRP79       0.0550
    111  CG       -25.0950  -16.6470   12.9740 C.ar   79  TRP79       0.0003
    112  CD1      -25.9250  -16.5270   11.8940 C.ar   79  TRP79       0.0946
    113  CD2      -23.9860  -15.7710   12.7300 C.ar   79  TRP79       0.0152
    114  NE1      -25.4010  -15.6300   10.9930 N.ar   79  TRP79      -0.2442
    115  CE2      -24.2130  -15.1520   11.4800 C.ar   79  TRP79       0.0810
    116  CE3      -22.8180  -15.4550   13.4450 C.ar   79  TRP79       0.0012
    117  CZ2      -23.3220  -14.2010   10.9300 C.ar   79  TRP79       0.0191
    118  CZ3      -21.9290  -14.5150   12.8990 C.ar   79  TRP79       0.0001
    119  CH2      -22.1870  -13.9100   11.6420 C.ar   79  TRP79       0.0015
@<TRIPOS>BOND
     1    44    43    2
     2    43    42    1
     3    42    45    1
     4    42    41    1
     5    45    46    1
     6    46    48   ar
     7    46    47   ar
     8    56    58   ar
     9    56    54   ar
    10    58    59   ar
    11     4     3    2
    12    53    54    1
    13    53    50    1
    14    49    50    1
    15    54    55   ar
    16     3     2    1
    17    38    37    2
    18    59    60    1
    19    59    57   ar
    20    50    51    1
    21    37    36    1
    22    55    57   ar
    23     7     9   ar
    24     7     6   ar
    25     9    10   ar
    26     2     1    1
    27     2     5    1
    28    24    23    1
    29    51    52    2
    30    51    61   am
    31    25    23    1
    32     6     5    1
    33     6     8   ar
    34    10    12   ar
    35    10     8   ar
    36    36    39    1
    37    36    35    1
    38    39    40    1
    39    23    22    2
    40    61    62    1
    41    12    14   ar
    42     8    11   ar
    43    14    13   ar
    44    64    63    2
    45    22    21    1
    46    11    13   ar
    47    82    81    1
    48    77    78    1
    49    62    63    1
    50    62    65    1
    51    81    78    1
    52    81    83    1
    53    15    16    1
    54    63    68   am
    55    66    65    1
    56    21    20    1
    57    65    67    1
    58    78    79    1
    59    16    17    1
    60    16    19    1
    61    20    19    1
    62    68    69    1
    63    69    70    1
    64    17    18    2
    65   103   105   ar
    66   103   101   ar
    67    79    80    2
    68   100   101   ar
    69   100    98   ar
    70    29    28    2
    71   105   104   ar
    72    70    72   am
    73    70    71    2
    74   101    99   ar
    75    72    73    1
    76    28    27    1
    77    91    89    1
    78    98    97   ar
    79    31    32    1
    80    31    30    1
    81    34    32   ar
    82    32    33   ar
    83    76    73    1
    84   104   102   ar
    85    73    74    1
    86    99    97   ar
    87    99   102   ar
    88    89    88    1
    89    27    30    1
    90    27    26    1
    91    97    96    1
    92    74    75    2
    93    88    90    1
    94    88    85    1
    95    96    93    1
    96    84    85    1
    97   117   115   ar
    98   117   119   ar
    99   114   115   ar
   100   114   112   ar
   101    95    94    2
   102    94    93    1
   103    85    86    1
   104   115   113   ar
   105   119   118   ar
   106    93    92    1
   107   112   111   ar
   108    86    87    2
   109   113   111   ar
   110   113   116   ar
   111   118   116   ar
   112   106   107    1
   113   111   110    1
   114   107   110    1
   115   107   108    1
   116   108   109    2
