@<TRIPOS>MOLECULE
tmp/3zwiA00.pdb
 234 224 0 0 0
SMALL
GASTEIGER

@<TRIPOS>ATOM
      1  N         -1.6820   36.7690   34.9550 N.3     8  VAL8       -0.1245
      2  CA        -0.5080   37.3580   35.5860 C.3     8  VAL8        0.1561
      3  C         -0.6410   37.1560   37.0960 C.2     8  VAL8        0.2260
      4  O          0.3130   36.7760   37.7370 O.2     8  VAL8       -0.2867
      5  CB        -0.3840   38.8460   35.2260 C.3     8  VAL8        0.0252
      6  CG1        0.7610   39.4980   35.9730 C.3     8  VAL8        0.0019
      7  CG2       -0.1940   39.0220   33.7300 C.3     8  VAL8        0.0019
      8  N          0.0470   33.4910   37.9750 N.3    11  ARG11      -0.1231
      9  CA         1.4180   33.0000   37.8900 C.3    11  ARG11       0.1694
     10  C          2.2720   33.6480   38.9810 C.2    11  ARG11       0.2591
     11  O          3.1440   32.9810   39.5560 O.2    11  ARG11      -0.2718
     12  CB         2.0060   33.0970   36.4810 C.3    11  ARG11       0.0321
     13  CG         2.3300   34.4850   36.0030 C.3    11  ARG11       0.0489
     14  CD         2.2180   34.5100   34.4850 C.3    11  ARG11       0.2205
     15  NE         2.6290   35.7750   33.9240 N.pl3  11  ARG11      -0.0865
     16  CZ         2.1920   36.2330   32.7450 C.cat  11  ARG11       0.5346
     17  NH1        1.3320   35.6000   32.0020 N.pl3  11  ARG11       0.1354
     18  NH2        2.6580   37.4060   32.3010 N.pl3  11  ARG11       0.1354
     19  N          2.0200   34.9080   39.2930 N.am   12  GLN12      -0.1979
     20  CA         2.8190   35.5860   40.3340 C.3    12  GLN12       0.1601
     21  C          2.5550   34.9500   41.6890 C.2    12  GLN12       0.2287
     22  O          3.4030   34.8130   42.5310 O.2    12  GLN12      -0.2864
     23  CB         2.5440   37.0710   40.3250 C.3    12  GLN12       0.0394
     24  CG         3.1610   37.7260   39.0670 C.3    12  GLN12       0.0908
     25  CD         2.8970   39.2150   39.0170 C.2    12  GLN12       0.2608
     26  OE1        2.1040   39.7720   39.7700 O.2    12  GLN12      -0.2717
     27  NE2        3.5960   39.8470   38.1110 N.am   12  GLN12      -0.0878
     28  N          4.3530   31.4760   41.6710 N.3    15  LEU15      -0.1231
     29  CA         5.7840   31.5820   41.8690 C.3    15  LEU15       0.1693
     30  C          6.0860   31.9960   43.3090 C.2    15  LEU15       0.2592
     31  O          7.1370   31.5810   43.8040 O.2    15  LEU15      -0.2718
     32  CB         6.5200   32.5880   40.9320 C.3    15  LEU15       0.0284
     33  CG         5.8940   32.8200   39.5730 C.3    15  LEU15       0.0019
     34  CD1        6.3770   33.5850   38.3640 C.3    15  LEU15       0.0001
     35  CD2        5.8110   31.3890   39.0500 C.3    15  LEU15       0.0001
     36  N          5.2770   32.8510   43.9360 N.am   16  THR16      -0.1953
     37  CA         5.4960   33.1930   45.3470 C.3    16  THR16       0.1897
     38  C          5.4810   31.9500   46.1970 C.2    16  THR16       0.2313
     39  O          6.3270   31.7450   47.0810 O.2    16  THR16      -0.2863
     40  CB         4.3880   34.2020   45.7900 C.3    16  THR16       0.1794
     41  OG1        4.6280   35.4090   45.0790 O.3    16  THR16      -0.2208
     42  CG2        4.4040   34.4400   47.2860 C.3    16  THR16       0.0378
     43  N          6.0700   28.7580   45.1700 N.3    18  MET18      -0.1230
     44  CA         7.2280   28.0410   44.7030 C.3    18  MET18       0.1702
     45  C          8.5140   28.4240   45.4090 C.2    18  MET18       0.2592
     46  O          9.4060   27.7110   45.8320 O.2    18  MET18      -0.2718
     47  CB         7.5530   28.3480   43.2130 C.3    18  MET18       0.0401
     48  CG         6.9880   27.1860   42.4210 C.3    18  MET18       0.0596
     49  SD         7.0040   27.6360   40.6840 S.3    18  MET18      -0.1393
     50  CE         8.7550   27.5030   40.3530 C.3    18  MET18       0.0692
     51  N          8.5840   29.7550   45.3880 N.am   19  ALA19      -0.1980
     52  CA         9.7520   30.3490   45.9960 C.3    19  ALA19       0.1597
     53  C          9.8060   30.0600   47.5000 C.2    19  ALA19       0.2287
     54  O         10.8700   29.8150   48.0630 O.2    19  ALA19      -0.2864
     55  CB         9.8140   31.8300   45.7450 C.3    19  ALA19       0.0319
     56  N         10.6190   26.2940   47.9750 N.3    22  PHE22      -0.1241
     57  CA        12.0030   26.0110   47.6380 C.3    22  PHE22       0.1605
     58  C         12.9200   26.6250   48.6940 C.2    22  PHE22       0.2264
     59  O         13.7010   25.9600   49.3650 O.2    22  PHE22      -0.2867
     60  CB        12.2950   26.5280   46.2070 C.3    22  PHE22       0.0534
     61  CG        13.7330   26.3410   45.7810 C.ar   22  PHE22      -0.0203
     62  CD1       14.1910   25.0440   45.5200 C.ar   22  PHE22      -0.0042
     63  CD2       14.6220   27.3710   45.6280 C.ar   22  PHE22      -0.0042
     64  CE1       15.4890   24.8080   45.1270 C.ar   22  PHE22      -0.0003
     65  CE2       15.9470   27.1750   45.2610 C.ar   22  PHE22      -0.0003
     66  CZ        16.3560   25.8710   45.0450 C.ar   22  PHE22      -0.0000
     67  N          6.2260   21.1780   46.7170 N.3    47  LEU47      -0.1245
     68  CA         6.9780   21.9000   45.6820 C.3    47  LEU47       0.1561
     69  C          6.7720   21.2990   44.2950 C.2    47  LEU47       0.2260
     70  O          6.6600   22.0080   43.2990 O.2    47  LEU47      -0.2867
     71  CB         8.4480   21.9360   46.0450 C.3    47  LEU47       0.0270
     72  CG         9.3560   22.6590   45.0690 C.3    47  LEU47       0.0019
     73  CD1        8.9490   24.1020   44.8640 C.3    47  LEU47       0.0001
     74  CD2       10.8200   22.5400   45.5020 C.3    47  LEU47       0.0001
     75  N          3.3200   27.4300   34.3720 N.3    55  TRP55      -0.1241
     76  CA         3.5540   27.4950   32.9120 C.3    55  TRP55       0.1605
     77  C          2.2600   27.5990   32.1070 C.2    55  TRP55       0.2264
     78  O          2.2620   28.2770   31.0360 O.2    55  TRP55      -0.2867
     79  CB         4.5030   26.3220   32.4780 C.3    55  TRP55       0.0550
     80  CG         5.4750   26.1280   33.6210 C.ar   55  TRP55       0.0003
     81  CD1        5.6070   25.0080   34.3880 C.ar   55  TRP55       0.0946
     82  CD2        6.3910   27.1100   34.0980 C.ar   55  TRP55       0.0152
     83  NE1        6.5810   25.2240   35.3390 N.ar   55  TRP55      -0.2442
     84  CE2        7.0670   26.5020   35.1950 C.ar   55  TRP55       0.0810
     85  CE3        6.7150   28.4200   33.7640 C.ar   55  TRP55       0.0012
     86  CZ2        8.0230   27.1700   35.9090 C.ar   55  TRP55       0.0191
     87  CZ3        7.6680   29.0960   34.4700 C.ar   55  TRP55       0.0001
     88  CH2        8.3070   28.4500   35.5290 C.ar   55  TRP55       0.0015
     89  N          1.0040   31.3390   31.2350 N.3    58  PHE58      -0.1241
     90  CA         1.6510   32.1150   30.2130 C.3    58  PHE58       0.1605
     91  C          1.0390   31.8030   28.8340 C.2    58  PHE58       0.2264
     92  O          1.7070   31.7030   27.8230 O.2    58  PHE58      -0.2867
     93  CB         3.1470   31.8810   30.1780 C.3    58  PHE58       0.0534
     94  CG         3.9170   32.3020   31.4220 C.ar   58  PHE58      -0.0203
     95  CD1        4.1060   31.4390   32.4780 C.ar   58  PHE58      -0.0042
     96  CD2        4.4910   33.5260   31.5050 C.ar   58  PHE58      -0.0042
     97  CE1        4.8550   31.7790   33.5880 C.ar   58  PHE58      -0.0003
     98  CE2        5.2310   33.8900   32.5990 C.ar   58  PHE58      -0.0003
     99  CZ         5.4640   33.0220   33.6520 C.ar   58  PHE58      -0.0000
    100  N          2.3180   40.5320   30.1890 N.3    64  GLY64      -0.1210
    101  CA         2.2520   41.4080   31.3430 C.3    64  GLY64       0.1956
    102  C          3.1580   40.9900   32.4740 C.2    64  GLY64       0.2612
    103  O          4.0380   40.1210   32.3380 O.2    64  GLY64      -0.2717
    104  N          3.0540   41.6430   33.6190 N.am   65  GLY65      -0.1942
    105  CA         3.9590   41.4040   34.7090 C.3    65  GLY65       0.2014
    106  C          5.4110   41.6480   34.3330 C.2    65  GLY65       0.2639
    107  O          5.7040   42.5720   33.5600 O.2    65  GLY65      -0.2714
    108  N          6.3000   40.8320   34.8920 N.am   66  ASP66      -0.1957
    109  CA         7.7180   40.8970   34.5670 C.3    66  ASP66       0.1840
    110  C          8.1180   39.8520   33.5390 C.2    66  ASP66       0.2621
    111  O          9.2870   39.4910   33.4280 O.2    66  ASP66      -0.2715
    112  CB         8.5000   40.7600   35.8650 C.3    66  ASP66       0.1450
    113  CG         8.4810   41.9790   36.7330 C.2    66  ASP66       0.3671
    114  OD1        8.0500   43.0400   36.2380 O.co2  66  ASP66      -0.2456
    115  OD2        8.8380   41.8810   37.9070 O.co2  66  ASP66      -0.2456
    116  N          7.1510   39.3370   32.8220 N.am   67  ALA67      -0.1977
    117  CA         7.4380   38.3740   31.7590 C.3    67  ALA67       0.1597
    118  C          7.9510   39.0560   30.5270 C.2    67  ALA67       0.2287
    119  O          7.3270   39.9770   30.0060 O.2    67  ALA67      -0.2864
    120  CB         6.1450   37.6630   31.4500 C.3    67  ALA67       0.0319
    121  N          9.0880   35.1450   25.8530 N.3    71  ILE71      -0.1245
    122  CA         8.4380   33.9110   26.2600 C.3    71  ILE71       0.1561
    123  C          7.4990   33.3740   25.1840 C.2    71  ILE71       0.2260
    124  O          7.3480   32.1810   24.9540 O.2    71  ILE71      -0.2867
    125  CB         7.6800   34.1610   27.5870 C.3    71  ILE71       0.0252
    126  CG1        8.7230   34.4190   28.6960 C.3    71  ILE71       0.0019
    127  CG2        6.7150   33.0540   27.9170 C.3    71  ILE71       0.0019
    128  CD1        8.1180   34.8280   30.0060 C.3    71  ILE71       0.0001
    129  N         11.5350   28.6940   25.5210 N.3    78  PHE78      -0.1241
    130  CA        10.9790   28.8140   26.8640 C.3    78  PHE78       0.1605
    131  C         10.5080   27.4840   27.3970 C.2    78  PHE78       0.2264
    132  O         10.7330   27.1730   28.5560 O.2    78  PHE78      -0.2867
    133  CB         9.7700   29.7800   26.8150 C.3    78  PHE78       0.0534
    134  CG         9.2170   30.0800   28.2180 C.ar   78  PHE78      -0.0203
    135  CD1        9.8690   30.9100   29.0870 C.ar   78  PHE78      -0.0042
    136  CD2        8.0230   29.4770   28.5960 C.ar   78  PHE78      -0.0042
    137  CE1        9.3930   31.1770   30.3840 C.ar   78  PHE78      -0.0003
    138  CE2        7.5020   29.7510   29.8820 C.ar   78  PHE78      -0.0003
    139  CZ         8.1880   30.6060   30.7180 C.ar   78  PHE78      -0.0000
    140  N         13.4280   25.6100   28.7730 N.3    81  LYS81      -0.1231
    141  CA        13.8530   26.0350   30.1170 C.3    81  LYS81       0.1693
    142  C         12.8990   25.5080   31.1530 C.2    81  LYS81       0.2591
    143  O         13.3380   25.1130   32.2420 O.2    81  LYS81      -0.2718
    144  CB        13.9860   27.5870   30.1650 C.3    81  LYS81       0.0285
    145  CG        15.2880   28.0070   29.5560 C.3    81  LYS81       0.0035
    146  CD        15.9200   29.2460   30.0190 C.3    81  LYS81       0.0206
    147  CE        16.9040   29.8370   29.0270 C.3    81  LYS81       0.1093
    148  NZ        17.9820   28.8400   28.7750 N.3    81  LYS81      -0.1314
    149  N         11.5990   25.5300   30.8740 N.am   82  GLN82      -0.1979
    150  CA        10.6690   25.0600   31.9390 C.3    82  GLN82       0.1601
    151  C         10.7820   23.5250   32.0690 C.2    82  GLN82       0.2287
    152  O         10.7160   23.0510   33.2010 O.2    82  GLN82      -0.2864
    153  CB         9.2210   25.5240   31.8850 C.3    82  GLN82       0.0394
    154  CG         8.3490   25.2380   30.6950 C.3    82  GLN82       0.0908
    155  CD         7.4050   24.0600   30.7220 C.2    82  GLN82       0.2608
    156  OE1        6.5120   24.0420   29.8650 O.2    82  GLN82      -0.2717
    157  NE2        7.5870   23.1380   31.6160 N.am   82  GLN82      -0.0878
    158  N         13.9050   22.7270   34.0890 N.3    85  PHE85      -0.1241
    159  CA        13.5710   23.0130   35.4980 C.3    85  PHE85       0.1605
    160  C         12.7640   21.8780   36.0660 C.2    85  PHE85       0.2264
    161  O         13.0750   21.3780   37.1610 O.2    85  PHE85      -0.2867
    162  CB        12.8150   24.3480   35.5730 C.3    85  PHE85       0.0534
    163  CG        12.1730   24.5490   36.9120 C.ar   85  PHE85      -0.0203
    164  CD1       12.8350   24.7170   38.1060 C.ar   85  PHE85      -0.0042
    165  CD2       10.7770   24.5600   36.9150 C.ar   85  PHE85      -0.0042
    166  CE1       12.1240   24.8630   39.2940 C.ar   85  PHE85      -0.0003
    167  CE2       10.0920   24.7100   38.0890 C.ar   85  PHE85      -0.0003
    168  CZ        10.7640   24.8730   39.2940 C.ar   85  PHE85      -0.0000
    169  N         13.4110   19.3210   39.1920 N.3    89  ILE89      -0.1245
    170  CA        12.5080   19.0520   40.3320 C.3    89  ILE89       0.1561
    171  C         12.3290   17.5310   40.4770 C.2    89  ILE89       0.2260
    172  O         12.2890   17.0730   41.6320 O.2    89  ILE89      -0.2867
    173  CB        11.1710   19.7680   40.1150 C.3    89  ILE89       0.0252
    174  CG1       11.2520   21.2930   40.2210 C.3    89  ILE89       0.0019
    175  CG2       10.1010   19.1960   41.0350 C.3    89  ILE89       0.0019
    176  CD1       11.5080   21.7800   41.6160 C.3    89  ILE89       0.0001
    177  N         18.3350   22.7280   40.9440 N.3   111  VAL111     -0.1245
    178  CA        17.0730   23.4520   40.7800 C.3   111  VAL111      0.1561
    179  C         17.3110   24.9520   40.8160 C.2   111  VAL111      0.2260
    180  O         16.8270   25.6730   39.9450 O.2   111  VAL111     -0.2867
    181  CB        16.0660   23.0030   41.8580 C.3   111  VAL111      0.0252
    182  CG1       14.8520   23.9280   41.8420 C.3   111  VAL111      0.0019
    183  CG2       15.6900   21.5570   41.6720 C.3   111  VAL111      0.0019
    184  N         18.5570   26.3070   37.6430 N.3   114  SER114     -0.1202
    185  CA        17.5320   26.3210   36.5990 C.3   114  SER114      0.2020
    186  C         16.5860   27.5120   36.7840 C.2   114  SER114      0.2619
    187  O         16.1770   28.1240   35.7830 O.2   114  SER114     -0.2717
    188  CB        16.7640   25.0180   36.5420 C.3   114  SER114      0.2103
    189  OG        17.4770   23.8720   36.1950 O.3   114  SER114     -0.2182
    190  N         16.2280   27.8740   38.0180 N.am  115  CYS115     -0.1969
    191  CA        15.4010   29.0600   38.2400 C.3   115  CYS115      0.1712
    192  C         16.1190   30.2840   37.6610 C.2   115  CYS115      0.2296
    193  O         15.5360   31.0470   36.8910 O.2   115  CYS115     -0.2864
    194  CB        15.1610   29.2740   39.7240 C.3   115  CYS115      0.0983
    195  SG        14.6540   27.9760   40.8400 S.3   115  CYS115     -0.0798
    196  N         16.4190   30.6280   33.8010 N.3   118  CYS118     -0.1221
    197  CA        15.2010   31.1390   33.1360 C.3   118  CYS118      0.1808
    198  C         15.0080   32.6080   33.3710 C.2   118  CYS118      0.2601
    199  O         14.7240   33.3660   32.4380 O.2   118  CYS118     -0.2717
    200  CB        13.9790   30.3220   33.5750 C.3   118  CYS118      0.0970
    201  SG        12.5670   30.8640   32.5860 S.3   118  CYS118     -0.0800
    202  N         15.2050   33.0340   34.6150 N.am  119  HIS119     -0.1975
    203  CA        15.0450   34.4570   34.8970 C.3   119  HIS119      0.1656
    204  C         15.9920   35.2980   34.0420 C.2   119  HIS119      0.2291
    205  O         15.6100   36.3410   33.5620 O.2   119  HIS119     -0.2864
    206  CB        15.3060   34.7660   36.3750 C.3   119  HIS119      0.0771
    207  CG        14.2600   34.1380   37.2540 C.ar  119  HIS119      0.0820
    208  ND1       14.5130   33.7790   38.5640 N.ar  119  HIS119     -0.2267
    209  CD2       13.0120   33.7470   37.0030 C.ar  119  HIS119      0.1154
    210  CE1       13.3960   33.2440   39.0390 C.ar  119  HIS119      0.1986
    211  NE2       12.4200   33.1730   38.1400 N.ar  119  HIS119     -0.2212
    212  N         14.2830   35.3740   30.5190 N.3   122  TYR122     -0.1227
    213  CA        12.8660   35.5850   30.2850 C.3   122  TYR122      0.1736
    214  C         12.1750   36.4650   31.2940 C.2   122  TYR122      0.2595
    215  O         10.9660   36.7300   31.1640 O.2   122  TYR122     -0.2718
    216  CB        12.1760   34.2160   30.1700 C.3   122  TYR122      0.0548
    217  CG        12.5970   33.4930   28.9170 C.ar  122  TYR122     -0.0200
    218  CD1       12.3310   34.0420   27.6700 C.ar  122  TYR122     -0.0009
    219  CD2       13.2480   32.2660   28.9490 C.ar  122  TYR122     -0.0009
    220  CE1       12.7190   33.3470   26.5310 C.ar  122  TYR122      0.0417
    221  CE2       13.6280   31.5920   27.8550 C.ar  122  TYR122      0.0417
    222  CZ        13.3640   32.1360   26.6190 C.ar  122  TYR122      0.1957
    223  OH        13.7730   31.4510   25.4920 O.3   122  TYR122     -0.2866
    224  N         12.8510   36.9560   32.3240 N.am  123  ARG123     -0.1980
    225  CA        12.2680   37.8320   33.3090 C.3   123  ARG123      0.1597
    226  C         12.8600   39.2180   33.1910 C.2   123  ARG123      0.2287
    227  O         14.0690   39.4040   33.1310 O.2   123  ARG123     -0.2864
    228  CB        12.4610   37.2480   34.7200 C.3   123  ARG123      0.0334
    229  CG        11.6690   37.9860   35.7710 C.3   123  ARG123      0.0492
    230  CD        11.8050   37.3670   37.1570 C.3   123  ARG123      0.2205
    231  NE        13.0720   37.5320   37.7590 N.pl3 123  ARG123     -0.0865
    232  CZ        13.3730   37.0230   38.9650 C.cat 123  ARG123      0.5346
    233  NH1       12.4690   36.3230   39.6260 N.pl3 123  ARG123      0.1354
    234  NH2       14.5800   37.2340   39.4520 N.pl3 123  ARG123      0.1354
@<TRIPOS>BOND
     1   124   123    2
     2   123   122    1
     3   223   222    1
     4   129   130    1
     5   121   122    1
     6   122   125    1
     7   220   222   ar
     8   220   218   ar
     9   222   221   ar
    10   133   130    1
    11   133   134    1
    12   130   131    1
    13   131   132    2
    14   125   127    1
    15   125   126    1
    16   218   217   ar
    17    92    91    2
    18   221   219   ar
    19   134   136   ar
    20   134   135   ar
    21   136   138   ar
    22   126   128    1
    23   140   141    1
    24   148   147    1
    25    91    90    1
    26   217   219   ar
    27   217   216    1
    28   147   146    1
    29   135   137   ar
    30   145   146    1
    31   145   144    1
    32   156   155    2
    33   138   139   ar
    34   119   118    2
    35   141   144    1
    36   141   142    1
    37   216   213    1
    38    93    90    1
    39    93    94    1
    40   100   101    1
    41    90    89    1
    42   213   212    1
    43   213   214    1
    44   137   139   ar
    45   118   117    1
    46   154   155    1
    47   154   153    1
    48   155   157   am
    49   149   142   am
    50   149   150    1
    51    78    77    2
    52   142   143    2
    53   215   214    2
    54   214   224   am
    55   101   102    1
    56    94    96   ar
    57    94    95   ar
    58   120   117    1
    59    96    98   ar
    60   117   116    1
    61   153   150    1
    62   150   151    1
    63    17    16    1
    64   151   152    2
    65    77    76    1
    66    18    16    1
    67   224   225    1
    68   103   102    2
    69   199   198    2
    70   102   104   am
    71    95    97   ar
    72    79    76    1
    73    79    80    1
    74   201   200    1
    75    98    99   ar
    76    16    15    2
    77   116   110   am
    78    76    75    1
    79   227   226    2
    80   197   198    1
    81   197   200    1
    82   197   196    1
    83   226   225    1
    84   225   228    1
    85   198   202   am
    86   111   110    2
    87   110   109    1
    88   107   106    2
    89   205   204    2
    90    97    99   ar
    91   104   105    1
    92    80    82   ar
    93    80    81   ar
    94     7     5    1
    95    85    82   ar
    96    85    87   ar
    97    15    14    1
    98   204   203    1
    99   158   159    1
   100    82    84   ar
   101   106   105    1
   102   106   108   am
   103    81    83   ar
   104    87    88   ar
   105    14    13    1
   106   109   108    1
   107   109   112    1
   108   202   203    1
   109   228   229    1
   110   203   206    1
   111     1     2    1
   112    84    83   ar
   113    84    86   ar
   114     5     2    1
   115     5     6    1
   116   159   162    1
   117   159   160    1
   118    88    86   ar
   119   162   163    1
   120     2     3    1
   121   229   230    1
   122   187   186    2
   123   112   113    1
   124    13    12    1
   125   160   161    2
   126   189   188    1
   127   114   113   ar
   128   206   207    1
   129    12     9    1
   130   188   185    1
   131   185   186    1
   132   185   184    1
   133   113   115   ar
   134   186   190   am
   135   193   192    2
   136   163   165   ar
   137   163   164   ar
   138   165   167   ar
   139   209   207   ar
   140   209   211   ar
   141     3     4    2
   142   230   231    1
   143   207   208   ar
   144   192   191    1
   145   231   232    2
   146     9     8    1
   147     9    10    1
   148   190   191    1
   149   167   168   ar
   150   164   166   ar
   151    27    25   am
   152   211   210   ar
   153   191   194    1
   154    34    33    1
   155   208   210   ar
   156   232   234    1
   157   232   233    1
   158    10    19   am
   159    10    11    2
   160    25    24    1
   161    25    26    2
   162    35    33    1
   163    24    23    1
   164   169   170    1
   165    19    20    1
   166   168   166   ar
   167    33    32    1
   168   194   195    1
   169   180   179    2
   170   173   174    1
   171   173   170    1
   172   173   175    1
   173   174   176    1
   174    23    20    1
   175   170   171    1
   176    20    21    1
   177    50    49    1
   178   171   172    2
   179    49    48    1
   180   178   179    1
   181   178   177    1
   182   178   181    1
   183    32    29    1
   184    28    29    1
   185   183   181    1
   186    21    22    2
   187   182   181    1
   188    29    30    1
   189    48    47    1
   190    47    44    1
   191    70    69    2
   192    30    31    2
   193    30    36   am
   194    36    37    1
   195    69    68    1
   196    44    43    1
   197    44    45    1
   198    73    72    1
   199    66    64   ar
   200    66    65   ar
   201    72    74    1
   202    72    71    1
   203    41    40    1
   204    64    62   ar
   205    65    63   ar
   206    37    40    1
   207    37    38    1
   208    51    45   am
   209    51    52    1
   210    45    46    2
   211    62    61   ar
   212    63    61   ar
   213    68    71    1
   214    68    67    1
   215    55    52    1
   216    61    60    1
   217    40    42    1
   218    52    53    1
   219    38    39    2
   220    60    57    1
   221    53    54    2
   222    57    56    1
   223    57    58    1
   224    58    59    2
