@<TRIPOS>MOLECULE
tmp/3zwmH00.pdb
 171 170 0 0 0
SMALL
GASTEIGER

@<TRIPOS>ATOM
      1  N         74.0370   75.0360  -68.7390 N.3    77  MET77      -0.1230
      2  CA        74.4660   73.7170  -68.2740 C.3    77  MET77       0.1702
      3  C         75.8600   73.6950  -67.6300 C.2    77  MET77       0.2592
      4  O         76.7890   74.3670  -68.0820 O.2    77  MET77      -0.2718
      5  CB        74.3830   72.6960  -69.4100 C.3    77  MET77       0.0401
      6  CG        74.9300   71.2920  -69.0810 C.3    77  MET77       0.0596
      7  SD        74.8670   70.2210  -70.5220 S.3    77  MET77      -0.1393
      8  CE        73.1280   69.7630  -70.5070 C.3    77  MET77       0.0692
      9  N         75.9830   72.9120  -66.5660 N.am   78  PHE78      -0.1962
     10  CA        77.2680   72.5640  -65.9840 C.3    78  PHE78       0.1771
     11  C         77.4560   71.1290  -66.2820 C.2    78  PHE78       0.2620
     12  O         76.4920   70.4550  -66.6380 O.2    78  PHE78      -0.2715
     13  CB        77.2280   72.7460  -64.4800 C.3    78  PHE78       0.0574
     14  CG        76.6390   74.0350  -64.0720 C.ar   78  PHE78      -0.0200
     15  CD1       77.3210   75.2210  -64.3100 C.ar   78  PHE78      -0.0042
     16  CD2       75.3660   74.0810  -63.5220 C.ar   78  PHE78      -0.0042
     17  CE1       76.7590   76.4410  -63.9400 C.ar   78  PHE78      -0.0003
     18  CE2       74.7900   75.2900  -63.1510 C.ar   78  PHE78      -0.0003
     19  CZ        75.4880   76.4700  -63.3670 C.ar   78  PHE78      -0.0000
     20  N         78.6890   70.6590  -66.1430 N.am   79  TRP79      -0.1960
     21  CA        78.9870   69.2650  -66.3790 C.3    79  TRP79       0.1771
     22  C         80.1570   68.8520  -65.5150 C.2    79  TRP79       0.2620
     23  O         81.0230   69.6610  -65.2170 O.2    79  TRP79      -0.2715
     24  CB        79.3050   69.0380  -67.8610 C.3    79  TRP79       0.0590
     25  CG        80.4820   69.8610  -68.3560 C.ar   79  TRP79       0.0006
     26  CD1       80.4300   71.0920  -68.9430 C.ar   79  TRP79       0.0946
     27  CD2       81.8740   69.4990  -68.3120 C.ar   79  TRP79       0.0152
     28  NE1       81.6980   71.5230  -69.2580 N.ar   79  TRP79      -0.2442
     29  CE2       82.6020   70.5670  -68.8750 C.ar   79  TRP79       0.0810
     30  CE3       82.5730   68.3820  -67.8400 C.ar   79  TRP79       0.0012
     31  CZ2       83.9950   70.5560  -68.9780 C.ar   79  TRP79       0.0191
     32  CZ3       83.9770   68.3640  -67.9580 C.ar   79  TRP79       0.0001
     33  CH2       84.6630   69.4510  -68.5230 C.ar   79  TRP79       0.0015
     34  N         80.1920   67.5870  -65.1120 N.am   80  SER80      -0.1936
     35  CA        81.4010   67.0510  -64.5230 C.3    80  SER80       0.2055
     36  C         81.7160   65.6790  -65.0370 C.2    80  SER80       0.2643
     37  O         80.8300   64.8440  -65.1210 O.2    80  SER80      -0.2714
     38  CB        81.2770   67.0540  -63.0140 C.3    80  SER80       0.2130
     39  OG        81.1980   68.4000  -62.5480 O.3    80  SER80      -0.2179
     40  N         82.9790   65.4730  -65.4210 N.am   81  GLY81      -0.1954
     41  CA        83.4970   64.1630  -65.8230 C.3    81  GLY81       0.1869
     42  C         82.9470   63.6590  -67.1410 C.2    81  GLY81       0.2309
     43  O         83.2960   62.5750  -67.5930 O.2    81  GLY81      -0.2863
     44  N         82.6610   65.4480  -70.5090 N.3    83  TYR83      -0.1241
     45  CA        82.8980   66.4940  -71.5090 C.3    83  TYR83       0.1605
     46  C         82.1160   66.1960  -72.7870 C.2    83  TYR83       0.2264
     47  O         81.0970   66.8090  -73.0610 O.2    83  TYR83      -0.2867
     48  CB        84.4120   66.6940  -71.8110 C.3    83  TYR83       0.0534
     49  CG        84.6510   67.9320  -72.6560 C.ar   83  TYR83      -0.0201
     50  CD1       84.6720   69.2110  -72.0820 C.ar   83  TYR83      -0.0009
     51  CD2       84.7680   67.8410  -74.0210 C.ar   83  TYR83      -0.0009
     52  CE1       84.8250   70.3440  -72.8610 C.ar   83  TYR83       0.0417
     53  CE2       84.9040   68.9840  -74.8140 C.ar   83  TYR83       0.0417
     54  CZ        84.9260   70.2130  -74.2290 C.ar   83  TYR83       0.1957
     55  OH        85.0830   71.3070  -75.0290 O.3    83  TYR83      -0.2866
     56  N         79.6820   76.4960  -70.8600 N.3    99  LEU99      -0.1231
     57  CA        80.7770   77.4420  -70.7420 C.3    99  LEU99       0.1693
     58  C         81.5920   77.5400  -72.0440 C.2    99  LEU99       0.2591
     59  O         81.8890   78.6420  -72.5250 O.2    99  LEU99      -0.2718
     60  CB        81.6520   77.0780  -69.5300 C.3    99  LEU99       0.0284
     61  CG        82.8320   77.9940  -69.1930 C.3    99  LEU99       0.0019
     62  CD1       82.4570   79.4640  -69.1910 C.3    99  LEU99       0.0001
     63  CD2       83.4510   77.6190  -67.8660 C.3    99  LEU99       0.0001
     64  N         81.9130   76.4020  -72.6470 N.am  100  GLU100     -0.1979
     65  CA        82.5800   76.3640  -73.9620 C.3   100  GLU100      0.1602
     66  C         81.8870   77.1550  -75.0990 C.2   100  GLU100      0.2287
     67  O         82.5110   77.3860  -76.1440 O.2   100  GLU100     -0.2864
     68  CB        82.8240   74.9030  -74.3960 C.3   100  GLU100      0.0415
     69  CG        83.7300   74.1160  -73.4250 C.3   100  GLU100      0.1163
     70  CD        83.1240   73.9870  -72.0190 C.2   100  GLU100      0.3649
     71  OE1       81.8880   74.0610  -71.9040 O.co2 100  GLU100     -0.2457
     72  OE2       83.8590   73.8140  -71.0220 O.co2 100  GLU100     -0.2457
     73  N         89.4090   77.5740  -74.6310 N.3   109  ASN109     -0.1240
     74  CA        89.1910   76.1490  -74.6680 C.3   109  ASN109      0.1653
     75  C         90.4120   75.5270  -75.3160 C.2   109  ASN109      0.2266
     76  O         90.7600   75.8790  -76.4130 O.2   109  ASN109     -0.2867
     77  CB        87.9260   75.8340  -75.4730 C.3   109  ASN109      0.1155
     78  CG        87.3540   74.4590  -75.1570 C.2   109  ASN109      0.2627
     79  OD1       87.8250   73.7950  -74.2420 O.2   109  ASN109     -0.2716
     80  ND2       86.3170   74.0360  -75.9070 N.am  109  ASN109     -0.0877
     81  N         98.9410   70.9550  -64.5100 N.3   130  PHE130     -0.1241
     82  CA        98.0760   71.3680  -63.4060 C.3   130  PHE130      0.1605
     83  C         98.8350   71.2180  -62.0900 C.2   130  PHE130      0.2264
     84  O         99.2040   72.2010  -61.4180 O.2   130  PHE130     -0.2867
     85  CB        96.8210   70.4980  -63.3280 C.3   130  PHE130      0.0534
     86  CG        95.8580   70.6740  -64.4750 C.ar  130  PHE130     -0.0203
     87  CD1       95.0310   71.8080  -64.5510 C.ar  130  PHE130     -0.0042
     88  CD2       95.7310   69.6700  -65.4570 C.ar  130  PHE130     -0.0042
     89  CE1       94.1020   71.9580  -65.6190 C.ar  130  PHE130     -0.0003
     90  CE2       94.8180   69.7940  -66.5240 C.ar  130  PHE130     -0.0003
     91  CZ        93.9960   70.9400  -66.6050 C.ar  130  PHE130     -0.0000
     92  N         90.0080   78.5510  -65.0140 N.3   142  TRP142     -0.1241
     93  CA        88.7790   77.8560  -65.3010 C.3   142  TRP142      0.1605
     94  C         87.8270   77.8290  -64.1070 C.2   142  TRP142      0.2264
     95  O         86.6270   77.5560  -64.2640 O.2   142  TRP142     -0.2867
     96  CB        89.1060   76.4700  -65.7990 C.3   142  TRP142      0.0550
     97  CG        89.6320   76.5110  -67.1830 C.ar  142  TRP142      0.0003
     98  CD1       90.8910   76.1710  -67.6060 C.ar  142  TRP142      0.0946
     99  CD2       88.9150   76.9130  -68.3470 C.ar  142  TRP142      0.0152
    100  NE1       90.9950   76.3200  -68.9680 N.ar  142  TRP142     -0.2442
    101  CE2       89.7950   76.7770  -69.4490 C.ar  142  TRP142      0.0810
    102  CE3       87.6060   77.3700  -68.5730 C.ar  142  TRP142      0.0012
    103  CZ2       89.4160   77.1060  -70.7510 C.ar  142  TRP142      0.0191
    104  CZ3       87.2300   77.6910  -69.8630 C.ar  142  TRP142      0.0001
    105  CH2       88.1310   77.5530  -70.9370 C.ar  142  TRP142      0.0015
    106  N         84.2180   79.7440  -64.2180 N.3   146  SER146     -0.1217
    107  CA        83.0650   78.9880  -63.7690 C.3   146  SER146      0.1889
    108  C         82.1840   79.8160  -62.8670 C.2   146  SER146      0.2288
    109  O         80.9640   79.7260  -62.9330 O.2   146  SER146     -0.2866
    110  CB        83.5090   77.7230  -63.0670 C.3   146  SER146      0.2089
    111  OG        83.9900   76.7880  -64.0080 O.3   146  SER146     -0.2183
    112  N         80.1420   82.4940  -64.9270 N.3   149  TYR149     -0.1241
    113  CA        79.1890   81.7540  -65.7300 C.3   149  TYR149      0.1605
    114  C         78.1010   81.3070  -64.7810 C.2   149  TYR149      0.2264
    115  O         76.9150   81.6010  -64.9900 O.2   149  TYR149     -0.2867
    116  CB        79.8980   80.5680  -66.3760 C.3   149  TYR149      0.0534
    117  CG        79.0270   79.5640  -67.1060 C.ar  149  TYR149     -0.0201
    118  CD1       78.5000   79.8370  -68.3670 C.ar  149  TYR149     -0.0009
    119  CD2       78.7770   78.3110  -66.5540 C.ar  149  TYR149     -0.0009
    120  CE1       77.7210   78.8940  -69.0440 C.ar  149  TYR149      0.0417
    121  CE2       78.0160   77.3700  -67.2230 C.ar  149  TYR149      0.0417
    122  CZ        77.4900   77.6630  -68.4590 C.ar  149  TYR149      0.1957
    123  OH        76.7270   76.7150  -69.0950 O.3   149  TYR149     -0.2866
    124  N         80.9670   65.8230  -56.0900 N.3   172  ARG172     -0.1245
    125  CA        82.1520   65.9980  -55.2460 C.3   172  ARG172      0.1563
    126  C         82.1540   67.4190  -54.7240 C.2   172  ARG172      0.2260
    127  O         81.6300   68.3230  -55.3740 O.2   172  ARG172     -0.2867
    128  CB        83.4460   65.8440  -56.0480 C.3   172  ARG172      0.0307
    129  CG        83.8760   64.4390  -56.3820 C.3   172  ARG172      0.0489
    130  CD        85.2720   64.4510  -57.0140 C.3   172  ARG172      0.2205
    131  NE        85.3180   65.0780  -58.3420 N.pl3 172  ARG172     -0.0865
    132  CZ        86.3000   65.8940  -58.7480 C.cat 172  ARG172      0.5346
    133  NH1       87.2980   66.2200  -57.9230 N.pl3 172  ARG172      0.1354
    134  NH2       86.2890   66.4080  -59.9570 N.pl3 172  ARG172      0.1354
    135  N         85.2810   69.6100  -56.9500 N.3   175  SER175     -0.1202
    136  CA        85.2360   69.7450  -58.4000 C.3   175  SER175      0.2020
    137  C         85.0290   71.2200  -58.7760 C.2   175  SER175      0.2619
    138  O         84.5320   71.9920  -57.9590 O.2   175  SER175     -0.2717
    139  CB        84.1080   68.8750  -58.9800 C.3   175  SER175      0.2103
    140  OG        82.8120   69.4590  -58.8250 O.3   175  SER175     -0.2182
    141  N         85.3890   71.6260  -59.9970 N.am  176  PHE176     -0.1961
    142  CA        85.1100   72.9950  -60.3790 C.3   176  PHE176      0.1771
    143  C         83.6110   73.2590  -60.0740 C.2   176  PHE176      0.2619
    144  O         83.2480   74.3510  -59.6250 O.2   176  PHE176     -0.2715
    145  CB        85.4120   73.3010  -61.8530 C.3   176  PHE176      0.0574
    146  CG        86.8670   73.0570  -62.3130 C.ar  176  PHE176     -0.0200
    147  CD1       87.2740   71.8060  -62.8050 C.ar  176  PHE176     -0.0042
    148  CD2       87.7900   74.1120  -62.3790 C.ar  176  PHE176     -0.0042
    149  CE1       88.5840   71.5970  -63.2880 C.ar  176  PHE176     -0.0003
    150  CE2       89.1190   73.9120  -62.8770 C.ar  176  PHE176     -0.0003
    151  CZ        89.5040   72.6550  -63.3270 C.ar  176  PHE176     -0.0000
    152  N         82.7520   72.2540  -60.2650 N.am  177  PHE177     -0.1974
    153  CA        81.3180   72.4620  -60.0630 C.3   177  PHE177      0.1639
    154  C         80.9180   72.7320  -58.6270 C.2   177  PHE177      0.2290
    155  O         80.2700   73.7320  -58.3400 O.2   177  PHE177     -0.2864
    156  CB        80.5010   71.2840  -60.5590 C.3   177  PHE177      0.0560
    157  CG        79.0550   71.3610  -60.1680 C.ar  177  PHE177     -0.0200
    158  CD1       78.1850   72.1990  -60.8420 C.ar  177  PHE177     -0.0042
    159  CD2       78.5680   70.6110  -59.1090 C.ar  177  PHE177     -0.0042
    160  CE1       76.8300   72.2840  -60.4800 C.ar  177  PHE177     -0.0003
    161  CE2       77.2170   70.6820  -58.7280 C.ar  177  PHE177     -0.0003
    162  CZ        76.3500   71.5200  -59.4250 C.ar  177  PHE177     -0.0000
    163  N         80.8040   76.4530  -58.9440 N.3   181  GLU181     -0.1245
    164  CA        79.5490   76.7390  -59.6330 C.3   181  GLU181      0.1567
    165  C         78.3590   76.7190  -58.6930 C.2   181  GLU181      0.2260
    166  O         77.6460   77.7160  -58.5600 O.2   181  GLU181     -0.2867
    167  CB        79.3780   75.8340  -60.8560 C.3   181  GLU181      0.0388
    168  CG        80.5160   76.1090  -61.8300 C.3   181  GLU181      0.1160
    169  CD        80.4880   75.3270  -63.1230 C.2   181  GLU181      0.3649
    170  OE1       80.1670   74.1150  -63.1220 O.co2 181  GLU181     -0.2457
    171  OE2       80.8340   75.9400  -64.1630 O.co2 181  GLU181     -0.2457
@<TRIPOS>BOND
     1    76    75    2
     2    67    66    2
     3    80    78   am
     4    77    78    1
     5    77    74    1
     6    75    74    1
     7    78    79    2
     8    66    65    1
     9    55    54    1
    10    53    54   ar
    11    53    51   ar
    12    74    73    1
    13    68    65    1
    14    68    69    1
    15    54    52   ar
    16    51    49   ar
    17    65    64    1
    18    69    70    1
    19    47    46    2
    20    52    50   ar
    21    46    45    1
    22    49    50   ar
    23    49    48    1
    24    64    58   am
    25    59    58    2
    26    58    57    1
    27    70    71   ar
    28    70    72   ar
    29    48    45    1
    30    45    44    1
    31   105   103   ar
    32   105   104   ar
    33    56    57    1
    34   103   101   ar
    35    57    60    1
    36     7     8    1
    37     7     6    1
    38   104   102   ar
    39    60    61    1
    40   101   100   ar
    41   101    99   ar
    42     5     6    1
    43     5     2    1
    44    28    26   ar
    45    28    29   ar
    46    61    62    1
    47    61    63    1
    48   123   122    1
    49   120   122   ar
    50   120   118   ar
    51    31    29   ar
    52    31    33   ar
    53   100    98   ar
    54    26    25   ar
    55    29    27   ar
    56     1     2    1
    57   102    99   ar
    58    33    32   ar
    59   122   121   ar
    60   118   117   ar
    61    25    27   ar
    62    25    24    1
    63    99    97   ar
    64    27    30   ar
    65     2     3    1
    66     4     3    2
    67    32    30   ar
    68    24    21    1
    69     3     9   am
    70    98    97   ar
    71    43    42    2
    72   121   119   ar
    73    97    96    1
    74    42    41    1
    75   117   119   ar
    76   117   116    1
    77    12    11    2
    78    91    90   ar
    79    91    89   ar
    80     9    10    1
    81    90    88   ar
    82    21    20    1
    83    21    22    1
    84   116   113    1
    85    11    20   am
    86    11    10    1
    87    10    13    1
    88    41    40    1
    89    96    93    1
    90   113   112    1
    91   113   114    1
    92    89    87   ar
    93    22    23    2
    94    22    34   am
    95    88    86   ar
    96    40    36   am
    97    93    92    1
    98    93    94    1
    99    37    36    2
   100    34    35    1
   101    36    35    1
   102   115   114    2
   103    87    86   ar
   104    35    38    1
   105    81    82    1
   106    13    14    1
   107    86    85    1
   108    15    14   ar
   109    15    17   ar
   110    95    94    2
   111   106   107    1
   112   171   169   ar
   113    14    16   ar
   114   111   110    1
   115    17    19   ar
   116   107   110    1
   117   107   108    1
   118    16    18   ar
   119    82    85    1
   120    82    83    1
   121    19    18   ar
   122   151   149   ar
   123   151   150   ar
   124   149   147   ar
   125   169   170   ar
   126   169   168    1
   127    38    39    1
   128   109   108    2
   129   150   148   ar
   130   147   146   ar
   131   148   146   ar
   132   146   145    1
   133    83    84    2
   134   145   142    1
   135   168   167    1
   136   167   164    1
   137   158   160   ar
   138   158   157   ar
   139   156   157    1
   140   156   153    1
   141   160   162   ar
   142   142   143    1
   143   142   141    1
   144   152   143   am
   145   152   153    1
   146   157   159   ar
   147   143   144    2
   148   153   154    1
   149   141   137   am
   150   134   132    1
   151   164   163    1
   152   164   165    1
   153   162   161   ar
   154   159   161   ar
   155   139   140    1
   156   139   136    1
   157   137   136    1
   158   137   138    2
   159   132   131    2
   160   132   133    1
   161   165   166    2
   162   154   155    2
   163   136   135    1
   164   131   130    1
   165   130   129    1
   166   129   128    1
   167   124   125    1
   168   128   125    1
   169   127   126    2
   170   125   126    1
