@<TRIPOS>MOLECULE
tmp/3zwoE00.pdb
 173 171 0 0 0
SMALL
GASTEIGER

@<TRIPOS>ATOM
      1  N         12.9890   15.3690  -27.3440 N.3    76  PHE76      -0.1227
      2  CA        12.2020   14.3790  -26.6100 C.3    76  PHE76       0.1736
      3  C         10.7800   14.5270  -27.0980 C.2    76  PHE76       0.2595
      4  O         10.4120   15.5720  -27.6540 O.2    76  PHE76      -0.2718
      5  CB        12.2180   14.7400  -25.0860 C.3    76  PHE76       0.0547
      6  CG        13.5790   14.7900  -24.4690 C.ar   76  PHE76      -0.0202
      7  CD1       14.3070   13.6510  -24.2450 C.ar   76  PHE76      -0.0042
      8  CD2       14.1580   15.9880  -24.1420 C.ar   76  PHE76      -0.0042
      9  CE1       15.6060   13.7320  -23.6810 C.ar   76  PHE76      -0.0003
     10  CE2       15.4290   16.0590  -23.6000 C.ar   76  PHE76      -0.0003
     11  CZ        16.1600   14.8960  -23.3670 C.ar   76  PHE76      -0.0000
     12  N          9.9080   13.5560  -26.8630 N.am   77  TRP77      -0.1962
     13  CA         8.5670   13.6360  -27.5030 C.3    77  TRP77       0.1771
     14  C          7.6850   12.7720  -26.6450 C.2    77  TRP77       0.2620
     15  O          8.1800   11.7900  -26.0570 O.2    77  TRP77      -0.2715
     16  CB         8.6360   13.1740  -28.9940 C.3    77  TRP77       0.0590
     17  CG         9.2490   11.8000  -29.1080 C.ar   77  TRP77       0.0006
     18  CD1       10.5670   11.4880  -29.2790 C.ar   77  TRP77       0.0946
     19  CD2        8.5480   10.5530  -28.9940 C.ar   77  TRP77       0.0152
     20  NE1       10.7260   10.1070  -29.2960 N.ar   77  TRP77      -0.2442
     21  CE2        9.5020    9.5230  -29.0720 C.ar   77  TRP77       0.0810
     22  CE3        7.1910   10.2150  -28.7820 C.ar   77  TRP77       0.0012
     23  CZ2        9.1490    8.1520  -28.9860 C.ar   77  TRP77       0.0191
     24  CZ3        6.8370    8.8330  -28.6900 C.ar   77  TRP77       0.0001
     25  CH2        7.8120    7.8310  -28.8060 C.ar   77  TRP77       0.0015
     26  N          6.4090   13.1250  -26.5050 N.am   78  SER78      -0.1936
     27  CA         5.4560   12.2640  -25.8460 C.3    78  SER78       0.2055
     28  C          4.1300   12.2740  -26.6080 C.2    78  SER78       0.2643
     29  O          3.4990   13.3370  -26.7590 O.2    78  SER78      -0.2714
     30  CB         5.1410   12.7370  -24.3920 C.3    78  SER78       0.2130
     31  OG         6.3180   12.7160  -23.5510 O.3    78  SER78      -0.2179
     32  N          3.7220   11.1180  -27.1270 N.am   79  GLY79      -0.1954
     33  CA         2.3450   11.0190  -27.6990 C.3    79  GLY79       0.1869
     34  C          2.2350   11.5140  -29.1370 C.2    79  GLY79       0.2309
     35  O          1.1360   11.6300  -29.6630 O.2    79  GLY79      -0.2863
     36  N          4.7330   10.3970  -31.6920 N.3    81  TYR81      -0.1298
     37  CA         5.8960    9.7110  -32.3620 C.3    81  TYR81       0.1290
     38  C          6.0570   10.1790  -33.8300 C.3    81  TYR81       0.2013
     39  O          7.1670   10.6590  -34.2820 O.3    81  TYR81      -0.2188
     40  CB         5.7550    8.1760  -32.3640 C.3    81  TYR81       0.0480
     41  CG         7.0260    7.4890  -32.9290 C.ar   81  TYR81      -0.0204
     42  CD1        7.2650    7.3650  -34.3250 C.ar   81  TYR81      -0.0009
     43  CD2        7.9510    6.9320  -32.0510 C.ar   81  TYR81      -0.0009
     44  CE1        8.4680    6.7270  -34.8230 C.ar   81  TYR81       0.0417
     45  CE2        9.1050    6.2660  -32.5110 C.ar   81  TYR81       0.0417
     46  CZ         9.3600    6.1850  -33.8720 C.ar   81  TYR81       0.1957
     47  OH        10.5220    5.5490  -34.2160 O.3    81  TYR81      -0.2866
     48  N         15.9080    9.8470  -29.7040 N.3    97  LEU97      -0.1231
     49  CA        16.4920    8.5880  -29.1780 C.3    97  LEU97       0.1693
     50  C         16.6200    7.4950  -30.2730 C.2    97  LEU97       0.2591
     51  O         17.6280    6.7860  -30.3430 O.2    97  LEU97      -0.2718
     52  CB        15.6280    8.0550  -28.0180 C.3    97  LEU97       0.0284
     53  CG        16.0990    6.7090  -27.3730 C.3    97  LEU97       0.0019
     54  CD1       17.5140    6.9040  -26.9300 C.3    97  LEU97       0.0001
     55  CD2       15.2190    6.4250  -26.1520 C.3    97  LEU97       0.0001
     56  N         15.5900    7.4210  -31.1420 N.am   98  GLU98      -0.1979
     57  CA        15.5120    6.5150  -32.2450 C.3    98  GLU98       0.1602
     58  C         16.6260    6.6730  -33.3040 C.2    98  GLU98       0.2287
     59  O         16.8820    5.7150  -34.0340 O.2    98  GLU98      -0.2864
     60  CB        14.1140    6.5040  -32.8750 C.3    98  GLU98       0.0415
     61  CG        12.9700    6.0550  -31.8580 C.3    98  GLU98       0.1163
     62  CD        12.7190    6.9860  -30.7290 C.2    98  GLU98       0.3649
     63  OE1       12.6990    8.2450  -30.9130 O.co2  98  GLU98      -0.2457
     64  OE2       12.5890    6.4550  -29.6000 O.co2  98  GLU98      -0.2457
     65  N         14.7940   -0.5640  -31.9230 N.3   107  ASN107     -0.1225
     66  CA        13.4850    0.0340  -32.0930 C.3   107  ASN107      0.1785
     67  C         12.5330   -1.0610  -32.6990 C.2   107  ASN107      0.2598
     68  O         12.9010   -1.7180  -33.6720 O.2   107  ASN107     -0.2718
     69  CB        13.6070    1.2010  -33.1010 C.3   107  ASN107      0.1169
     70  CG        12.3670    2.1790  -33.0540 C.2   107  ASN107      0.2627
     71  OD1       11.5460    2.1390  -32.1160 O.2   107  ASN107     -0.2716
     72  ND2       12.3150    3.1280  -34.0080 N.am  107  ASN107     -0.0877
     73  N         11.3790   -1.2130  -32.0990 N.am  108  SER108     -0.1938
     74  CA        10.3080   -2.1080  -32.5110 C.3   108  SER108      0.2055
     75  C         10.6450   -3.5700  -32.2090 C.2   108  SER108      0.2642
     76  O          9.8420   -4.4400  -32.4970 O.2   108  SER108     -0.2714
     77  CB        10.0040   -1.9320  -34.0140 C.3   108  SER108      0.2130
     78  OG         9.5320   -0.5940  -34.1580 O.3   108  SER108     -0.2179
     79  N         11.7910   -3.8530  -31.6230 N.am  109  LEU109     -0.1977
     80  CA        12.1360   -5.2890  -31.4740 C.3   109  LEU109      0.1596
     81  C         11.5170   -5.8480  -30.1930 C.2   109  LEU109      0.2287
     82  O         11.1500   -5.0870  -29.2670 O.2   109  LEU109     -0.2864
     83  CB        13.6270   -5.5510  -31.5310 C.3   109  LEU109      0.0297
     84  CG        14.3670   -5.0850  -32.8080 C.3   109  LEU109      0.0022
     85  CD1       15.7950   -5.7030  -32.8350 C.3   109  LEU109      0.0001
     86  CD2       13.5620   -5.3860  -34.0980 C.3   109  LEU109      0.0001
     87  N         14.1440    0.4330  -22.0870 N.3   140  TRP140     -0.1241
     88  CA        13.8450    1.7740  -22.6610 C.3   140  TRP140      0.1605
     89  C         13.9600    2.8780  -21.5610 C.2   140  TRP140      0.2264
     90  O         14.3020    4.0040  -21.8650 O.2   140  TRP140     -0.2867
     91  CB        12.5010    1.8380  -23.3430 C.3   140  TRP140      0.0550
     92  CG        12.5370    1.0210  -24.6590 C.ar  140  TRP140      0.0003
     93  CD1       12.0070   -0.2550  -24.8770 C.ar  140  TRP140      0.0946
     94  CD2       13.2560    1.3750  -25.8580 C.ar  140  TRP140      0.0152
     95  NE1       12.3330   -0.6920  -26.1690 N.ar  140  TRP140     -0.2442
     96  CE2       13.0930    0.2970  -26.7900 C.ar  140  TRP140      0.0810
     97  CE3       14.0150    2.5210  -26.2530 C.ar  140  TRP140      0.0012
     98  CZ2       13.6460    0.3540  -28.0990 C.ar  140  TRP140      0.0191
     99  CZ3       14.5650    2.5820  -27.5660 C.ar  140  TRP140      0.0001
    100  CH2       14.3990    1.4740  -28.4610 C.ar  140  TRP140      0.0015
    101  N         16.3260    6.0100  -22.1860 N.3   144  SER144     -0.1217
    102  CA        15.9120    7.3840  -22.0630 C.3   144  SER144      0.1889
    103  C         16.7840    8.1010  -21.0370 C.2   144  SER144      0.2288
    104  O         17.1350    9.2560  -21.2440 O.2   144  SER144     -0.2866
    105  CB        14.4550    7.5090  -21.5450 C.3   144  SER144      0.2089
    106  OG        13.5860    7.2180  -22.5760 O.3   144  SER144     -0.2183
    107  N         20.2710    8.7740  -22.5120 N.3   147  TYR147     -0.1241
    108  CA        20.0800    9.7580  -23.6110 C.3   147  TYR147      0.1605
    109  C         19.9490   11.1490  -22.9910 C.2   147  TYR147      0.2264
    110  O         20.6940   12.0960  -23.3400 O.2   147  TYR147     -0.2867
    111  CB        18.8160    9.4000  -24.3920 C.3   147  TYR147      0.0534
    112  CG        18.3970   10.3240  -25.4980 C.ar  147  TYR147     -0.0201
    113  CD1       19.2260   10.5480  -26.6230 C.ar  147  TYR147     -0.0009
    114  CD2       17.1480   10.9520  -25.4490 C.ar  147  TYR147     -0.0009
    115  CE1       18.7370   11.3990  -27.7020 C.ar  147  TYR147      0.0417
    116  CE2       16.7070   11.8180  -26.4670 C.ar  147  TYR147      0.0417
    117  CZ        17.5080   12.0530  -27.5620 C.ar  147  TYR147      0.1957
    118  OH        17.0100   12.8310  -28.6110 O.3   147  TYR147     -0.2866
    119  N         -5.0550   12.1940  -22.0570 N.3   166  VAL166     -0.1245
    120  CA        -3.6150   12.1670  -21.7010 C.3   166  VAL166      0.1561
    121  C         -3.0450   13.5910  -21.6980 C.2   166  VAL166      0.2260
    122  O         -2.9010   14.2030  -22.7470 O.2   166  VAL166     -0.2867
    123  CB        -2.7880   11.2190  -22.6580 C.3   166  VAL166      0.0252
    124  CG1       -1.2780   11.1120  -22.2130 C.3   166  VAL166      0.0019
    125  CG2       -3.4050    9.7820  -22.6530 C.3   166  VAL166      0.0019
    126  N          3.0890   14.7190  -18.3320 N.3   170  ARG170     -0.1245
    127  CA         2.7130   14.0020  -17.1260 C.3   170  ARG170      0.1563
    128  C          3.9810   13.3310  -16.5720 C.2   170  ARG170      0.2260
    129  O          4.8750   12.9610  -17.3340 O.2   170  ARG170     -0.2867
    130  CB         1.5710   12.9870  -17.3630 C.3   170  ARG170      0.0307
    131  CG         1.9810   11.8540  -18.2340 C.3   170  ARG170      0.0489
    132  CD         0.7810   11.4030  -19.1720 C.3   170  ARG170      0.2205
    133  NE         1.3220   10.4330  -20.1390 N.pl3 170  ARG170     -0.0865
    134  CZ         1.6050    9.1770  -19.8560 C.cat 170  ARG170      0.5346
    135  NH1        1.3770    8.7090  -18.6490 N.pl3 170  ARG170      0.1354
    136  NH2        2.1260    8.3730  -20.7660 N.pl3 170  ARG170      0.1354
    137  N          4.8880    9.6600  -17.9170 N.3   173  SER173     -0.1202
    138  CA         5.4120    9.3030  -19.2140 C.3   173  SER173      0.2020
    139  C          6.9310    8.9460  -19.1090 C.2   173  SER173      0.2619
    140  O          7.6270    9.2520  -18.1060 O.2   173  SER173     -0.2717
    141  CB         5.2130   10.4670  -20.1910 C.3   173  SER173      0.2103
    142  OG         6.0190   11.6220  -19.8200 O.3   173  SER173     -0.2182
    143  N          7.4700    8.3220  -20.1390 N.am  174  PHE174     -0.1961
    144  CA         8.9600    8.1390  -20.1440 C.3   174  PHE174      0.1771
    145  C          9.7160    9.4160  -19.9910 C.2   174  PHE174      0.2619
    146  O         10.7340    9.4740  -19.2780 O.2   174  PHE174     -0.2715
    147  CB         9.4740    7.3430  -21.4140 C.3   174  PHE174      0.0574
    148  CG         9.0990    5.8800  -21.4200 C.ar  174  PHE174     -0.0200
    149  CD1        7.8020    5.4330  -21.8890 C.ar  174  PHE174     -0.0042
    150  CD2       10.0760    4.8710  -21.0030 C.ar  174  PHE174     -0.0042
    151  CE1        7.4260    3.9670  -21.8920 C.ar  174  PHE174     -0.0003
    152  CE2        9.7520    3.3950  -20.9790 C.ar  174  PHE174     -0.0003
    153  CZ         8.4320    2.9420  -21.4400 C.ar  174  PHE174     -0.0000
    154  N          9.2600   10.4810  -20.6690 N.am  175  PHE175     -0.1974
    155  CA         9.8550   11.7920  -20.4050 C.3   175  PHE175      0.1639
    156  C          9.8170   12.2620  -18.9490 C.2   175  PHE175      0.2290
    157  O         10.8600   12.7310  -18.4410 O.2   175  PHE175     -0.2864
    158  CB         9.1800   12.8790  -21.2630 C.3   175  PHE175      0.0560
    159  CG         9.7450   14.2470  -21.0370 C.ar  175  PHE175     -0.0200
    160  CD1       10.9980   14.6320  -21.6450 C.ar  175  PHE175     -0.0042
    161  CD2        9.0440   15.1650  -20.2230 C.ar  175  PHE175     -0.0042
    162  CE1       11.4870   15.9390  -21.4450 C.ar  175  PHE175     -0.0003
    163  CE2        9.5430   16.4630  -19.9860 C.ar  175  PHE175     -0.0003
    164  CZ        10.7380   16.8600  -20.6120 C.ar  175  PHE175     -0.0000
    165  N         13.5980   11.2880  -18.3890 N.3   179  GLU179     -0.1245
    166  CA        14.3070   12.2710  -19.2200 C.3   179  GLU179      0.1567
    167  C         14.4170   13.6360  -18.5420 C.2   179  GLU179      0.2260
    168  O         15.4890   13.9860  -18.1570 O.2   179  GLU179     -0.2867
    169  CB        13.6420   12.3860  -20.6370 C.3   179  GLU179      0.0388
    170  CG        13.6130   11.0030  -21.2290 C.3   179  GLU179      0.1160
    171  CD        13.0140   10.9490  -22.6240 C.2   179  GLU179      0.3649
    172  OE1       11.9860   11.5980  -22.8970 O.co2 179  GLU179     -0.2457
    173  OE2       13.6290   10.2330  -23.4460 O.co2 179  GLU179     -0.2457
@<TRIPOS>BOND
     1    44    42   ar
     2    44    46   ar
     3    42    41   ar
     4    39    38    1
     5    47    46    1
     6    78    77    1
     7    86    84    1
     8    59    58    2
     9    77    74    1
    10    72    70   am
    11    46    45   ar
    12    38    37    1
    13    68    67    2
    14    58    57    1
    15    69    70    1
    16    69    66    1
    17    70    71    2
    18    41    40    1
    19    41    43   ar
    20    60    57    1
    21    60    61    1
    22    85    84    1
    23    84    83    1
    24    67    73   am
    25    67    66    1
    26    74    75    1
    27    74    73    1
    28    45    43   ar
    29    76    75    2
    30    40    37    1
    31    37    36    1
    32    57    56    1
    33    75    79   am
    34    66    65    1
    35    61    62    1
    36    79    80    1
    37    83    80    1
    38    80    81    1
    39    56    50   am
    40    63    62   ar
    41    62    64   ar
    42    51    50    2
    43    50    49    1
    44    81    82    2
    45    48    49    1
    46    35    34    2
    47    20    18   ar
    48    20    21   ar
    49    18    17   ar
    50    49    52    1
    51    34    33    1
    52    17    19   ar
    53    17    16    1
    54    21    19   ar
    55    21    23   ar
    56    19    22   ar
    57    16    13    1
    58    23    25   ar
    59    25    24   ar
    60    22    24   ar
    61   118   117    1
    62   100    98   ar
    63   100    99   ar
    64    98    96   ar
    65    52    53    1
    66   115   117   ar
    67   115   113   ar
    68    33    32    1
    69     4     3    2
    70    99    97   ar
    71   117   116   ar
    72    13    12    1
    73    13    14    1
    74    53    54    1
    75    53    55    1
    76     1     2    1
    77    32    28   am
    78     3    12   am
    79     3     2    1
    80    96    95   ar
    81    96    94   ar
    82    29    28    2
    83    14    26   am
    84    14    15    2
    85   113   112   ar
    86     2     5    1
    87    28    27    1
    88    26    27    1
    89   116   114   ar
    90    97    94   ar
    91    95    93   ar
    92    94    92   ar
    93    27    30    1
    94   112   114   ar
    95   112   111    1
    96     5     6    1
    97    93    92   ar
    98    92    91    1
    99     6     7   ar
   100     6     8   ar
   101    30    31    1
   102   111   108    1
   103     7     9   ar
   104     8    10   ar
   105     9    11   ar
   106   108   109    1
   107   108   107    1
   108    10    11   ar
   109   173   171   ar
   110    91    88    1
   111   110   109    2
   112   172   171   ar
   113   122   121    2
   114    88    87    1
   115    88    89    1
   116   123   125    1
   117   123   124    1
   118   123   120    1
   119   171   170    1
   120   106   105    1
   121   101   102    1
   122   102   105    1
   123   102   103    1
   124   119   120    1
   125   151   149   ar
   126   151   153   ar
   127   149   148   ar
   128    90    89    2
   129   120   121    1
   130   160   162   ar
   131   160   159   ar
   132   162   164   ar
   133   153   152   ar
   134   148   147    1
   135   148   150   ar
   136   147   144    1
   137   158   159    1
   138   158   155    1
   139   104   103    2
   140   170   169    1
   141   159   161   ar
   142   150   152   ar
   143   136   134    1
   144   154   155    1
   145   154   145   am
   146   169   166    1
   147   164   163   ar
   148   155   156    1
   149   161   163   ar
   150   141   142    1
   151   141   138    1
   152   144   143    1
   153   144   145    1
   154   133   134    2
   155   133   132    1
   156   143   139   am
   157   145   146    2
   158   134   135    1
   159   166   167    1
   160   166   165    1
   161   138   139    1
   162   138   137    1
   163   132   131    1
   164   139   140    2
   165   156   157    2
   166   167   168    2
   167   126   127    1
   168   131   130    1
   169   130   127    1
   170   129   128    2
   171   127   128    1
