@<TRIPOS>MOLECULE
tmp/3zwpF00.pdb
 173 171 0 0 0
SMALL
GASTEIGER

@<TRIPOS>ATOM
      1  N         44.0160   35.8080  -83.9470 N.3    76  MET76      -0.1230
      2  CA        44.4390   37.1870  -84.2170 C.3    76  MET76       0.1702
      3  C         45.7920   37.3020  -84.9150 C.2    76  MET76       0.2592
      4  O         46.7280   36.6040  -84.5450 O.2    76  MET76      -0.2718
      5  CB        44.4410   37.9940  -82.9300 C.3    76  MET76       0.0401
      6  CG        45.4770   39.1100  -82.8340 C.3    76  MET76       0.0596
      7  SD        44.7260   40.6510  -82.3780 S.3    76  MET76      -0.1393
      8  CE        44.0930   41.2450  -83.8970 C.3    76  MET76       0.0692
      9  N         45.8790   38.2220  -85.8870 N.am   77  PHE77      -0.1962
     10  CA        47.1240   38.5840  -86.5540 C.3    77  PHE77       0.1771
     11  C         47.4300   40.0400  -86.3170 C.2    77  PHE77       0.2620
     12  O         46.5210   40.8400  -86.0150 O.2    77  PHE77      -0.2715
     13  CB        46.9960   38.3850  -88.0700 C.3    77  PHE77       0.0574
     14  CG        46.5910   37.0050  -88.4490 C.ar   77  PHE77      -0.0200
     15  CD1       47.4660   35.9560  -88.2760 C.ar   77  PHE77      -0.0042
     16  CD2       45.3250   36.7540  -88.9510 C.ar   77  PHE77      -0.0042
     17  CE1       47.0850   34.6570  -88.6060 C.ar   77  PHE77      -0.0003
     18  CE2       44.9310   35.4700  -89.3050 C.ar   77  PHE77      -0.0003
     19  CZ        45.8110   34.4130  -89.1170 C.ar   77  PHE77      -0.0000
     20  N         48.6810   40.4040  -86.5700 N.am   78  TRP78      -0.1960
     21  CA        49.1570   41.7660  -86.3300 C.3    78  TRP78       0.1771
     22  C         50.3880   42.0710  -87.2150 C.2    78  TRP78       0.2620
     23  O         51.1760   41.1720  -87.4900 O.2    78  TRP78      -0.2715
     24  CB        49.5100   41.9420  -84.8240 C.3    78  TRP78       0.0590
     25  CG        50.5790   40.9490  -84.3240 C.ar   78  TRP78       0.0006
     26  CD1       50.3630   39.6620  -83.7940 C.ar   78  TRP78       0.0946
     27  CD2       52.0080   41.1180  -84.4040 C.ar   78  TRP78       0.0152
     28  NE1       51.5960   39.0640  -83.5270 N.ar   78  TRP78      -0.2442
     29  CE2       52.6030   39.9510  -83.8690 C.ar   78  TRP78       0.0810
     30  CE3       52.8420   42.1710  -84.8460 C.ar   78  TRP78       0.0012
     31  CZ2       53.9910   39.7960  -83.7920 C.ar   78  TRP78       0.0191
     32  CZ3       54.2250   42.0160  -84.7740 C.ar   78  TRP78       0.0001
     33  CH2       54.7910   40.8250  -84.2630 C.ar   78  TRP78       0.0015
     34  N         50.5420   43.3230  -87.6570 N.am   79  SER79      -0.1936
     35  CA        51.7400   43.8100  -88.2800 C.3    79  SER79       0.2055
     36  C         52.0290   45.2160  -87.7460 C.2    79  SER79       0.2643
     37  O         51.1670   46.1470  -87.8400 O.2    79  SER79      -0.2714
     38  CB        51.6060   43.8740  -89.8430 C.3    79  SER79       0.2130
     39  OG        51.2370   42.6210  -90.4160 O.3    79  SER79      -0.2179
     40  N         53.2240   45.3860  -87.1780 N.am   80  GLY80      -0.1954
     41  CA        53.6780   46.6960  -86.7280 C.3    80  GLY80       0.1869
     42  C         53.1250   47.1690  -85.3720 C.2    80  GLY80       0.2309
     43  O         53.3850   48.3080  -84.9630 O.2    80  GLY80      -0.2863
     44  N         52.8960   45.0730  -82.3360 N.3    82  TYR82      -0.1241
     45  CA        53.0650   43.9300  -81.3790 C.3    82  TYR82       0.1605
     46  C         52.4360   44.2090  -80.0090 C.2    82  TYR82       0.2264
     47  O         51.6960   43.3480  -79.4970 O.2    82  TYR82      -0.2867
     48  CB        54.5230   43.5310  -81.1920 C.3    82  TYR82       0.0534
     49  CG        54.6830   42.2980  -80.3230 C.ar   82  TYR82      -0.0201
     50  CD1       54.6800   42.3780  -78.9370 C.ar   82  TYR82      -0.0009
     51  CD2       54.8150   41.0770  -80.8890 C.ar   82  TYR82      -0.0009
     52  CE1       54.8160   41.2520  -78.1520 C.ar   82  TYR82       0.0417
     53  CE2       54.9730   39.9360  -80.1340 C.ar   82  TYR82       0.0417
     54  CZ        54.9950   40.0260  -78.7840 C.ar   82  TYR82       0.1957
     55  OH        55.1400   38.8750  -78.0620 O.3    82  TYR82      -0.2866
     56  N         49.8690   34.2990  -81.7810 N.3    98  LEU98      -0.1231
     57  CA        50.8630   33.2750  -82.0540 C.3    98  LEU98       0.1693
     58  C         51.6690   32.9670  -80.8000 C.2    98  LEU98       0.2591
     59  O         52.0810   31.8260  -80.6110 O.2    98  LEU98      -0.2718
     60  CB        51.7840   33.7450  -83.1700 C.3    98  LEU98       0.0284
     61  CG        52.4510   32.6600  -84.0100 C.3    98  LEU98       0.0019
     62  CD1       53.2570   33.3070  -85.1610 C.3    98  LEU98       0.0001
     63  CD2       53.2810   31.6200  -83.2080 C.3    98  LEU98       0.0001
     64  N         51.8680   33.9610  -79.9310 N.am   99  GLU99      -0.1979
     65  CA        52.6860   33.7940  -78.7100 C.3    99  GLU99       0.1602
     66  C         51.9560   33.0120  -77.6270 C.2    99  GLU99       0.2287
     67  O         52.5490   32.5900  -76.6480 O.2    99  GLU99      -0.2864
     68  CB        53.1590   35.1700  -78.1700 C.3    99  GLU99       0.0415
     69  CG        54.2390   35.8090  -79.0720 C.3    99  GLU99       0.1163
     70  CD        53.6930   36.1260  -80.4050 C.2    99  GLU99       0.3649
     71  OE1       52.6980   36.8550  -80.4490 O.co2  99  GLU99      -0.2457
     72  OE2       54.1930   35.6020  -81.4290 O.co2  99  GLU99      -0.2457
     73  N         59.3400   32.4650  -77.9520 N.3   108  ASN108     -0.1225
     74  CA        59.1570   33.8890  -77.9900 C.3   108  ASN108      0.1785
     75  C         60.3510   34.5990  -77.3970 C.2   108  ASN108      0.2597
     76  O         60.7590   34.2420  -76.2890 O.2   108  ASN108     -0.2718
     77  CB        57.9220   34.3300  -77.2150 C.3   108  ASN108      0.1169
     78  CG        57.6580   35.8060  -77.4270 C.2   108  ASN108      0.2627
     79  OD1       57.8070   36.3190  -78.5650 O.2   108  ASN108     -0.2716
     80  ND2       57.3780   36.5210  -76.3420 N.am  108  ASN108     -0.0877
     81  N         60.8890   35.5920  -78.1300 N.am  109  SER109     -0.1952
     82  CA        62.0670   36.3740  -77.6850 C.3   109  SER109      0.1924
     83  C         63.3940   35.5790  -77.6110 C.2   109  SER109      0.2314
     84  O         64.4070   36.1570  -77.2080 O.2   109  SER109     -0.2863
     85  CB        61.8540   37.0000  -76.2670 C.3   109  SER109      0.2116
     86  OG        60.5640   37.5880  -76.1790 O.3   109  SER109     -0.2180
     87  N         60.0360   32.0590  -88.0060 N.3   141  TRP141     -0.1241
     88  CA        58.7920   32.8390  -87.7870 C.3   141  TRP141      0.1605
     89  C         57.8200   32.7660  -88.9750 C.2   141  TRP141      0.2264
     90  O         56.6130   32.7380  -88.7530 O.2   141  TRP141     -0.2867
     91  CB        59.0070   34.2960  -87.2590 C.3   141  TRP141      0.0550
     92  CG        59.5110   34.2530  -85.8420 C.ar  141  TRP141      0.0003
     93  CD1       60.7820   34.5760  -85.4090 C.ar  141  TRP141      0.0946
     94  CD2       58.8220   33.7400  -84.6750 C.ar  141  TRP141      0.0152
     95  NE1       60.9050   34.3380  -84.0630 N.ar  141  TRP141     -0.2442
     96  CE2       59.7230   33.8310  -83.5820 C.ar  141  TRP141      0.0810
     97  CE3       57.5260   33.2380  -84.4420 C.ar  141  TRP141      0.0012
     98  CZ2       59.3670   33.4230  -82.2500 C.ar  141  TRP141      0.0191
     99  CZ3       57.1730   32.8300  -83.1030 C.ar  141  TRP141      0.0001
    100  CH2       58.0910   32.9410  -82.0440 C.ar  141  TRP141      0.0015
    101  N         54.2820   31.3250  -88.7450 N.3   145  SER145     -0.1217
    102  CA        53.1560   32.1100  -89.2340 C.3   145  SER145      0.1889
    103  C         52.2620   31.2600  -90.1280 C.2   145  SER145      0.2288
    104  O         51.0310   31.2530  -89.9310 O.2   145  SER145     -0.2866
    105  CB        53.6600   33.3150  -90.0200 C.3   145  SER145      0.2089
    106  OG        54.4110   34.1660  -89.1570 O.3   145  SER145     -0.2183
    107  N         50.5240   28.3740  -88.2080 N.3   148  TYR148     -0.1241
    108  CA        49.5640   29.0890  -87.3890 C.3   148  TYR148      0.1605
    109  C         48.3740   29.5330  -88.2320 C.2   148  TYR148      0.2264
    110  O         47.2420   29.1830  -87.9130 O.2   148  TYR148     -0.2867
    111  CB        50.2440   30.2910  -86.7450 C.3   148  TYR148      0.0534
    112  CG        49.3640   31.2180  -85.9020 C.ar  148  TYR148     -0.0201
    113  CD1       48.8440   30.8040  -84.6530 C.ar  148  TYR148     -0.0009
    114  CD2       49.1150   32.5300  -86.3250 C.ar  148  TYR148     -0.0009
    115  CE1       48.0510   31.6820  -83.8900 C.ar  148  TYR148      0.0417
    116  CE2       48.3290   33.4010  -85.5770 C.ar  148  TYR148      0.0417
    117  CZ        47.8150   32.9910  -84.3680 C.ar  148  TYR148      0.1957
    118  OH        47.0560   33.8720  -83.6400 O.3   148  TYR148     -0.2866
    119  N         55.9660   52.7900  -93.3100 N.3   167  VAL167     -0.1245
    120  CA        55.5980   51.3910  -93.5540 C.3   167  VAL167      0.1561
    121  C         54.0700   51.2820  -93.6990 C.2   167  VAL167      0.2260
    122  O         53.3280   51.6280  -92.7320 O.2   167  VAL167     -0.2867
    123  CB        56.0870   50.4680  -92.4130 C.3   167  VAL167      0.0252
    124  CG1       55.6720   48.9720  -92.6560 C.3   167  VAL167      0.0019
    125  CG2       57.6270   50.6080  -92.1920 C.3   167  VAL167      0.0019
    126  N         51.0950   45.0450  -96.4350 N.3   171  ARG171     -0.1245
    127  CA        52.0420   44.8620  -97.5670 C.3   171  ARG171      0.1563
    128  C         52.3020   43.3910  -97.8680 C.2   171  ARG171      0.2260
    129  O         52.3250   42.5880  -96.9260 O.2   171  ARG171     -0.2867
    130  CB        53.3570   45.6590  -97.3720 C.3   171  ARG171      0.0307
    131  CG        53.6370   45.9020  -95.9320 C.3   171  ARG171      0.0489
    132  CD        55.0310   46.2510  -95.6100 C.3   171  ARG171      0.2205
    133  NE        55.3500   45.7700  -94.2660 N.pl3 171  ARG171     -0.0865
    134  CZ        56.3660   44.9500  -94.0010 C.cat 171  ARG171      0.5346
    135  NH1       57.1280   44.5100  -95.0010 N.pl3 171  ARG171      0.1354
    136  NH2       56.6150   44.5780  -92.7450 N.pl3 171  ARG171      0.1354
    137  N         55.2270   41.5360  -95.9090 N.3   174  SER174     -0.1202
    138  CA        55.1310   41.3490  -94.4670 C.3   174  SER174      0.2020
    139  C         54.9260   39.8540  -94.2310 C.2   174  SER174      0.2619
    140  O         54.4540   39.1350  -95.1040 O.2   174  SER174     -0.2717
    141  CB        53.9030   42.0580  -93.9090 C.3   174  SER174      0.2103
    142  OG        52.7030   41.3400  -94.2410 O.3   174  SER174     -0.2182
    143  N         55.1980   39.3850  -93.0310 N.am  175  PHE175     -0.1961
    144  CA        54.9060   37.9800  -92.7440 C.3   175  PHE175      0.1771
    145  C         53.4030   37.6990  -92.8690 C.2   175  PHE175      0.2619
    146  O         52.9970   36.6100  -93.2670 O.2   175  PHE175     -0.2715
    147  CB        55.4010   37.6200  -91.3420 C.3   175  PHE175      0.0574
    148  CG        56.8790   37.3870  -91.2460 C.ar  175  PHE175     -0.0200
    149  CD1       57.7780   37.9320  -92.1970 C.ar  175  PHE175     -0.0042
    150  CD2       57.3990   36.6350  -90.1520 C.ar  175  PHE175     -0.0042
    151  CE1       59.1750   37.7190  -92.0880 C.ar  175  PHE175     -0.0003
    152  CE2       58.8110   36.3880  -90.0240 C.ar  175  PHE175     -0.0003
    153  CZ        59.7080   36.9190  -90.9950 C.ar  175  PHE175     -0.0000
    154  N         52.5640   38.6730  -92.5320 N.am  176  PHE176     -0.1974
    155  CA        51.1500   38.4660  -92.7870 C.3   176  PHE176      0.1639
    156  C         50.8550   38.3530  -94.2970 C.2   176  PHE176      0.2290
    157  O         50.1320   37.4590  -94.7170 O.2   176  PHE176     -0.2864
    158  CB        50.3050   39.5730  -92.2260 C.3   176  PHE176      0.0560
    159  CG        48.8720   39.4260  -92.5890 C.ar  176  PHE176     -0.0200
    160  CD1       48.0570   38.5520  -91.8670 C.ar  176  PHE176     -0.0042
    161  CD2       48.3280   40.1190  -93.6990 C.ar  176  PHE176     -0.0042
    162  CE1       46.7320   38.4060  -92.2010 C.ar  176  PHE176     -0.0003
    163  CE2       46.9970   39.9710  -94.0490 C.ar  176  PHE176     -0.0003
    164  CZ        46.1930   39.1220  -93.3080 C.ar  176  PHE176     -0.0000
    165  N         50.7570   34.6340  -93.9660 N.3   180  GLU180     -0.1245
    166  CA        49.5090   34.4780  -93.2710 C.3   180  GLU180      0.1567
    167  C         48.2630   34.5130  -94.1890 C.2   180  GLU180      0.2260
    168  O         47.5440   33.5150  -94.2970 O.2   180  GLU180     -0.2867
    169  CB        49.4700   35.3730  -92.0150 C.3   180  GLU180      0.0388
    170  CG        50.6500   35.0710  -91.0910 C.3   180  GLU180      0.1160
    171  CD        50.8380   36.0080  -89.9130 C.2   180  GLU180      0.3649
    172  OE1       50.2210   37.0900  -89.7960 O.co2 180  GLU180     -0.2457
    173  OE2       51.6520   35.6440  -89.0470 O.co2 180  GLU180     -0.2457
@<TRIPOS>BOND
     1   128   127    1
     2   128   129    2
     3   127   130    1
     4   127   126    1
     5   130   131    1
     6   131   132    1
     7   137   138    1
     8   132   133    1
     9   140   139    2
    10   135   134    1
    11   157   156    2
    12   138   139    1
    13   138   141    1
    14   168   167    2
    15   156   155    1
    16   133   134    2
    17   142   141    1
    18   139   143   am
    19   167   166    1
    20   163   161   ar
    21   163   164   ar
    22   134   136    1
    23   165   166    1
    24   121   120    1
    25   121   122    2
    26   161   159   ar
    27   120   119    1
    28   120   123    1
    29   164   162   ar
    30   166   169    1
    31   146   145    2
    32   143   144    1
    33   145   144    1
    34   145   154   am
    35   155   154    1
    36   155   158    1
    37   144   147    1
    38   124   123    1
    39   159   158    1
    40   159   160   ar
    41   123   125    1
    42   162   160   ar
    43   149   151   ar
    44   149   148   ar
    45   151   153   ar
    46   169   170    1
    47   147   148    1
    48   148   150   ar
    49   170   171    1
    50   153   152   ar
    51    39    38    1
    52   150   152   ar
    53   103   104    2
    54   103   102    1
    55   105   102    1
    56   105   106    1
    57   171   172   ar
    58   171   173   ar
    59    38    35    1
    60    18    19   ar
    61    18    16   ar
    62   102   101    1
    63    19    17   ar
    64    89    90    2
    65    89    88    1
    66    16    14   ar
    67    17    15   ar
    68    14    15   ar
    69    14    13    1
    70    35    36    1
    71    35    34    1
    72   109   110    2
    73   109   108    1
    74   107   108    1
    75    13    10    1
    76    87    88    1
    77    37    36    2
    78    88    91    1
    79    36    40   am
    80    34    22   am
    81    23    22    2
    82   108   111    1
    83    91    92    1
    84    22    21    1
    85    40    41    1
    86   111   112    1
    87    41    42    1
    88    20    21    1
    89    20    11   am
    90    10    11    1
    91    10     9    1
    92    21    24    1
    93   114   112   ar
    94   114   116   ar
    95    11    12    2
    96   112   113   ar
    97     9     3   am
    98    92    93   ar
    99    92    94   ar
   100   116   117   ar
   101    93    95   ar
   102    42    43    2
   103    62    61    1
   104     3     4    2
   105     3     2    1
   106    30    32   ar
   107    30    27   ar
   108    24    25    1
   109    32    33   ar
   110    94    97   ar
   111    94    96   ar
   112   113   115   ar
   113    97    99   ar
   114    27    25   ar
   115    27    29   ar
   116   117   115   ar
   117   117   118    1
   118    25    26   ar
   119    33    31   ar
   120     2     1    1
   121     2     5    1
   122    95    96   ar
   123    61    63    1
   124    61    60    1
   125     8     7    1
   126    29    31   ar
   127    29    28   ar
   128    26    28   ar
   129    96    98   ar
   130    60    57    1
   131    99   100   ar
   132     5     6    1
   133     6     7    1
   134    44    45    1
   135    98   100   ar
   136    57    56    1
   137    57    58    1
   138    72    70   ar
   139    45    48    1
   140    45    46    1
   141    48    49    1
   142    51    49   ar
   143    51    53   ar
   144    58    59    2
   145    58    64   am
   146    71    70   ar
   147    70    69    1
   148    49    50   ar
   149    53    54   ar
   150    46    47    2
   151    64    65    1
   152    69    68    1
   153    50    52   ar
   154    54    52   ar
   155    54    55    1
   156    65    68    1
   157    65    66    1
   158    79    78    2
   159    81    82    1
   160    81    75   am
   161    74    73    1
   162    74    75    1
   163    74    77    1
   164    82    83    1
   165    82    85    1
   166    66    67    2
   167    83    84    2
   168    78    77    1
   169    78    80   am
   170    75    76    2
   171    85    86    1
