@<TRIPOS>MOLECULE
tmp/3zwsA02.pdb
 180 171 0 0 0
SMALL
GASTEIGER

@<TRIPOS>ATOM
      1  N        -30.4880   -7.4640    8.4800 N.3     3  MET3       -0.1245
      2  CA       -31.0180   -8.6970    7.8930 C.3     3  MET3        0.1570
      3  C        -31.3270   -9.7920    8.9260 C.2     3  MET3        0.2261
      4  O        -32.4610  -10.2760    8.9790 O.2     3  MET3       -0.2867
      5  CB       -30.0530   -9.2480    6.8390 C.3     3  MET3        0.0387
      6  CG       -30.6010   -9.2540    5.4400 C.3     3  MET3        0.0595
      7  SD       -29.5330  -10.2270    4.3780 S.3     3  MET3       -0.1393
      8  CE       -29.3870  -11.7660    5.2900 C.3     3  MET3        0.0692
      9  N        -34.4270   -8.8330   11.0790 N.3     6  LEU6       -0.1231
     10  CA       -35.6510   -9.0280   10.2960 C.3     6  LEU6        0.1693
     11  C        -35.9580  -10.5120   10.0480 C.2     6  LEU6        0.2591
     12  O        -37.1310  -10.8880    9.9800 O.2     6  LEU6       -0.2718
     13  CB       -35.5780   -8.2640    8.9650 C.3     6  LEU6        0.0284
     14  CG       -35.8090   -6.7480    9.0380 C.3     6  LEU6        0.0019
     15  CD1      -35.2910   -6.0600    7.7730 C.3     6  LEU6        0.0001
     16  CD2      -37.2910   -6.4240    9.2710 C.3     6  LEU6        0.0001
     17  N        -34.9100  -11.3380    9.9460 N.am    7  GLN7       -0.1979
     18  CA       -35.0390  -12.7860    9.7080 C.3     7  GLN7        0.1601
     19  C        -35.2740  -13.6060   10.9880 C.2     7  GLN7        0.2287
     20  O        -35.9220  -14.6570   10.9450 O.2     7  GLN7       -0.2864
     21  CB       -33.7860  -13.3220    9.0020 C.3     7  GLN7        0.0394
     22  CG       -33.6840  -12.9690    7.5130 C.3     7  GLN7        0.0908
     23  CD       -32.4020  -13.5120    6.8830 C.2     7  GLN7        0.2608
     24  OE1      -31.3420  -13.4910    7.5110 O.2     7  GLN7       -0.2717
     25  NE2      -32.4970  -14.0050    5.6420 N.am    7  GLN7       -0.0878
     26  N        -39.0550  -17.7600    7.3770 N.3    12  PRO12      -0.2116
     27  CA       -38.2630  -17.6660    6.1400 C.3    12  PRO12       0.1372
     28  C        -39.0700  -17.2130    4.9220 C.2    12  PRO12       0.2244
     29  O        -38.5450  -16.4620    4.1250 O.2    12  PRO12      -0.2868
     30  CB       -37.7080  -19.0890    5.9470 C.3    12  PRO12       0.0268
     31  CG       -37.8420  -19.7430    7.2520 C.3    12  PRO12       0.0207
     32  CD       -38.8820  -19.0630    8.0550 C.3    12  PRO12       0.0892
     33  N        -39.5320  -13.5060    5.1600 N.3    15  ALA15      -0.1231
     34  CA       -38.2590  -12.8860    4.8930 C.3    15  ALA15       0.1694
     35  C        -37.9890  -12.8670    3.3800 C.2    15  ALA15       0.2592
     36  O        -37.4850  -11.8870    2.8540 O.2    15  ALA15      -0.2718
     37  CB       -37.1240  -13.6250    5.6010 C.3    15  ALA15       0.0304
     38  N        -38.2840  -13.9760    2.7170 N.am   16  HIS16      -0.1976
     39  CA       -38.1060  -14.0320    1.2600 C.3    16  HIS16       0.1656
     40  C        -38.9520  -12.9730    0.5460 C.2    16  HIS16       0.2291
     41  O        -38.4750  -12.2570   -0.3390 O.2    16  HIS16      -0.2864
     42  CB       -38.4940  -15.3920    0.7320 C.3    16  HIS16       0.0771
     43  CG       -38.4030  -15.4920   -0.7540 C.ar   16  HIS16       0.0820
     44  ND1      -39.4550  -15.9310   -1.5240 N.ar   16  HIS16      -0.2267
     45  CD2      -37.4340  -15.1140   -1.6140 C.ar   16  HIS16       0.1154
     46  CE1      -39.1030  -15.8900   -2.8010 C.ar   16  HIS16       0.1986
     47  NE2      -37.8750  -15.4190   -2.8790 N.ar   16  HIS16      -0.2212
     48  N        -40.1410  -10.2140    1.6910 N.3    18  LEU18      -0.1231
     49  CA       -39.5770   -8.8910    1.9390 C.3    18  LEU18       0.1693
     50  C        -38.3180   -8.6340    1.1170 C.2    18  LEU18       0.2591
     51  O        -38.1280   -7.5590    0.5710 O.2    18  LEU18      -0.2718
     52  CB       -39.2510   -8.7240    3.4120 C.3    18  LEU18       0.0284
     53  CG       -38.8740   -7.3510    3.9090 C.3    18  LEU18       0.0019
     54  CD1      -40.0280   -6.3710    3.6270 C.3    18  LEU18       0.0001
     55  CD2      -38.5490   -7.4720    5.4140 C.3    18  LEU18       0.0001
     56  N        -37.4510   -9.6540    1.0020 N.am   19  ALA19      -0.1980
     57  CA       -36.2680   -9.5620    0.1950 C.3    19  ALA19       0.1597
     58  C        -36.5990   -9.2870   -1.2700 C.2    19  ALA19       0.2287
     59  O        -35.9100   -8.4960   -1.8920 O.2    19  ALA19      -0.2864
     60  CB       -35.4480  -10.8720    0.3000 C.3    19  ALA19       0.0319
     61  N        -37.7840   -5.5550   -1.3960 N.3    22  PHE22      -0.1227
     62  CA       -36.6320   -4.6660   -1.2230 C.3    22  PHE22       0.1736
     63  C        -35.7530   -4.6280   -2.4690 C.2    22  PHE22       0.2596
     64  O        -35.3250   -3.5670   -2.9280 O.2    22  PHE22      -0.2718
     65  CB       -35.7740   -5.1050   -0.0330 C.3    22  PHE22       0.0547
     66  CG       -36.2780   -4.6370    1.3320 C.ar   22  PHE22      -0.0202
     67  CD1      -37.5870   -4.2130    1.5340 C.ar   22  PHE22      -0.0042
     68  CD2      -35.4150   -4.6760    2.4240 C.ar   22  PHE22      -0.0042
     69  CE1      -38.0170   -3.7850    2.8110 C.ar   22  PHE22      -0.0003
     70  CE2      -35.8400   -4.2580    3.7020 C.ar   22  PHE22      -0.0003
     71  CZ       -37.1400   -3.8270    3.8910 C.ar   22  PHE22      -0.0000
     72  N        -35.5160   -5.8050   -3.0550 N.am   23  THR23      -0.1953
     73  CA       -34.6670   -5.8860   -4.2230 C.3    23  THR23       0.1897
     74  C        -35.3800   -5.2140   -5.3900 C.2    23  THR23       0.2313
     75  O        -34.7530   -4.4580   -6.1280 O.2    23  THR23      -0.2863
     76  CB       -34.3450   -7.3680   -4.5360 C.3    23  THR23       0.1794
     77  OG1      -33.6410   -7.9170   -3.4120 O.3    23  THR23      -0.2208
     78  CG2      -33.5150   -7.5000   -5.8170 C.3    23  THR23       0.0378
     79  N        -30.7410   -1.4980   -1.7940 N.3    28  LEU28      -0.1245
     80  CA       -29.6820   -2.4910   -1.5710 C.3    28  LEU28       0.1561
     81  C        -28.3870   -1.8110   -1.1290 C.2    28  LEU28       0.2260
     82  O        -28.0640   -0.7290   -1.6120 O.2    28  LEU28      -0.2867
     83  CB       -29.4380   -3.3070   -2.8540 C.3    28  LEU28       0.0270
     84  CG       -30.6230   -4.0990   -3.4340 C.3    28  LEU28       0.0019
     85  CD1      -30.4660   -4.4090   -4.9620 C.3    28  LEU28       0.0001
     86  CD2      -30.8340   -5.3750   -2.6060 C.3    28  LEU28       0.0001
     87  N        -35.5040  -17.6540   -6.2470 N.3    56  PHE56      -0.1241
     88  CA       -35.4850  -16.3680   -5.5590 C.3    56  PHE56       0.1605
     89  C        -36.5470  -15.4530   -6.1670 C.2    56  PHE56       0.2264
     90  O        -37.3690  -14.8730   -5.4340 O.2    56  PHE56      -0.2867
     91  CB       -34.1290  -15.7050   -5.5440 C.3    56  PHE56       0.0534
     92  CG       -34.1720  -14.3620   -4.9140 C.ar   56  PHE56      -0.0203
     93  CD1      -34.2350  -14.2400   -3.5270 C.ar   56  PHE56      -0.0042
     94  CD2      -34.3290  -13.2290   -5.6890 C.ar   56  PHE56      -0.0042
     95  CE1      -34.3360  -12.9700   -2.9220 C.ar   56  PHE56      -0.0003
     96  CE2      -34.4290  -11.9660   -5.0860 C.ar   56  PHE56      -0.0003
     97  CZ       -34.4580  -11.8610   -3.7010 C.ar   56  PHE56      -0.0000
     98  N        -27.5280   -5.7950   -7.7950 N.3    69  MET69      -0.1245
     99  CA       -26.8360   -6.5210   -6.7210 C.3    69  MET69       0.1570
    100  C        -25.4790   -7.0820   -7.1920 C.2    69  MET69       0.2261
    101  O        -24.6190   -7.4490   -6.3590 O.2    69  MET69      -0.2867
    102  CB       -27.7250   -7.6710   -6.2280 C.3    69  MET69       0.0387
    103  CG       -27.5570   -8.0000   -4.7720 C.3    69  MET69       0.0595
    104  SD       -28.7110   -9.2490   -4.2240 S.3    69  MET69      -0.1393
    105  CE       -30.2430   -8.3880   -4.3090 C.3    69  MET69       0.0692
    106  N        -40.9560  -23.6950    3.9820 N.3    92  VAL92      -0.1245
    107  CA       -39.5330  -23.2960    3.8800 C.3    92  VAL92       0.1561
    108  C        -38.9520  -23.2380    5.2790 C.2    92  VAL92       0.2260
    109  O        -39.5930  -22.6950    6.1930 O.2    92  VAL92      -0.2867
    110  CB       -39.3330  -21.9040    3.2580 C.3    92  VAL92       0.0252
    111  CG1      -37.8280  -21.6250    3.0140 C.3    92  VAL92       0.0019
    112  CG2      -40.1190  -21.7740    1.9810 C.3    92  VAL92       0.0019
    113  N        -35.1970  -22.9090    7.6770 N.3    94  ARG94      -0.1245
    114  CA       -33.7750  -22.6510    7.7810 C.3    94  ARG94       0.1563
    115  C        -33.0980  -23.6590    8.6820 C.2    94  ARG94       0.2260
    116  O        -33.6580  -24.0660    9.7000 O.2    94  ARG94      -0.2867
    117  CB       -33.4880  -21.2720    8.3570 C.3    94  ARG94       0.0307
    118  CG       -34.0010  -20.1190    7.5750 C.3    94  ARG94       0.0489
    119  CD       -33.5220  -18.8320    8.3190 C.3    94  ARG94       0.2205
    120  NE       -34.1820  -17.6310    7.8510 N.pl3  94  ARG94      -0.0865
    121  CZ       -35.1800  -16.9860    8.4600 C.cat  94  ARG94       0.5346
    122  NH1      -35.6990  -17.4020    9.6140 N.pl3  94  ARG94       0.1354
    123  NH2      -35.6630  -15.8890    7.8940 N.pl3  94  ARG94       0.1354
    124  N        -30.9130  -24.7190    3.7440 N.3   101  VAL101     -0.1245
    125  CA       -32.3630  -24.5100    3.7210 C.3   101  VAL101      0.1561
    126  C        -33.0170  -25.7700    3.2100 C.2   101  VAL101      0.2260
    127  O        -32.4400  -26.5080    2.3900 O.2   101  VAL101     -0.2867
    128  CB       -32.7080  -23.2670    2.8370 C.3   101  VAL101      0.0252
    129  CG1      -34.2030  -23.2000    2.4840 C.3   101  VAL101      0.0019
    130  CG2      -32.2310  -21.9150    3.5140 C.3   101  VAL101      0.0019
    131  N        -41.8520  -25.6510   -1.6160 N.3   105  TYR105     -0.1241
    132  CA       -42.8320  -24.6900   -2.1320 C.3   105  TYR105      0.1605
    133  C        -43.8740  -25.3270   -3.0380 C.2   105  TYR105      0.2264
    134  O        -45.0820  -24.9520   -2.9750 O.2   105  TYR105     -0.2867
    135  CB       -42.1390  -23.5430   -2.8540 C.3   105  TYR105      0.0534
    136  CG       -41.7510  -22.3680   -2.0190 C.ar  105  TYR105     -0.0201
    137  CD1      -42.7100  -21.4600   -1.5680 C.ar  105  TYR105     -0.0009
    138  CD2      -40.4270  -22.1430   -1.6640 C.ar  105  TYR105     -0.0009
    139  CE1      -42.3610  -20.3560   -0.8290 C.ar  105  TYR105      0.0417
    140  CE2      -40.0790  -21.0290   -0.9170 C.ar  105  TYR105      0.0417
    141  CZ       -41.0430  -20.1390   -0.5050 C.ar  105  TYR105      0.1957
    142  OH       -40.6320  -19.0380    0.2300 O.3   105  TYR105     -0.2866
    143  N        -28.2340  -19.2210   -4.4700 N.3   314  TYR314     -0.1241
    144  CA       -29.4080  -18.6530   -3.8020 C.3   314  TYR314      0.1605
    145  C        -29.2040  -18.7210   -2.2940 C.2   314  TYR314      0.2264
    146  O        -29.1650  -17.6930   -1.6230 O.2   314  TYR314     -0.2867
    147  CB       -30.6610  -19.3760   -4.2650 C.3   314  TYR314      0.0534
    148  CG       -32.0010  -18.9410   -3.6850 C.ar  314  TYR314     -0.0201
    149  CD1      -32.1100  -17.8910   -2.7780 C.ar  314  TYR314     -0.0009
    150  CD2      -33.1720  -19.6080   -4.0460 C.ar  314  TYR314     -0.0009
    151  CE1      -33.3280  -17.5540   -2.2140 C.ar  314  TYR314      0.0417
    152  CE2      -34.3790  -19.2760   -3.5000 C.ar  314  TYR314      0.0417
    153  CZ       -34.4660  -18.2390   -2.5830 C.ar  314  TYR314      0.1957
    154  OH       -35.6690  -17.8530   -1.9940 O.3   314  TYR314     -0.2866
    155  N        -27.2320  -16.2100   -0.1990 N.3   317  LEU317     -0.1231
    156  CA       -27.8440  -14.8750   -0.0810 C.3   317  LEU317      0.1693
    157  C        -28.6840  -14.8030    1.1910 C.2   317  LEU317      0.2592
    158  O        -28.7260  -13.7590    1.8750 O.2   317  LEU317     -0.2718
    159  CB       -28.6190  -14.5340   -1.3920 C.3   317  LEU317      0.0284
    160  CG       -29.0440  -13.1070   -1.6800 C.3   317  LEU317      0.0019
    161  CD1      -27.8160  -12.3170   -2.0140 C.3   317  LEU317      0.0001
    162  CD2      -30.0570  -13.1260   -2.8400 C.3   317  LEU317      0.0001
    163  N        -29.3620  -15.8930    1.5490 N.am  318  THR318     -0.1953
    164  CA       -30.2400  -15.9090    2.6810 C.3   318  THR318      0.1897
    165  C        -29.4720  -15.8540    4.0070 C.2   318  THR318      0.2313
    166  O        -29.9780  -15.3430    5.0260 O.2   318  THR318     -0.2863
    167  CB       -31.2390  -17.0820    2.5980 C.3   318  THR318      0.1794
    168  OG1      -30.6110  -18.2300    3.1130 O.3   318  THR318     -0.2208
    169  CG2      -31.7490  -17.3230    1.1490 C.3   318  THR318      0.0378
    170  N        -26.5100  -12.3370    2.9070 N.3   321  GLY321     -0.1210
    171  CA       -27.0900  -11.1820    2.2600 C.3   321  GLY321      0.1940
    172  C        -26.4040  -10.7520    0.9850 C.2   321  GLY321      0.2453
    173  O        -25.4480  -11.3970    0.5300 O.2   321  GLY321     -0.2732
    174  N        -26.8340   -9.6050    0.4290 N.am  322  PRO322     -0.2728
    175  CA       -26.3070   -9.0900   -0.8180 C.3   322  PRO322      0.1401
    176  C        -24.7720   -8.9870   -0.9270 C.2   322  PRO322      0.2269
    177  O        -24.2610   -9.1870   -2.0100 O.2   322  PRO322     -0.2865
    178  CB       -26.9780   -7.7120   -0.9480 C.3   322  PRO322      0.0296
    179  CG       -28.2540   -7.8850   -0.2390 C.3   322  PRO322      0.0237
    180  CD       -27.9770   -8.8030    0.9100 C.3   322  PRO322      0.0939
@<TRIPOS>BOND
     1    98    99    1
     2   100    99    1
     3   100   101    2
     4    99   102    1
     5    87    88    1
     6   102   103    1
     7    89    88    1
     8    89    90    2
     9    75    74    2
    10    78    76    1
    11    94    96   ar
    12    94    92   ar
    13    88    91    1
    14    91    92    1
    15    74    73    1
    16    96    97   ar
    17    85    84    1
    18    92    93   ar
    19   103   104    1
    20    76    73    1
    21    76    77    1
    22   143   144    1
    23   105   104    1
    24   147   144    1
    25   147   148    1
    26    73    72    1
    27   150   148   ar
    28   150   152   ar
    29   144   145    1
    30    97    95   ar
    31   148   149   ar
    32    93    95   ar
    33   152   153   ar
    34    84    83    1
    35    84    86    1
    36    72    63   am
    37   133   134    2
    38   133   132    1
    39    64    63    2
    40    47    46   ar
    41    47    45   ar
    42    83    80    1
    43   135   132    1
    44   135   136    1
    45   162   160    1
    46    46    44   ar
    47   149   151   ar
    48   153   151   ar
    49   153   154    1
    50    63    62    1
    51   145   146    2
    52   132   131    1
    53   136   138   ar
    54   136   137   ar
    55   161   160    1
    56   177   176    2
    57    59    58    2
    58    79    80    1
    59   160   159    1
    60   138   140   ar
    61    45    43   ar
    62    82    81    2
    63    80    81    1
    64   137   139   ar
    65    44    43   ar
    66    61    62    1
    67   159   156    1
    68    58    57    1
    69    62    65    1
    70   178   175    1
    71   178   179    1
    72   176   175    1
    73   140   141   ar
    74   139   141   ar
    75   175   174    1
    76    43    42    1
    77   141   142    1
    78    41    40    2
    79   179   180    1
    80   155   156    1
    81   156   157    1
    82    65    66    1
    83    57    60    1
    84    57    56    1
    85   174   180    1
    86   174   172   am
    87   173   172    2
    88    40    39    1
    89    51    50    2
    90    42    39    1
    91   172   171    1
    92    56    50   am
    93    50    49    1
    94   169   167    1
    95   157   163   am
    96   157   158    2
    97    39    38    1
    98    66    67   ar
    99    66    68   ar
   100    67    69   ar
   101   163   164    1
   102    48    49    1
   103    49    52    1
   104   112   110    1
   105   171   170    1
   106   127   126    2
   107    68    70   ar
   108   129   128    1
   109   167   164    1
   110   167   168    1
   111   164   165    1
   112    38    35   am
   113    69    71   ar
   114   128   130    1
   115   128   125    1
   116    36    35    2
   117   111   110    1
   118   126   125    1
   119   110   107    1
   120    35    34    1
   121    52    53    1
   122    54    53    1
   123    70    71   ar
   124   125   124    1
   125   107   106    1
   126   107   108    1
   127    53    55    1
   128   165   166    2
   129    29    28    2
   130     7     8    1
   131     7     6    1
   132    34    33    1
   133    34    37    1
   134    28    27    1
   135   108   109    2
   136     6     5    1
   137    25    23   am
   138    30    27    1
   139    30    31    1
   140    27    26    1
   141     5     2    1
   142    23    24    2
   143    23    22    1
   144    31    32    1
   145    26    32    1
   146    22    21    1
   147   118   119    1
   148   118   117    1
   149   113   114    1
   150    15    14    1
   151   114   117    1
   152   114   115    1
   153   120   119    1
   154   120   121    2
   155     2     1    1
   156     2     3    1
   157   123   121    1
   158   121   122    1
   159   115   116    2
   160     3     4    2
   161    13    14    1
   162    13    10    1
   163    21    18    1
   164    14    16    1
   165    18    17    1
   166    18    19    1
   167    17    11   am
   168    12    11    2
   169    11    10    1
   170    10     9    1
   171    20    19    2
