@<TRIPOS>MOLECULE
tmp/3zx4B00.pdb
 129 120 0 0 0
SMALL
GASTEIGER

@<TRIPOS>ATOM
      1  N         17.0680   57.1480   36.9050 N.3     8  ASP8       -0.1239
      2  CA        16.6060   58.1830   35.9880 C.3     8  ASP8        0.1674
      3  C         15.1190   58.4400   36.1450 C.2     8  ASP8        0.2266
      4  O         14.3230   57.5230   36.0830 O.2     8  ASP8       -0.2867
      5  CB        16.8850   57.7850   34.5430 C.3     8  ASP8        0.1410
      6  CG        18.3520   57.7640   34.2250 C.2     8  ASP8        0.3668
      7  OD1       19.0160   58.7780   34.5030 O.co2   8  ASP8       -0.2456
      8  OD2       18.8430   56.7330   33.7140 O.co2   8  ASP8       -0.2456
      9  N         18.6900   51.0130   34.7000 N.3    40  ALA40      -0.1231
     10  CA        19.1630   50.6800   33.3540 C.3    40  ALA40       0.1694
     11  C         20.6100   51.1570   33.1340 C.2    40  ALA40       0.2591
     12  O         21.2720   50.7660   32.1650 O.2    40  ALA40      -0.2718
     13  CB        18.2370   51.2890   32.2910 C.3    40  ALA40       0.0304
     14  N         21.1050   52.0020   34.0350 N.am   41  LYS41      -0.1980
     15  CA        22.4400   52.5740   33.8770 C.3    41  LYS41       0.1596
     16  C         23.5280   51.5250   34.0830 C.2    41  LYS41       0.2287
     17  O         23.2740   50.4690   34.6590 O.2    41  LYS41      -0.2864
     18  CB        22.6290   53.7300   34.8530 C.3    41  LYS41       0.0298
     19  CG        21.8270   54.9730   34.4740 C.3    41  LYS41       0.0038
     20  CD        22.0680   56.0730   35.5120 C.3    41  LYS41       0.0206
     21  CE        21.3830   57.3730   35.1350 C.3    41  LYS41       0.1093
     22  NZ        21.8380   57.9590   33.8500 N.3    41  LYS41      -0.1314
     23  N         28.3500   54.3300   35.3210 N.3    45  GLU45      -0.1245
     24  CA        27.4900   55.4740   35.5980 C.3    45  GLU45       0.1567
     25  C         27.0990   55.5390   37.0750 C.2    45  GLU45       0.2260
     26  O         27.0840   56.6150   37.6850 O.2    45  GLU45      -0.2867
     27  CB        26.2330   55.4280   34.7320 C.3    45  GLU45       0.0388
     28  CG        26.5100   55.5510   33.2580 C.3    45  GLU45       0.1160
     29  CD        25.2070   55.5420   32.4430 C.2    45  GLU45       0.3649
     30  OE1       24.5770   54.4670   32.3280 O.co2  45  GLU45      -0.2457
     31  OE2       24.7920   56.6240   31.9770 O.co2  45  GLU45      -0.2457
     32  N         23.8660   51.9840   21.0600 N.3   110  TYR110     -0.1241
     33  CA        25.0140   52.7550   21.5300 C.3   110  TYR110      0.1605
     34  C         26.3330   52.1750   21.0550 C.2   110  TYR110      0.2264
     35  O         27.2800   52.9290   20.8390 O.2   110  TYR110     -0.2867
     36  CB        25.0950   52.7820   23.0600 C.3   110  TYR110      0.0534
     37  CG        24.1590   53.7080   23.8080 C.ar  110  TYR110     -0.0201
     38  CD1       23.1600   54.4290   23.1640 C.ar  110  TYR110     -0.0009
     39  CD2       24.3000   53.8530   25.1800 C.ar  110  TYR110     -0.0009
     40  CE1       22.3170   55.2690   23.8710 C.ar  110  TYR110      0.0417
     41  CE2       23.4650   54.6780   25.9010 C.ar  110  TYR110      0.0417
     42  CZ        22.4760   55.3810   25.2490 C.ar  110  TYR110      0.1957
     43  OH        21.6450   56.1870   25.9850 O.3   110  TYR110     -0.2866
     44  N         21.6120   62.0910   23.8900 N.3   122  THR122     -0.1218
     45  CA        21.1290   61.8550   25.2530 C.3   122  THR122      0.1862
     46  C         21.1380   63.1220   26.0940 C.2   122  THR122      0.2287
     47  O         20.4660   63.1890   27.1250 O.2   122  THR122     -0.2866
     48  CB        21.9940   60.8310   26.0060 C.3   122  THR122      0.1770
     49  OG1       23.3520   61.2940   26.0480 O.3   122  THR122     -0.2211
     50  CG2       21.9240   59.4570   25.3680 C.3   122  THR122      0.0375
     51  N         23.8320   64.0270   27.5310 N.3   124  LEU124     -0.1245
     52  CA        24.9430   63.7900   28.4420 C.3   124  LEU124      0.1561
     53  C         26.2050   64.4830   27.9620 C.2   124  LEU124      0.2260
     54  O         26.3450   64.7780   26.7770 O.2   124  LEU124     -0.2867
     55  CB        25.2170   62.2920   28.5570 C.3   124  LEU124      0.0270
     56  CG        24.1720   61.3800   29.1970 C.3   124  LEU124      0.0019
     57  CD1       24.6240   59.9340   29.0640 C.3   124  LEU124      0.0001
     58  CD2       23.9480   61.7420   30.6630 C.3   124  LEU124      0.0001
     59  N         28.0030   55.6760   29.7720 N.3   132  ALA132     -0.1245
     60  CA        26.7630   55.0470   29.3000 C.3   132  ALA132      0.1562
     61  C         27.0420   53.9900   28.2320 C.2   132  ALA132      0.2260
     62  O         26.2640   53.0500   28.0660 O.2   132  ALA132     -0.2867
     63  CB        25.7960   56.0980   28.7570 C.3   132  ALA132      0.0290
     64  N         28.7260   49.1610   28.4290 N.3   135  ARG135     -0.1245
     65  CA        27.6460   48.2370   28.7970 C.3   135  ARG135      0.1563
     66  C         28.1120   46.7890   28.8330 C.2   135  ARG135      0.2260
     67  O         28.8470   46.3410   27.9470 O.2   135  ARG135     -0.2867
     68  CB        26.4930   48.3990   27.8090 C.3   135  ARG135      0.0307
     69  CG        26.1640   49.8920   27.5740 C.3   135  ARG135      0.0489
     70  CD        24.7990   50.1170   26.9230 C.3   135  ARG135      0.2205
     71  NE        23.6810   49.7910   27.8060 N.pl3 135  ARG135     -0.0865
     72  CZ        23.1790   50.6120   28.7250 C.cat 135  ARG135      0.5346
     73  NH1       23.7130   51.8220   28.9250 N.pl3 135  ARG135      0.1354
     74  NH2       22.1490   50.2250   29.4690 N.pl3 135  ARG135      0.1354
     75  N         21.3430   49.7310   24.5750 N.3   140  THR140     -0.1218
     76  CA        20.3750   50.7920   24.3820 C.3   140  THR140      0.1862
     77  C         20.2200   51.0380   22.8850 C.2   140  THR140      0.2287
     78  O         21.2180   51.2390   22.1640 O.2   140  THR140     -0.2866
     79  CB        20.8240   52.0870   25.0900 C.3   140  THR140      0.1770
     80  OG1       21.0140   51.8260   26.4900 O.3   140  THR140     -0.2211
     81  CG2       19.7750   53.1730   24.9300 C.3   140  THR140      0.0375
     82  N         13.0930   52.4000   28.7040 N.3   165  GLY165     -0.1210
     83  CA        13.5560   53.0090   29.9430 C.3   165  GLY165      0.1956
     84  C         13.1910   54.4540   30.1760 C.2   165  GLY165      0.2612
     85  O         13.7700   55.1040   31.0490 O.2   165  GLY165     -0.2717
     86  N         12.2350   54.9750   29.4190 N.am  166  GLY166     -0.1942
     87  CA        11.8320   56.3510   29.6310 C.3   166  GLY166      0.2014
     88  C         12.0020   57.1630   28.3690 C.2   166  GLY166      0.2639
     89  O         11.1120   57.9240   28.0100 O.2   166  GLY166     -0.2714
     90  N         13.1380   56.9840   27.6930 N.am  167  ARG167     -0.1963
     91  CA        13.3740   57.6440   26.4100 C.3   167  ARG167      0.1729
     92  C         13.8150   56.6730   25.3130 C.2   167  ARG167      0.2616
     93  O         13.5850   56.9300   24.1360 O.2   167  ARG167     -0.2715
     94  CB        14.4170   58.7590   26.5500 C.3   167  ARG167      0.0348
     95  CG        13.9690   59.9270   27.4220 C.3   167  ARG167      0.0492
     96  CD        14.8810   61.1380   27.2400 C.3   167  ARG167      0.2205
     97  NE        16.2640   60.8690   27.6320 N.pl3 167  ARG167     -0.0865
     98  CZ        17.2900   61.6660   27.3430 C.cat 167  ARG167      0.5346
     99  NH1       17.0940   62.7810   26.6540 N.pl3 167  ARG167      0.1354
    100  NH2       18.5150   61.3470   27.7390 N.pl3 167  ARG167      0.1354
    101  N         14.4550   55.5720   25.6980 N.am  168  PHE168     -0.1974
    102  CA        15.0310   54.6200   24.7280 C.3   168  PHE168      0.1639
    103  C         14.5350   53.1900   24.9370 C.2   168  PHE168      0.2290
    104  O         14.2470   52.7860   26.0640 O.2   168  PHE168     -0.2864
    105  CB        16.5580   54.5910   24.8390 C.3   168  PHE168      0.0560
    106  CG        17.2100   55.9200   24.5770 C.ar  168  PHE168     -0.0200
    107  CD1       17.4090   56.3580   23.2850 C.ar  168  PHE168     -0.0042
    108  CD2       17.6160   56.7280   25.6310 C.ar  168  PHE168     -0.0042
    109  CE1       17.9940   57.5950   23.0370 C.ar  168  PHE168     -0.0003
    110  CE2       18.2000   57.9680   25.3950 C.ar  168  PHE168     -0.0003
    111  CZ        18.3890   58.3990   24.0920 C.ar  168  PHE168     -0.0000
    112  N         15.5030   49.1530   24.9360 N.3   170  HIS170     -0.1241
    113  CA        16.6920   48.3960   25.2890 C.3   170  HIS170      0.1621
    114  C         16.4910   46.9570   24.8180 C.2   170  HIS170      0.2264
    115  O         15.3630   46.4800   24.7500 O.2   170  HIS170     -0.2867
    116  CB        16.8840   48.3850   26.8170 C.3   170  HIS170      0.0745
    117  CG        17.2450   49.7220   27.3870 C.ar  170  HIS170      0.0817
    118  ND1       18.5180   50.0200   27.8210 N.ar  170  HIS170     -0.2268
    119  CD2       16.5090   50.8410   27.5840 C.ar  170  HIS170      0.1154
    120  CE1       18.5480   51.2620   28.2720 C.ar  170  HIS170      0.1986
    121  NE2       17.3460   51.7890   28.1240 N.ar  170  HIS170     -0.2212
    122  N         10.5390   49.7560   32.2140 N.3   205  ASN205     -0.1240
    123  CA        11.5560   48.8280   32.7170 C.3   205  ASN205      0.1653
    124  C         11.4330   48.5810   34.2170 C.2   205  ASN205      0.2266
    125  O         12.1010   47.7130   34.7660 O.2   205  ASN205     -0.2867
    126  CB        12.9870   49.2600   32.3260 C.3   205  ASN205      0.1155
    127  CG        13.3880   50.6110   32.9110 C.2   205  ASN205      0.2627
    128  OD1       12.5480   51.4670   33.1580 O.2   205  ASN205     -0.2716
    129  ND2       14.6900   50.8100   33.1090 N.am  205  ASN205     -0.0877
@<TRIPOS>BOND
     1    35    34    2
     2    34    33    1
     3    32    33    1
     4    33    36    1
     5    78    77    2
     6    77    76    1
     7   109   107   ar
     8   109   111   ar
     9    36    37    1
    10    38    37   ar
    11    38    40   ar
    12   107   106   ar
    13    37    39   ar
    14    40    42   ar
    15    44    45    1
    16   111   110   ar
    17    93    92    2
    18    76    75    1
    19    76    79    1
    20   106   105    1
    21   106   108   ar
    22   102   105    1
    23   102   103    1
    24   102   101    1
    25   115   114    2
    26   114   113    1
    27    81    79    1
    28   112   113    1
    29   103   104    2
    30    79    80    1
    31    39    41   ar
    32    42    41   ar
    33    42    43    1
    34    45    48    1
    35    45    46    1
    36   113   116    1
    37    92   101   am
    38    92    91    1
    39    50    48    1
    40   110   108   ar
    41    48    49    1
    42    46    47    2
    43    91    94    1
    44    91    90    1
    45    94    95    1
    46    99    98    1
    47    54    53    2
    48   116   117    1
    49    70    69    1
    50    70    71    1
    51    96    95    1
    52    96    97    1
    53    98    97    2
    54    98   100    1
    55   117   119   ar
    56   117   118   ar
    57    51    52    1
    58    69    68    1
    59   119   121   ar
    60    90    88   am
    61    71    72    2
    62    68    65    1
    63   118   120   ar
    64    67    66    2
    65    53    52    1
    66    89    88    2
    67    62    61    2
    68   121   120   ar
    69    61    60    1
    70    88    87    1
    71    64    65    1
    72    52    55    1
    73    55    56    1
    74    82    83    1
    75    72    73    1
    76    72    74    1
    77    63    60    1
    78    65    66    1
    79    57    56    1
    80    56    58    1
    81    60    59    1
    82    86    87    1
    83    86    84   am
    84    83    84    1
    85    84    85    2
    86    31    29   ar
    87    12    11    2
    88   122   123    1
    89    13    10    1
    90   126   123    1
    91   126   127    1
    92    30    29   ar
    93    29    28    1
    94   123   124    1
    95   127   129   am
    96   127   128    2
    97    11    10    1
    98    11    14   am
    99    28    27    1
   100    10     9    1
   101     8     6   ar
   102    22    21    1
   103    15    14    1
   104    15    16    1
   105    15    18    1
   106    16    17    2
   107   124   125    2
   108     6     7   ar
   109     6     5    1
   110    19    18    1
   111    19    20    1
   112     5     2    1
   113    27    24    1
   114    21    20    1
   115    23    24    1
   116    24    25    1
   117     2     3    1
   118     2     1    1
   119     4     3    2
   120    25    26    2
