@<TRIPOS>MOLECULE
tmp/3zxdB00.pdb
 107 104 0 0 0
SMALL
GASTEIGER

@<TRIPOS>ATOM
      1  N         27.9870  -19.6020  -10.5070 N.3    58  SER58      -0.1202
      2  CA        29.1350  -18.7280  -10.7440 C.3    58  SER58       0.2020
      3  C         29.7220  -18.8560  -12.1530 C.2    58  SER58       0.2619
      4  O         30.2380  -17.8720  -12.6780 O.2    58  SER58      -0.2717
      5  CB        30.2370  -19.0450   -9.7370 C.3    58  SER58       0.2103
      6  OG        29.7280  -19.1530   -8.4170 O.3    58  SER58      -0.2182
      7  N         29.6810  -20.0600  -12.7460 N.am   59  THR59      -0.1938
      8  CA        30.3010  -20.3180  -14.0490 C.3    59  THR59       0.2028
      9  C         29.5340  -19.7310  -15.2360 C.2    59  THR59       0.2642
     10  O         30.1590  -19.1140  -16.1020 O.2    59  THR59      -0.2714
     11  CB        30.4740  -21.8190  -14.2640 C.3    59  THR59       0.1808
     12  OG1       29.2250  -22.4660  -14.0560 O.3    59  THR59      -0.2208
     13  CG2       31.5250  -22.4140  -13.3420 C.3    59  THR59       0.0379
     14  N         28.2150  -19.9440  -15.3080 N.am   60  ILE60      -0.1963
     15  CA        27.4110  -19.4610  -16.4350 C.3    60  ILE60       0.1727
     16  C         26.5820  -18.2510  -16.0260 C.2    60  ILE60       0.2617
     17  O         26.1090  -18.1660  -14.8920 O.2    60  ILE60      -0.2715
     18  CB        26.5180  -20.6100  -16.9860 C.3    60  ILE60       0.0290
     19  CG1       27.3620  -21.6550  -17.7480 C.3    60  ILE60       0.0022
     20  CG2       25.3610  -20.1170  -17.8660 C.3    60  ILE60       0.0023
     21  CD1       27.9800  -21.1870  -19.0950 C.3    60  ILE60       0.0001
     22  N         26.4120  -17.3230  -16.9810 N.am   61  SER61      -0.1936
     23  CA        25.5850  -16.1260  -16.8690 C.3    61  SER61       0.2055
     24  C         24.7450  -16.0230  -18.1380 C.2    61  SER61       0.2643
     25  O         24.9870  -16.7810  -19.0790 O.2    61  SER61      -0.2714
     26  CB        26.4510  -14.8880  -16.6750 C.3    61  SER61       0.2130
     27  OG        27.3300  -15.0530  -15.5740 O.3    61  SER61      -0.2179
     28  N         23.7580  -15.1130  -18.1730 N.am   62  THR62      -0.1950
     29  CA        22.8690  -14.9790  -19.3340 C.3    62  THR62       0.1897
     30  C         23.6660  -14.6830  -20.6110 C.2    62  THR62       0.2313
     31  O         24.6470  -13.9410  -20.5650 O.2    62  THR62      -0.2863
     32  CB        21.8200  -13.8920  -19.0910 C.3    62  THR62       0.1794
     33  OG1       21.2510  -14.0630  -17.7930 O.3    62  THR62      -0.2208
     34  CG2       20.7240  -13.9030  -20.1400 C.3    62  THR62       0.0378
     35  N         25.6530  -16.7510  -22.2730 N.3    64  ASP64      -0.1239
     36  CA        26.7850  -17.6730  -22.4550 C.3    64  ASP64       0.1674
     37  C         26.3870  -18.9210  -23.2240 C.2    64  ASP64       0.2266
     38  O         25.3660  -19.5340  -22.9150 O.2    64  ASP64      -0.2867
     39  CB        27.3910  -18.0980  -21.1040 C.3    64  ASP64       0.1410
     40  CG        28.1780  -17.0160  -20.4030 C.2    64  ASP64       0.3668
     41  OD1       27.7830  -15.8350  -20.5000 O.co2  64  ASP64      -0.2456
     42  OD2       29.1670  -17.3530  -19.7220 O.co2  64  ASP64      -0.2456
     43  N         33.1630   -5.9190  -20.8620 N.3   244  ASN244     -0.1225
     44  CA        31.7930   -6.1160  -20.3560 C.3   244  ASN244      0.1785
     45  C         31.5900   -7.4360  -19.5880 C.2   244  ASN244      0.2597
     46  O         30.8940   -7.4380  -18.5720 O.2   244  ASN244     -0.2718
     47  CB        30.7640   -6.0490  -21.5020 C.3   244  ASN244      0.1169
     48  CG        31.0150   -7.0040  -22.6440 C.2   244  ASN244      0.2627
     49  OD1       32.0670   -7.6370  -22.7310 O.2   244  ASN244     -0.2716
     50  ND2       30.1020   -7.0460  -23.5990 N.am  244  ASN244     -0.0877
     51  N         32.1840   -8.5390  -20.0640 N.am  245  LYS245     -0.1966
     52  CA        32.0350   -9.8450  -19.4120 C.3   245  LYS245      0.1728
     53  C         32.9030   -9.9440  -18.1520 C.2   245  LYS245      0.2617
     54  O         34.0390   -9.4750  -18.1490 O.2   245  LYS245     -0.2715
     55  CB        32.3890  -10.9870  -20.3830 C.3   245  LYS245      0.0311
     56  CG        31.5010  -11.0690  -21.6320 C.3   245  LYS245      0.0038
     57  CD        30.0430  -11.3810  -21.3460 C.3   245  LYS245      0.0206
     58  CE        29.2460  -11.5470  -22.6200 C.3   245  LYS245      0.1093
     59  NZ        29.3340  -12.9170  -23.2190 N.3   245  LYS245     -0.1314
     60  N         32.3570  -10.5410  -17.0790 N.am  246  SER246     -0.1936
     61  CA        33.0650  -10.7250  -15.8120 C.3   246  SER246      0.2055
     62  C         34.1110  -11.8220  -15.9320 C.2   246  SER246      0.2643
     63  O         34.0190  -12.6550  -16.8350 O.2   246  SER246     -0.2714
     64  CB        32.0700  -11.0910  -14.7150 C.3   246  SER246      0.2130
     65  OG        32.6370  -11.1890  -13.4210 O.3   246  SER246     -0.2179
     66  N         35.0930  -11.8410  -15.0200 N.am  247  LEU247     -0.1963
     67  CA        36.1380  -12.8700  -15.0240 C.3   247  LEU247      0.1713
     68  C         35.6000  -14.1850  -14.4370 C.2   247  LEU247      0.2458
     69  O         34.6650  -14.1540  -13.6360 O.2   247  LEU247     -0.2730
     70  CB        37.3740  -12.4080  -14.2340 C.3   247  LEU247      0.0310
     71  CG        38.2280  -11.3440  -14.9050 C.3   247  LEU247      0.0022
     72  CD1       39.1830  -10.7240  -13.9200 C.3   247  LEU247      0.0001
     73  CD2       39.0160  -11.9110  -16.0570 C.3   247  LEU247      0.0001
     74  N         36.1710  -15.3490  -14.7970 N.am  248  PRO248     -0.2716
     75  CA        37.2650  -15.5640  -15.7530 C.3   248  PRO248      0.1536
     76  C         36.7750  -15.5800  -17.1960 C.2   248  PRO248      0.2598
     77  O         35.7340  -16.1620  -17.4760 O.2   248  PRO248     -0.2715
     78  CB        37.8350  -16.9260  -15.3340 C.3   248  PRO248      0.0310
     79  CG        36.8120  -17.5820  -14.4450 C.3   248  PRO248      0.0237
     80  CD        35.6610  -16.6290  -14.2780 C.3   248  PRO248      0.0939
     81  N         37.5360  -14.9540  -18.1150 N.am  249  LEU249     -0.1964
     82  CA        37.1780  -14.9230  -19.5360 C.3   249  LEU249      0.1728
     83  C         37.3500  -16.3060  -20.1210 C.2   249  LEU249      0.2616
     84  O         38.1150  -17.1040  -19.5850 O.2   249  LEU249     -0.2715
     85  CB        38.0290  -13.9020  -20.3110 C.3   249  LEU249      0.0311
     86  CG        37.7780  -12.4300  -19.9770 C.3   249  LEU249      0.0022
     87  CD1       38.9740  -11.5780  -20.3400 C.3   249  LEU249      0.0001
     88  CD2       36.5420  -11.9080  -20.6790 C.3   249  LEU249      0.0001
     89  N         36.6150  -16.6060  -21.1930 N.am  250  ARG250     -0.1977
     90  CA        36.6410  -17.9280  -21.8120 C.3   250  ARG250      0.1597
     91  C         36.6980  -17.8330  -23.3380 C.2   250  ARG250      0.2287
     92  O         36.4500  -16.7700  -23.9130 O.2   250  ARG250     -0.2864
     93  CB        35.4070  -18.7350  -21.3630 C.3   250  ARG250      0.0334
     94  CG        35.4070  -19.0310  -19.8600 C.3   250  ARG250      0.0492
     95  CD        34.2840  -19.9500  -19.4080 C.3   250  ARG250      0.2205
     96  NE        34.5020  -20.4600  -18.0480 N.pl3 250  ARG250     -0.0865
     97  CZ        35.3380  -21.4450  -17.7160 C.cat 250  ARG250      0.5346
     98  NH1       36.0660  -22.0550  -18.6430 N.pl3 250  ARG250      0.1354
     99  NH2       35.4570  -21.8210  -16.4460 N.pl3 250  ARG250      0.1354
    100  N         34.0770  -16.1450  -26.2740 N.3   253  ASP253     -0.1239
    101  CA        33.2390  -15.1570  -25.5860 C.3   253  ASP253      0.1674
    102  C         33.1110  -13.9170  -26.4340 C.2   253  ASP253      0.2266
    103  O         34.1270  -13.3600  -26.8410 O.2   253  ASP253     -0.2867
    104  CB        33.8080  -14.7690  -24.1980 C.3   253  ASP253      0.1410
    105  CG        33.4540  -15.6870  -23.0370 C.2   253  ASP253      0.3668
    106  OD1       32.8050  -16.7360  -23.2740 O.co2 253  ASP253     -0.2456
    107  OD2       33.8090  -15.3500  -21.8920 O.co2 253  ASP253     -0.2456
@<TRIPOS>BOND
     1   103   102    2
     2   102   101    1
     3   100   101    1
     4   101   104    1
     5   104   105    1
     6    92    91    2
     7    50    48   am
     8    91    90    1
     9   106   105   ar
    10    37    38    2
    11    37    36    1
    12    59    58    1
    13   105   107   ar
    14    49    48    2
    15    48    47    1
    16    58    57    1
    17    36    35    1
    18    36    39    1
    19    90    93    1
    20    90    89    1
    21    56    57    1
    22    56    55    1
    23    47    44    1
    24    93    94    1
    25    89    83   am
    26    39    40    1
    27    43    44    1
    28    88    86    1
    29    30    31    2
    30    30    29    1
    31    41    40   ar
    32    40    42   ar
    33    55    52    1
    34    44    45    1
    35    87    86    1
    36    85    86    1
    37    85    82    1
    38    34    32    1
    39    83    84    2
    40    83    82    1
    41    51    45   am
    42    51    52    1
    43    94    95    1
    44    45    46    2
    45    82    81    1
    46    52    53    1
    47    95    96    1
    48    29    32    1
    49    29    28    1
    50    21    19    1
    51    32    33    1
    52    25    24    2
    53    98    97    1
    54    28    24   am
    55    53    54    2
    56    53    60   am
    57    24    23    1
    58    81    76   am
    59    96    97    2
    60    20    18    1
    61    19    18    1
    62    97    99    1
    63    77    76    2
    64    76    75    1
    65    60    61    1
    66    18    15    1
    67    22    23    1
    68    22    16   am
    69    23    26    1
    70    63    62    2
    71    26    27    1
    72    15    16    1
    73    15    14    1
    74    10     9    2
    75    73    71    1
    76    16    17    2
    77    62    61    1
    78    62    66   am
    79    61    64    1
    80    75    78    1
    81    75    74    1
    82    78    79    1
    83    14     9   am
    84     9     8    1
    85    67    66    1
    86    67    68    1
    87    67    70    1
    88    71    70    1
    89    71    72    1
    90    74    68   am
    91    74    80    1
    92    64    65    1
    93    79    80    1
    94    68    69    2
    95    11    12    1
    96    11     8    1
    97    11    13    1
    98     8     7    1
    99     7     3   am
   100     4     3    2
   101     3     2    1
   102     2     1    1
   103     2     5    1
   104     5     6    1
