@<TRIPOS>MOLECULE
tmp/3zxeA00.pdb
 96 90 0 0 0
SMALL
GASTEIGER

@<TRIPOS>ATOM
      1  N         -0.1160   16.9930  -39.1030 N.3    28  ARG28      -0.1245
      2  CA        -0.0160   17.2510  -37.6660 C.3    28  ARG28       0.1563
      3  C         -1.0460   16.4210  -36.9220 C.2    28  ARG28       0.2260
      4  O         -2.0800   16.0490  -37.4850 O.2    28  ARG28      -0.2867
      5  CB        -0.2220   18.7430  -37.3510 C.3    28  ARG28       0.0307
      6  CG        -1.4890   19.3570  -37.9390 C.3    28  ARG28       0.0489
      7  CD        -1.5460   20.8570  -37.6920 C.3    28  ARG28       0.2205
      8  NE        -0.4280   21.5620  -38.3140 N.pl3  28  ARG28      -0.0865
      9  CZ        -0.2190   22.8730  -38.2230 C.cat  28  ARG28       0.5346
     10  NH1       -1.0520   23.6460  -37.5300 N.pl3  28  ARG28       0.1354
     11  NH2        0.8340   23.4140  -38.8200 N.pl3  28  ARG28       0.1354
     12  N         -2.5560   15.4960  -32.5350 N.3    30  HIS30      -0.1241
     13  CA        -2.5740   15.9860  -31.1590 C.3    30  HIS30       0.1621
     14  C         -3.0630   14.9690  -30.1480 C.2    30  HIS30       0.2264
     15  O         -3.8330   14.0620  -30.4780 O.2    30  HIS30      -0.2867
     16  CB        -3.4250   17.2530  -31.0490 C.3    30  HIS30       0.0745
     17  CG        -4.8080   17.0930  -31.5950 C.ar   30  HIS30       0.0817
     18  ND1       -5.1310   17.3930  -32.9010 N.ar   30  HIS30      -0.2268
     19  CD2       -5.9460   16.6410  -31.0190 C.ar   30  HIS30       0.1154
     20  CE1       -6.4110   17.1380  -33.1040 C.ar   30  HIS30       0.1986
     21  NE2       -6.9290   16.6810  -31.9780 N.ar   30  HIS30      -0.2212
     22  N         -2.7790   20.3930  -24.5100 N.3    46  HIS46      -0.1241
     23  CA        -2.8950   20.1230  -25.9360 C.3    46  HIS46       0.1621
     24  C         -1.4520   19.9340  -26.3800 C.2    46  HIS46       0.2264
     25  O         -0.6410   20.8610  -26.3160 O.2    46  HIS46      -0.2867
     26  CB        -3.5640   21.3240  -26.6260 C.3    46  HIS46       0.0745
     27  CG        -3.5040   21.3110  -28.1250 C.ar   46  HIS46       0.0817
     28  ND1       -4.2730   20.4680  -28.9030 N.ar   46  HIS46      -0.2268
     29  CD2       -2.8290   22.1060  -28.9910 C.ar   46  HIS46       0.1154
     30  CE1       -4.0380   20.7150  -30.1790 C.ar   46  HIS46       0.1986
     31  NE2       -3.1680   21.7060  -30.2600 N.ar   46  HIS46      -0.2212
     32  N          0.8290   18.8720  -29.4520 N.3    48  ASN48      -0.1240
     33  CA         0.5600   18.9980  -30.8920 C.3    48  ASN48       0.1653
     34  C          1.8180   18.9260  -31.7800 C.2    48  ASN48       0.2266
     35  O          2.3780   19.9650  -32.1580 O.2    48  ASN48      -0.2867
     36  CB        -0.2250   20.3110  -31.1190 C.3    48  ASN48       0.1155
     37  CG        -0.6650   20.5340  -32.5690 C.2    48  ASN48       0.2627
     38  OD1       -0.8450   21.6830  -32.9830 O.2    48  ASN48      -0.2716
     39  ND2       -0.8430   19.4570  -33.3400 N.am   48  ASN48      -0.0877
     40  N          3.6370   18.9740  -35.0480 N.3    50  ARG50      -0.1245
     41  CA         3.3290   19.5390  -36.3560 C.3    50  ARG50       0.1563
     42  C          4.4370   19.1790  -37.3360 C.2    50  ARG50       0.2260
     43  O          5.4860   19.8270  -37.3800 O.2    50  ARG50      -0.2867
     44  CB         3.1560   21.0590  -36.2520 C.3    50  ARG50       0.0307
     45  CG         1.9950   21.5010  -35.3550 C.3    50  ARG50       0.0489
     46  CD         1.9090   23.0170  -35.2620 C.3    50  ARG50       0.2205
     47  NE         0.8220   23.4590  -34.3840 N.pl3  50  ARG50      -0.0865
     48  CZ         0.5300   24.7310  -34.1320 C.cat  50  ARG50       0.5346
     49  NH1        1.2460   25.7100  -34.6790 N.pl3  50  ARG50       0.1354
     50  NH2       -0.4780   25.0310  -33.3230 N.pl3  50  ARG50       0.1354
     51  N          3.9610   21.8460  -30.5430 N.3    57  VAL57      -0.1245
     52  CA         3.2970   22.8890  -29.7620 C.3    57  VAL57       0.1561
     53  C          2.6090   22.3130  -28.5220 C.2    57  VAL57       0.2260
     54  O          1.9760   21.2650  -28.5910 O.2    57  VAL57      -0.2867
     55  CB         2.2810   23.6790  -30.6450 C.3    57  VAL57       0.0252
     56  CG1        1.4040   24.6020  -29.8020 C.3    57  VAL57       0.0019
     57  CG2        3.0220   24.4870  -31.6960 C.3    57  VAL57       0.0019
     58  N         -0.0570   23.6400  -25.4590 N.3    59  ASN59      -0.1240
     59  CA        -0.9460   24.7260  -25.0440 C.3    59  ASN59       0.1653
     60  C         -2.0890   24.2270  -24.1590 C.2    59  ASN59       0.2266
     61  O         -2.2510   23.0200  -23.9470 O.2    59  ASN59      -0.2867
     62  CB        -1.4760   25.4990  -26.2750 C.3    59  ASN59       0.1155
     63  CG        -1.7730   26.9680  -25.9800 C.2    59  ASN59       0.2627
     64  OD1       -1.7130   27.4170  -24.8330 O.2    59  ASN59      -0.2716
     65  ND2       -2.0840   27.7290  -27.0290 N.am   59  ASN59      -0.0877
     66  N         -7.4880   29.9660  -26.2090 N.3    66  TRP66      -0.1241
     67  CA        -6.1650   29.3470  -26.1180 C.3    66  TRP66       0.1605
     68  C         -5.2250   30.1720  -25.2520 C.2    66  TRP66       0.2264
     69  O         -5.2880   31.4050  -25.2410 O.2    66  TRP66      -0.2867
     70  CB        -5.5470   29.1630  -27.5040 C.3    66  TRP66       0.0550
     71  CG        -6.2290   28.1280  -28.3170 C.ar   66  TRP66       0.0003
     72  CD1       -7.1510   28.3330  -29.2980 C.ar   66  TRP66       0.0946
     73  CD2       -6.0550   26.7110  -28.2170 C.ar   66  TRP66       0.0152
     74  NE1       -7.5590   27.1310  -29.8260 N.ar   66  TRP66      -0.2442
     75  CE2       -6.9020   26.1180  -29.1800 C.ar   66  TRP66       0.0810
     76  CE3       -5.2590   25.8840  -27.4130 C.ar   66  TRP66       0.0012
     77  CZ2       -6.9830   24.7330  -29.3580 C.ar   66  TRP66       0.0191
     78  CZ3       -5.3390   24.5080  -27.5890 C.ar   66  TRP66       0.0001
     79  CH2       -6.1940   23.9470  -28.5560 C.ar   66  TRP66       0.0015
     80  N          1.2730   29.5220  -26.3510 N.3    69  GLU69      -0.1245
     81  CA         1.9380   28.2930  -26.7770 C.3    69  GLU69       0.1567
     82  C          3.3320   28.1750  -26.1810 C.2    69  GLU69       0.2260
     83  O          4.0480   29.1680  -26.0550 O.2    69  GLU69      -0.2867
     84  CB         2.0490   28.2340  -28.3010 C.3    69  GLU69       0.0388
     85  CG         0.7140   28.1740  -29.0130 C.3    69  GLU69       0.1160
     86  CD         0.8590   28.1460  -30.5200 C.2    69  GLU69       0.3649
     87  OE1        1.9470   28.4980  -31.0180 O.co2  69  GLU69      -0.2457
     88  OE2       -0.1190   27.7710  -31.2010 O.co2  69  GLU69      -0.2457
     89  N         -6.2960   12.9160  -31.7960 N.3   121  GLY121     -0.1210
     90  CA        -6.8800   13.3170  -33.0760 C.3   121  GLY121      0.1956
     91  C         -5.8750   13.8070  -34.0980 C.2   121  GLY121      0.2612
     92  O         -4.6840   13.9410  -33.7990 O.2   121  GLY121     -0.2717
     93  N         -6.3640   14.0730  -35.3100 N.am  122  GLY122     -0.1956
     94  CA        -5.5200   14.5550  -36.4010 C.3   122  GLY122      0.1869
     95  C         -4.9100   13.4520  -37.2460 C.2   122  GLY122      0.2309
     96  O         -5.4170   12.3270  -37.2750 O.2   122  GLY122     -0.2863
@<TRIPOS>BOND
     1     1     2    1
     2    11     9    1
     3     8     9    2
     4     8     7    1
     5     9    10    1
     6     6     7    1
     7     6     5    1
     8     2     5    1
     9     2     3    1
    10     4     3    2
    11    43    42    2
    12    42    41    1
    13    96    95    2
    14    95    94    1
    15    94    93    1
    16    41    44    1
    17    41    40    1
    18    44    45    1
    19    45    46    1
    20    93    91   am
    21    46    47    1
    22    49    48    1
    23    47    48    2
    24    48    50    1
    25    91    92    2
    26    91    90    1
    27    39    37   am
    28    20    18   ar
    29    20    21   ar
    30    90    89    1
    31    38    37    2
    32    18    17   ar
    33    37    36    1
    34    12    13    1
    35    35    34    2
    36    21    19   ar
    37    34    33    1
    38    57    55    1
    39    17    16    1
    40    17    19   ar
    41    88    86   ar
    42    13    16    1
    43    13    14    1
    44    36    33    1
    45    87    86   ar
    46    33    32    1
    47    55    56    1
    48    55    52    1
    49    51    52    1
    50    86    85    1
    51    15    14    2
    52    31    30   ar
    53    31    29   ar
    54    30    28   ar
    55    74    72   ar
    56    74    75   ar
    57    52    53    1
    58    77    75   ar
    59    77    79   ar
    60    72    71   ar
    61    75    73   ar
    62    85    84    1
    63    29    27   ar
    64    28    27   ar
    65    54    53    2
    66    79    78   ar
    67    71    73   ar
    68    71    70    1
    69    84    81    1
    70    73    76   ar
    71    27    26    1
    72    78    76   ar
    73    70    67    1
    74    65    63   am
    75    81    80    1
    76    81    82    1
    77    26    23    1
    78    24    25    2
    79    24    23    1
    80    62    63    1
    81    62    59    1
    82    66    67    1
    83    82    83    2
    84    67    68    1
    85    63    64    2
    86    23    22    1
    87    58    59    1
    88    68    69    2
    89    59    60    1
    90    60    61    2
