@<TRIPOS>MOLECULE
tmp/3zxgA00.pdb
 151 148 0 0 0
SMALL
GASTEIGER

@<TRIPOS>ATOM
      1  N         -6.4720  -25.1980    7.8790 N.3    17  LYS17      -0.1231
      2  CA        -6.3940  -26.5410    7.3380 C.3    17  LYS17       0.1693
      3  C         -7.1740  -27.4500    8.2540 C.2    17  LYS17       0.2592
      4  O         -7.1160  -27.2610    9.4670 O.2    17  LYS17      -0.2718
      5  CB        -4.9070  -26.9540    7.2730 C.3    17  LYS17       0.0285
      6  CG        -4.6230  -28.3100    6.6690 C.3    17  LYS17       0.0035
      7  CD        -3.1220  -28.5740    6.6900 C.3    17  LYS17       0.0206
      8  CE        -2.7560  -29.8890    6.0500 C.3    17  LYS17       0.1093
      9  NZ        -1.3350  -30.2510    6.2910 N.3    17  LYS17      -0.1314
     10  N         -7.9190  -28.4120    7.7250 N.am   18  GLU18      -0.1966
     11  CA        -8.5990  -29.3480    8.6140 C.3    18  GLU18       0.1733
     12  C         -7.5060  -30.2730    9.1680 C.2    18  GLU18       0.2617
     13  O         -7.0240  -31.1560    8.4590 O.2    18  GLU18      -0.2715
     14  CB        -9.7240  -30.0970    7.8840 C.3    18  GLU18       0.0429
     15  CG       -10.9820  -29.2580    7.7510 C.3    18  GLU18       0.1163
     16  CD       -12.1240  -29.9370    7.0180 C.2    18  GLU18       0.3649
     17  OE1      -12.1680  -29.8310    5.7710 O.co2  18  GLU18      -0.2457
     18  OE2      -12.9900  -30.5470    7.6880 O.co2  18  GLU18      -0.2457
     19  N         -7.0160  -29.9360   10.3610 N.am   19  GLY19      -0.1940
     20  CA        -5.9470  -30.6710   11.0320 C.3    19  GLY19       0.2014
     21  C         -6.3540  -32.0820   11.3940 C.2    19  GLY19       0.2639
     22  O         -5.6130  -33.0360   11.1310 O.2    19  GLY19      -0.2714
     23  N         -7.5510  -32.2120   11.9940 N.am   20  TYR20      -0.1959
     24  CA        -8.1360  -33.4860   12.3780 C.3    20  TYR20       0.1771
     25  C         -9.6600  -33.3940   12.2630 C.2    20  TYR20       0.2619
     26  O        -10.2460  -32.3560   12.5730 O.2    20  TYR20      -0.2715
     27  CB        -7.6870  -33.8550   13.8000 C.3    20  TYR20       0.0574
     28  CG        -8.3180  -35.1070   14.3640 C.ar   20  TYR20      -0.0198
     29  CD1       -7.7100  -36.3460   14.2070 C.ar   20  TYR20      -0.0009
     30  CD2       -9.4790  -35.0440   15.1250 C.ar   20  TYR20      -0.0009
     31  CE1       -8.2690  -37.5000   14.7480 C.ar   20  TYR20       0.0417
     32  CE2      -10.0600  -36.1890   15.6530 C.ar   20  TYR20       0.0417
     33  CZ        -9.4390  -37.4180   15.4830 C.ar   20  TYR20       0.1957
     34  OH        -9.9750  -38.5700   16.0200 O.3    20  TYR20      -0.2866
     35  N        -10.2890  -34.4740   11.7680 N.am   21  VAL21      -0.1963
     36  CA       -11.7410  -34.5690   11.5820 C.3    21  VAL21       0.1727
     37  C        -12.2060  -35.9730   11.9570 C.2    21  VAL21       0.2616
     38  O        -11.7110  -36.9260   11.3700 O.2    21  VAL21      -0.2715
     39  CB       -12.1380  -34.2510   10.1120 C.3    21  VAL21       0.0290
     40  CG1      -13.6590  -34.2370    9.9380 C.3    21  VAL21       0.0023
     41  CG2      -11.5280  -32.9360    9.6320 C.3    21  VAL21       0.0023
     42  N        -13.1700  -36.1150   12.8770 N.am   22  TYR22      -0.1960
     43  CA       -13.7220  -37.4320   13.2240 C.3    22  TYR22       0.1771
     44  C        -15.2520  -37.4050   13.0710 C.2    22  TYR22       0.2619
     45  O        -15.9110  -36.6320   13.7640 O.2    22  TYR22      -0.2715
     46  CB       -13.3180  -37.8570   14.6490 C.3    22  TYR22       0.0574
     47  CG       -13.7030  -39.2870   14.9840 C.ar   22  TYR22      -0.0198
     48  CD1      -12.9030  -40.3550   14.5980 C.ar   22  TYR22      -0.0009
     49  CD2      -14.8910  -39.5720   15.6520 C.ar   22  TYR22      -0.0009
     50  CE1      -13.2670  -41.6720   14.8760 C.ar   22  TYR22       0.0417
     51  CE2      -15.2520  -40.8820   15.9620 C.ar   22  TYR22       0.0417
     52  CZ       -14.4440  -41.9320   15.5620 C.ar   22  TYR22       0.1957
     53  OH       -14.8270  -43.2220   15.8620 O.3    22  TYR22      -0.2866
     54  N        -15.8060  -38.2510   12.1680 N.am   23  GLU23      -0.1963
     55  CA       -17.2480  -38.3500   11.9030 C.3    23  GLU23       0.1733
     56  C        -17.8270  -39.5740   12.5990 C.2    23  GLU23       0.2616
     57  O        -17.6660  -40.6900   12.1100 O.2    23  GLU23      -0.2715
     58  CB       -17.5210  -38.4060   10.3960 C.3    23  GLU23       0.0429
     59  CG       -17.2750  -37.0710    9.7140 C.3    23  GLU23       0.1163
     60  CD       -17.3880  -37.0680    8.2020 C.2    23  GLU23       0.3649
     61  OE1      -18.1450  -37.9060    7.6600 O.co2  23  GLU23      -0.2457
     62  OE2      -16.7610  -36.1930    7.5620 O.co2  23  GLU23      -0.2457
     63  N        -18.5000  -39.3560   13.7400 N.am   24  ASN24      -0.1958
     64  CA       -19.0910  -40.4170   14.5630 C.3    24  ASN24       0.1819
     65  C        -20.5280  -40.7340   14.0980 C.2    24  ASN24       0.2621
     66  O        -21.4910  -40.3000   14.7320 O.2    24  ASN24      -0.2715
     67  CB       -19.0640  -39.9780   16.0400 C.3    24  ASN24       0.1195
     68  CG       -19.5800  -40.9800   17.0310 C.2    24  ASN24       0.2630
     69  OD1      -19.8080  -42.1570   16.7240 O.2    24  ASN24      -0.2716
     70  ND2      -19.7890  -40.5160   18.2480 N.am   24  ASN24      -0.0877
     71  N        -20.6680  -41.5260   13.0110 N.am   25  ARG25      -0.1963
     72  CA       -21.9900  -41.8970   12.4810 C.3    25  ARG25       0.1729
     73  C        -22.7610  -42.8290   13.4360 C.2    25  ARG25       0.2617
     74  O        -23.9900  -42.8820   13.3560 O.2    25  ARG25      -0.2715
     75  CB       -21.8980  -42.5310   11.0710 C.3    25  ARG25       0.0348
     76  CG       -22.2170  -41.5080    9.9880 C.3    25  ARG25       0.0492
     77  CD       -21.8670  -41.8760    8.5500 C.3    25  ARG25       0.2205
     78  NE       -22.0710  -40.7190    7.6680 N.pl3  25  ARG25      -0.0865
     79  CZ       -21.2540  -39.6670    7.5620 C.cat  25  ARG25       0.5346
     80  NH1      -20.1270  -39.6130    8.2690 N.pl3  25  ARG25       0.1354
     81  NH2      -21.5540  -38.6620    6.7470 N.pl3  25  ARG25       0.1354
     82  N        -22.0570  -43.5180   14.3310 N.am   26  GLY26      -0.1940
     83  CA       -22.6790  -44.4250   15.2870 C.3    26  GLY26       0.2014
     84  C        -23.1470  -43.7960   16.5800 C.2    26  GLY26       0.2640
     85  O        -22.6640  -42.7300   16.9710 O.2    26  GLY26      -0.2714
     86  N        -24.0790  -44.4920   17.2730 N.am   27  SER27      -0.1935
     87  CA       -24.5890  -44.0830   18.5890 C.3    27  SER27       0.2055
     88  C        -23.4980  -44.3230   19.6420 C.2    27  SER27       0.2643
     89  O        -22.6380  -45.1840   19.4400 O.2    27  SER27      -0.2714
     90  CB       -25.8600  -44.8470   18.9420 C.3    27  SER27       0.2130
     91  OG       -25.6830  -46.2430   18.7630 O.3    27  SER27      -0.2179
     92  N        -23.5320  -43.5690   20.7580 N.am   28  THR28      -0.1950
     93  CA       -22.5270  -43.5670   21.8340 C.3    28  THR28       0.1897
     94  C        -21.1740  -43.0280   21.3150 C.2    28  THR28       0.2313
     95  O        -20.9110  -43.0280   20.1110 O.2    28  THR28      -0.2863
     96  CB       -22.3750  -44.9390   22.5130 C.3    28  THR28       0.1794
     97  OG1      -21.7620  -45.8800   21.6330 O.3    28  THR28      -0.2208
     98  CG2      -23.6950  -45.4790   23.0270 C.3    28  THR28       0.0378
     99  N        -17.1170  -42.8870   20.6260 N.3    30  VAL30      -0.1245
    100  CA       -15.9750  -43.7600   20.2970 C.3    30  VAL30       0.1561
    101  C        -14.6890  -42.9530   20.5290 C.2    30  VAL30       0.2260
    102  O        -14.6570  -41.7620   20.2040 O.2    30  VAL30      -0.2867
    103  CB       -16.0560  -44.3100   18.8500 C.3    30  VAL30       0.0252
    104  CG1      -14.7660  -45.0480   18.4640 C.3    30  VAL30       0.0019
    105  CG2      -17.2790  -45.2160   18.6800 C.3    30  VAL30       0.0019
    106  N         -4.8030  -38.6870   19.3780 N.3    34  ILE34      -0.1245
    107  CA        -4.3460  -37.6210   18.4810 C.3    34  ILE34       0.1561
    108  C         -3.3110  -36.7610   19.2170 C.2    34  ILE34       0.2260
    109  O         -3.5000  -36.3990   20.3780 O.2    34  ILE34      -0.2867
    110  CB        -5.5190  -36.7690   17.8970 C.3    34  ILE34       0.0252
    111  CG1       -5.0220  -35.6650   16.9170 C.3    34  ILE34       0.0019
    112  CG2       -6.4030  -36.1670   18.9940 C.3    34  ILE34       0.0019
    113  CD1       -4.3840  -36.1740   15.5960 C.3    34  ILE34       0.0001
    114  N         -0.3000  -33.4460   18.3850 N.3    36  ILE36      -0.1245
    115  CA         0.1980  -32.3970   17.4970 C.3    36  ILE36       0.1561
    116  C          1.4910  -31.8270   18.0650 C.2    36  ILE36       0.2260
    117  O          1.8420  -32.1110   19.2030 O.2    36  ILE36      -0.2867
    118  CB        -0.8740  -31.2900   17.2930 C.3    36  ILE36       0.0252
    119  CG1       -1.1350  -30.4670   18.5830 C.3    36  ILE36       0.0019
    120  CG2       -2.1760  -31.9000   16.7570 C.3    36  ILE36       0.0019
    121  CD1       -1.6590  -29.0920   18.3130 C.3    36  ILE36       0.0001
    122  N         -6.7070  -26.3960   11.8000 N.3   113  GLN113     -0.1245
    123  CA        -5.2700  -26.1400   11.9920 C.3   113  GLN113      0.1566
    124  C         -4.8050  -24.8840   11.2430 C.2   113  GLN113      0.2260
    125  O         -4.8090  -24.8700   10.0190 O.2   113  GLN113     -0.2867
    126  CB        -4.4350  -27.3630   11.5110 C.3   113  GLN113      0.0367
    127  CG        -2.9100  -27.1300   11.4170 C.3   113  GLN113      0.0905
    128  CD        -2.1250  -28.3640   11.0370 C.2   113  GLN113      0.2608
    129  OE1       -2.6670  -29.4590   10.8550 O.2   113  GLN113     -0.2717
    130  NE2       -0.8140  -28.2160   10.9270 N.am  113  GLN113     -0.0878
    131  N          3.8780  -24.2970   12.2870 N.3   124  GLU124     -0.1231
    132  CA         2.7650  -25.2370   12.2810 C.3   124  GLU124      0.1699
    133  C          1.9630  -25.1490   13.5630 C.2   124  GLU124      0.2592
    134  O          2.5260  -24.9610   14.6300 O.2   124  GLU124     -0.2718
    135  CB         3.2820  -26.6720   12.0880 C.3   124  GLU124      0.0402
    136  CG         3.7010  -26.9680   10.6600 C.3   124  GLU124      0.1161
    137  CD         2.5300  -27.0820    9.7060 C.2   124  GLU124      0.3649
    138  OE1        1.6860  -27.9890    9.8970 O.co2 124  GLU124     -0.2457
    139  OE2        2.4150  -26.2120    8.8140 O.co2 124  GLU124     -0.2457
    140  N          0.6490  -25.3230   13.4460 N.am  125  TYR125     -0.1976
    141  CA        -0.3210  -25.3010   14.5370 C.3   125  TYR125      0.1639
    142  C         -0.2010  -24.0310   15.3910 C.2   125  TYR125      0.2290
    143  O         -0.2110  -24.1030   16.6130 O.2   125  TYR125     -0.2864
    144  CB        -0.2140  -26.5820   15.3950 C.3   125  TYR125      0.0560
    145  CG        -1.1050  -27.7060   14.9170 C.ar  125  TYR125     -0.0198
    146  CD1       -2.4830  -27.6600   15.1060 C.ar  125  TYR125     -0.0009
    147  CD2       -0.5650  -28.8470   14.3330 C.ar  125  TYR125     -0.0009
    148  CE1       -3.3050  -28.7070   14.6970 C.ar  125  TYR125      0.0417
    149  CE2       -1.3780  -29.9080   13.9320 C.ar  125  TYR125      0.0417
    150  CZ        -2.7500  -29.8290   14.1050 C.ar  125  TYR125      0.1957
    151  OH        -3.5720  -30.8590   13.7140 O.3   125  TYR125     -0.2866
@<TRIPOS>BOND
     1    17    16   ar
     2     8     9    1
     3     8     7    1
     4     6     7    1
     5     6     5    1
     6    81    79    1
     7    16    18   ar
     8    16    15    1
     9     5     2    1
    10     2     1    1
    11     2     3    1
    12    62    60   ar
    13    79    78    2
    14    79    80    1
    15    61    60   ar
    16    78    77    1
    17    10     3   am
    18    10    11    1
    19    15    14    1
    20    14    11    1
    21    60    59    1
    22     3     4    2
    23    13    12    2
    24    77    76    1
    25    11    12    1
    26   139   137   ar
    27    12    19   am
    28    41    39    1
    29   137   138   ar
    30   137   136    1
    31    59    58    1
    32    40    39    1
    33    76    75    1
    34   125   124    2
    35    39    36    1
    36    19    20    1
    37    58    55    1
    38   136   135    1
    39   129   128    2
    40   130   128   am
    41    20    21    1
    42   128   127    1
    43    75    72    1
    44    22    21    2
    45   124   123    1
    46    38    37    2
    47    21    23   am
    48   127   126    1
    49   126   123    1
    50    36    35    1
    51    36    37    1
    52    35    25   am
    53   122   123    1
    54    55    54    1
    55    55    56    1
    56    37    42   am
    57    23    24    1
    58   135   132    1
    59    57    56    2
    60    54    44   am
    61    25    24    1
    62    25    26    2
    63   132   131    1
    64   132   133    1
    65    24    27    1
    66    72    71    1
    67    72    73    1
    68    56    63   am
    69    42    43    1
    70    71    65   am
    71    44    43    1
    72    44    45    2
    73    43    46    1
    74    74    73    2
    75    73    82   am
    76   140   133   am
    77   140   141    1
    78   133   134    2
    79   151   150    1
    80    63    64    1
    81    27    28    1
    82   149   150   ar
    83   149   147   ar
    84    65    64    1
    85    65    66    2
    86   150   148   ar
    87    29    28   ar
    88    29    31   ar
    89    82    83    1
    90   147   145   ar
    91    28    30   ar
    92   141   142    1
    93   141   144    1
    94    64    67    1
    95    48    50   ar
    96    48    47   ar
    97    46    47    1
    98   148   146   ar
    99    31    33   ar
   100    50    52   ar
   101   145   146   ar
   102   145   144    1
   103    47    49   ar
   104    30    32   ar
   105    83    84    1
   106   142   143    2
   107    33    32   ar
   108    33    34    1
   109    52    53    1
   110    52    51   ar
   111   113   111    1
   112    49    51   ar
   113    67    68    1
   114    84    85    2
   115    84    86   am
   116    69    68    2
   117   120   118    1
   118   111   110    1
   119    68    70   am
   120    86    87    1
   121   118   115    1
   122   118   119    1
   123   115   116    1
   124   115   114    1
   125   110   107    1
   126   110   112    1
   127   116   117    2
   128   121   119    1
   129   104   103    1
   130   107   108    1
   131   107   106    1
   132    87    90    1
   133    87    88    1
   134   105   103    1
   135    91    90    1
   136   103   100    1
   137   108   109    2
   138    89    88    2
   139    88    92   am
   140    95    94    2
   141   102   101    2
   142   100   101    1
   143   100    99    1
   144    92    93    1
   145    94    93    1
   146    97    96    1
   147    93    96    1
   148    96    98    1
