@<TRIPOS>MOLECULE
tmp/3zxhB00.pdb
 135 135 0 0 0
SMALL
GASTEIGER

@<TRIPOS>ATOM
      1  N         14.4270   -2.3150   67.7950 N.3    80  GLY80      -0.1210
      2  CA        13.6970   -1.5120   66.8320 C.3    80  GLY80       0.1956
      3  C         14.5330   -0.3640   66.2880 C.2    80  GLY80       0.2612
      4  O         15.6760   -0.5630   65.8670 O.2    80  GLY80      -0.2717
      5  N         14.0010    0.8410   66.3900 N.am   81  LEU81      -0.1965
      6  CA        14.7030    2.0390   65.9410 C.3    81  LEU81       0.1728
      7  C         15.9780    2.2280   66.7520 C.2    81  LEU81       0.2616
      8  O         15.9460    2.1120   67.9960 O.2    81  LEU81      -0.2715
      9  CB        13.8410    3.2700   66.1570 C.3    81  LEU81       0.0311
     10  CG        12.5530    3.3370   65.3940 C.3    81  LEU81       0.0022
     11  CD1       11.6980    4.4600   65.9320 C.3    81  LEU81       0.0001
     12  CD2       12.8070    3.5320   63.9000 C.3    81  LEU81       0.0001
     13  N         17.0810    2.5130   66.1020 N.am   82  LEU82      -0.1963
     14  CA        18.3670    2.7450   66.7620 C.3    82  LEU82       0.1728
     15  C         18.7390    4.2230   66.7950 C.2    82  LEU82       0.2616
     16  O         19.3510    4.6980   67.7690 O.2    82  LEU82      -0.2715
     17  CB        19.5090    1.9860   66.0630 C.3    82  LEU82       0.0311
     18  CG        19.2760    0.4990   65.8020 C.3    82  LEU82       0.0022
     19  CD1       20.4970   -0.0510   65.0790 C.3    82  LEU82       0.0001
     20  CD2       18.9680   -0.2720   67.1050 C.3    82  LEU82       0.0001
     21  N         18.4940    4.9110   65.6850 N.am   83  ALA83      -0.1963
     22  CA        19.0270    6.2340   65.4650 C.3    83  ALA83       0.1728
     23  C         18.3940    6.7700   64.2040 C.2    83  ALA83       0.2616
     24  O         17.9990    5.9960   63.3210 O.2    83  ALA83      -0.2715
     25  CB        20.5420    6.1880   65.3140 C.3    83  ALA83       0.0334
     26  N         18.3390    8.0950   64.0960 N.am   84  HIS84      -0.1973
     27  CA        17.9300    8.7220   62.8640 C.3    84  HIS84       0.1656
     28  C         18.6560   10.0360   62.6730 C.2    84  HIS84       0.2291
     29  O         19.1130   10.6630   63.6530 O.2    84  HIS84      -0.2864
     30  CB        16.4090    8.8860   62.7490 C.3    84  HIS84       0.0771
     31  CG        15.7660    9.6430   63.8810 C.ar   84  HIS84       0.0820
     32  ND1       14.5620    9.2480   64.4230 N.ar   84  HIS84      -0.2267
     33  CD2       16.0980   10.7920   64.5170 C.ar   84  HIS84       0.1154
     34  CE1       14.2060   10.0970   65.3820 C.ar   84  HIS84       0.1986
     35  NE2       15.1260   11.0350   65.4670 N.ar   84  HIS84      -0.2212
     36  N         30.1530    2.5520   64.2910 N.3   115  LEU115     -0.1231
     37  CA        29.5600    2.0470   63.0370 C.3   115  LEU115      0.1693
     38  C         28.1960    2.6360   62.7680 C.2   115  LEU115      0.2591
     39  O         27.8720    3.0500   61.6510 O.2   115  LEU115     -0.2718
     40  CB        29.4520    0.5240   63.0630 C.3   115  LEU115      0.0284
     41  CG        30.7780   -0.2470   63.0740 C.3   115  LEU115      0.0019
     42  CD1       30.5230   -1.7150   63.3580 C.3   115  LEU115      0.0001
     43  CD2       31.4920   -0.0600   61.7490 C.3   115  LEU115      0.0001
     44  N         27.3530    2.6860   63.7940 N.am  116  VAL116     -0.1980
     45  CA        26.0250    3.2610   63.6200 C.3   116  VAL116      0.1595
     46  C         26.1150    4.7540   63.2800 C.2   116  VAL116      0.2287
     47  O         25.4100    5.2420   62.3690 O.2   116  VAL116     -0.2864
     48  CB        25.1320    2.9970   64.8430 C.3   116  VAL116      0.0276
     49  CG1       23.7960    3.7000   64.6840 C.3   116  VAL116      0.0022
     50  CG2       24.9220    1.5060   64.9670 C.3   116  VAL116      0.0022
     51  N         27.1060    5.4230   59.6150 N.3   119  HIS119     -0.1226
     52  CA        25.9000    5.3240   58.7970 C.3   119  HIS119      0.1752
     53  C         25.0420    6.5820   58.9430 C.2   119  HIS119      0.2595
     54  O         24.6180    7.1670   57.9670 O.2   119  HIS119     -0.2718
     55  CB        25.1780    4.0270   59.1860 C.3   119  HIS119      0.0759
     56  CG        23.8000    3.8720   58.6100 C.ar  119  HIS119      0.0818
     57  ND1       23.4810    2.9210   57.6740 N.ar  119  HIS119     -0.2268
     58  CD2       22.6400    4.4970   58.9190 C.ar  119  HIS119      0.1154
     59  CE1       22.1840    2.9920   57.4080 C.ar  119  HIS119      0.1986
     60  NE2       21.6380    3.9350   58.1620 N.ar  119  HIS119     -0.2212
     61  N         24.7860    7.0070   60.1700 N.am  120  GLU120     -0.1979
     62  CA        23.9670    8.2050   60.3720 C.3   120  GLU120      0.1602
     63  C         24.5470    9.4230   59.6650 C.2   120  GLU120      0.2287
     64  O         23.8170   10.1920   59.0210 O.2   120  GLU120     -0.2864
     65  CB        23.7860    8.5460   61.8600 C.3   120  GLU120      0.0415
     66  CG        23.0120    7.5290   62.6550 C.3   120  GLU120      0.1163
     67  CD        21.6740    7.2740   62.0140 C.2   120  GLU120      0.3649
     68  OE1       20.8160    8.1530   61.9460 O.co2 120  GLU120     -0.2457
     69  OE2       21.4810    6.1320   61.5010 O.co2 120  GLU120     -0.2457
     70  N         23.7200    9.8100   56.0850 N.3   123  HIS123     -0.1241
     71  CA        22.4490   10.5340   55.8810 C.3   123  HIS123      0.1621
     72  C         22.6310   12.0340   56.0670 C.2   123  HIS123      0.2264
     73  O         22.1490   12.8190   55.2560 O.2   123  HIS123     -0.2867
     74  CB        21.3780   10.0680   56.8610 C.3   123  HIS123      0.0745
     75  CG        20.9540    8.6330   56.7280 C.ar  123  HIS123      0.0817
     76  ND1       20.5820    8.0520   55.5290 N.ar  123  HIS123     -0.2268
     77  CD2       20.7050    7.7000   57.6790 C.ar  123  HIS123      0.1154
     78  CE1       20.1820    6.8130   55.7600 C.ar  123  HIS123      0.1986
     79  NE2       20.2300    6.5740   57.0620 N.ar  123  HIS123     -0.2212
     80  N         19.6640    5.0750   51.9280 N.3   129  HIS129     -0.1241
     81  CA        20.0770    3.6950   52.0830 C.3   129  HIS129      0.1621
     82  C         20.5120    3.0710   50.7760 C.2   129  HIS129      0.2264
     83  O         19.9130    3.3070   49.7200 O.2   129  HIS129     -0.2867
     84  CB        18.9480    2.8910   52.7070 C.3   129  HIS129      0.0745
     85  CG        18.7580    3.2240   54.1450 C.ar  129  HIS129      0.0817
     86  ND1       17.5310    3.2750   54.7670 N.ar  129  HIS129     -0.2268
     87  CD2       19.6710    3.5840   55.0860 C.ar  129  HIS129      0.1154
     88  CE1       17.6930    3.6160   56.0360 C.ar  129  HIS129      0.1986
     89  NE2       18.9800    3.8430   56.2500 N.ar  129  HIS129     -0.2212
     90  N         27.9790    0.2770   54.0460 N.3   136  LEU136     -0.1245
     91  CA        27.7070    0.9500   55.3100 C.3   136  LEU136      0.1561
     92  C         26.2640    1.5040   55.3700 C.2   136  LEU136      0.2260
     93  O         25.5920    1.4350   56.3990 O.2   136  LEU136     -0.2867
     94  CB        28.7350    2.0610   55.5630 C.3   136  LEU136      0.0270
     95  CG        28.5150    2.9180   56.8160 C.3   136  LEU136      0.0019
     96  CD1       28.5640    2.0830   58.0870 C.3   136  LEU136      0.0001
     97  CD2       29.5380    4.0090   56.8640 C.3   136  LEU136      0.0001
     98  N         23.6920    0.2660   54.0320 N.3   138  PHE138     -0.1228
     99  CA        22.6540   -0.7680   54.0560 C.3   138  PHE138      0.1721
    100  C         22.0270   -0.7800   55.4380 C.2   138  PHE138      0.2437
    101  O         22.7330   -0.8080   56.4140 O.2   138  PHE138     -0.2733
    102  CB        23.2810   -2.1280   53.7620 C.3   138  PHE138      0.0547
    103  CG        22.2930   -3.2400   53.5340 C.ar  138  PHE138     -0.0202
    104  CD1       21.5590   -3.2780   52.3660 C.ar  138  PHE138     -0.0042
    105  CD2       22.1680   -4.2580   54.4360 C.ar  138  PHE138     -0.0042
    106  CE1       20.6970   -4.3160   52.1220 C.ar  138  PHE138     -0.0003
    107  CE2       21.3050   -5.3200   54.1980 C.ar  138  PHE138     -0.0003
    108  CZ        20.5630   -5.3300   53.0640 C.ar  138  PHE138     -0.0000
    109  N         20.6980   -0.7940   55.5520 N.am  139  PRO139     -0.2718
    110  CA        20.0470   -0.5740   56.8490 C.3   139  PRO139      0.1535
    111  C         19.8080   -1.8120   57.7130 C.2   139  PRO139      0.2598
    112  O         18.8400   -1.8610   58.4930 O.2   139  PRO139     -0.2715
    113  CB        18.7250    0.0740   56.4380 C.3   139  PRO139      0.0310
    114  CG        18.4070   -0.5100   55.1850 C.3   139  PRO139      0.0237
    115  CD        19.7310   -0.6560   54.4570 C.3   139  PRO139      0.0939
    116  N         20.7050   -2.7650   57.6470 N.am  140  ILE140     -0.1964
    117  CA        20.7550   -3.8560   58.6070 C.3   140  ILE140      0.1727
    118  C         22.1160   -3.7770   59.3090 C.2   140  ILE140      0.2616
    119  O         23.1470   -3.6470   58.6440 O.2   140  ILE140     -0.2715
    120  CB        20.5690   -5.2290   57.9230 C.3   140  ILE140      0.0290
    121  CG1       19.2250   -5.2780   57.2130 C.3   140  ILE140      0.0022
    122  CG2       20.7000   -6.3630   58.9590 C.3   140  ILE140      0.0023
    123  CD1       18.9140   -6.6320   56.6070 C.3   140  ILE140      0.0001
    124  N         22.1380   -3.8340   60.6410 N.am  141  TYR141     -0.1974
    125  CA        23.3560   -3.7650   61.4160 C.3   141  TYR141      0.1639
    126  C         24.0310   -5.1170   61.4910 C.2   141  TYR141      0.2290
    127  O         23.4350   -6.1160   61.8930 O.2   141  TYR141     -0.2864
    128  CB        23.0570   -3.2610   62.8340 C.3   141  TYR141      0.0560
    129  CG        24.2580   -3.2540   63.7530 C.ar  141  TYR141     -0.0198
    130  CD1       25.1240   -2.1840   63.7670 C.ar  141  TYR141     -0.0009
    131  CD2       24.5240   -4.3110   64.5730 C.ar  141  TYR141     -0.0009
    132  CE1       26.2010   -2.1600   64.6150 C.ar  141  TYR141      0.0417
    133  CE2       25.6310   -4.3140   65.4210 C.ar  141  TYR141      0.0417
    134  CZ        26.4610   -3.2290   65.4250 C.ar  141  TYR141      0.1957
    135  OH        27.5230   -3.2320   66.3310 O.3   141  TYR141     -0.2866
@<TRIPOS>BOND
     1    83    82    2
     2    82    81    1
     3    80    81    1
     4    81    84    1
     5   106   104   ar
     6   106   108   ar
     7   104   103   ar
     8    84    85    1
     9   108   107   ar
    10   103   102    1
    11   103   105   ar
    12   102    99    1
    13    98    99    1
    14    90    91    1
    15    99   100    1
    16    85    86   ar
    17    85    87   ar
    18   107   105   ar
    19   115   114    1
    20   115   109    1
    21    86    88   ar
    22    87    89   ar
    23   114   113    1
    24    73    72    2
    25    91    92    1
    26    91    94    1
    27    92    93    2
    28   100   109   am
    29   100   101    2
    30    76    78   ar
    31    76    75   ar
    32   109   110    1
    33    94    95    1
    34    78    79   ar
    35    71    72    1
    36    71    70    1
    37    71    74    1
    38    88    89   ar
    39   113   110    1
    40   123   121    1
    41    75    74    1
    42    75    77   ar
    43    95    97    1
    44    95    96    1
    45   110   111    1
    46    79    77   ar
    47   121   120    1
    48    59    57   ar
    49    59    60   ar
    50   116   111   am
    51   116   117    1
    52    57    56   ar
    53   111   112    2
    54   120   117    1
    55   120   122    1
    56    54    53    2
    57    60    58   ar
    58   117   118    1
    59    56    58   ar
    60    56    55    1
    61   119   118    2
    62    52    53    1
    63    52    55    1
    64    52    51    1
    65    53    61   am
    66    64    63    2
    67   118   124   am
    68    63    62    1
    69    61    62    1
    70    62    65    1
    71   124   125    1
    72   125   126    1
    73   125   128    1
    74   126   127    2
    75    69    67   ar
    76    39    38    2
    77    43    41    1
    78    65    66    1
    79    68    67   ar
    80    67    66    1
    81    47    46    2
    82    28    27    1
    83    28    29    2
    84    30    27    1
    85    30    31    1
    86    38    37    1
    87    38    44   am
    88   128   129    1
    89    27    26    1
    90    37    40    1
    91    37    36    1
    92    40    41    1
    93    41    42    1
    94    46    45    1
    95    24    23    2
    96    45    44    1
    97    45    48    1
    98   129   130   ar
    99   129   131   ar
   100   130   132   ar
   101    31    32   ar
   102    31    33   ar
   103    12    10    1
   104    26    23   am
   105    23    22    1
   106    32    34   ar
   107    33    35   ar
   108   131   133   ar
   109   132   134   ar
   110    49    48    1
   111    48    50    1
   112    19    18    1
   113    25    22    1
   114    34    35   ar
   115    10    11    1
   116    10     9    1
   117   133   134   ar
   118   134   135    1
   119    22    21    1
   120    21    15   am
   121    18    17    1
   122    18    20    1
   123     4     3    2
   124     6     9    1
   125     6     5    1
   126     6     7    1
   127    17    14    1
   128    13     7   am
   129    13    14    1
   130     3     5   am
   131     3     2    1
   132     7     8    2
   133    14    15    1
   134    15    16    2
   135     2     1    1
