@<TRIPOS>MOLECULE
tmp/3zxiB00.pdb
 213 202 0 0 0
SMALL
GASTEIGER

@<TRIPOS>ATOM
      1  N          9.3330   -0.9960   68.3330 N.3    22  TYR22      -0.1227
      2  CA        10.5270   -1.2140   67.5350 C.3    22  TYR22       0.1736
      3  C         11.2870    0.0230   67.1240 C.2    22  TYR22       0.2596
      4  O         10.7510    1.1260   67.0850 O.2    22  TYR22      -0.2718
      5  CB        10.2070   -2.0570   66.3100 C.3    22  TYR22       0.0548
      6  CG         9.9380   -1.3250   65.0040 C.ar   22  TYR22      -0.0200
      7  CD1       10.9750   -1.0220   64.1220 C.ar   22  TYR22      -0.0009
      8  CD2        8.6370   -1.0150   64.6130 C.ar   22  TYR22      -0.0009
      9  CE1       10.7250   -0.3950   62.8970 C.ar   22  TYR22       0.0417
     10  CE2        8.3760   -0.3980   63.4040 C.ar   22  TYR22       0.0417
     11  CZ         9.4210   -0.0890   62.5450 C.ar   22  TYR22       0.1957
     12  OH         9.1600    0.5340   61.3410 O.3    22  TYR22      -0.2866
     13  N         12.5570   -0.1960   66.8300 N.am   23  CYS23      -0.1956
     14  CA        13.4220    0.8390   66.3230 C.3    23  CYS23       0.1843
     15  C         14.4260    0.2090   65.3570 C.2    23  CYS23       0.2626
     16  O         14.9640   -0.8730   65.6200 O.2    23  CYS23      -0.2714
     17  CB        14.1510    1.5210   67.4740 C.3    23  CYS23       0.0997
     18  SG        15.4160    2.6290   66.8890 S.3    23  CYS23      -0.0797
     19  N         14.6740    0.8930   64.2450 N.am   24  GLY24      -0.1940
     20  CA        15.5720    0.4050   63.2130 C.3    24  GLY24       0.2014
     21  C         16.9540    1.0360   63.2390 C.2    24  GLY24       0.2639
     22  O         17.1320    2.2030   63.6360 O.2    24  GLY24      -0.2714
     23  N         17.9390    0.2570   62.7960 N.am   25  PHE25      -0.1959
     24  CA        19.3260    0.6940   62.8120 C.3    25  PHE25       0.1771
     25  C         19.9880    0.3230   61.5280 C.2    25  PHE25       0.2619
     26  O         20.3290   -0.8310   61.3470 O.2    25  PHE25      -0.2715
     27  CB        20.0640    0.0050   63.9430 C.3    25  PHE25       0.0574
     28  CG        19.4680    0.2660   65.2760 C.ar   25  PHE25      -0.0200
     29  CD1       18.4040   -0.4900   65.7130 C.ar   25  PHE25      -0.0042
     30  CD2       19.9490    1.2950   66.0870 C.ar   25  PHE25      -0.0042
     31  CE1       17.8250   -0.2430   66.9540 C.ar   25  PHE25      -0.0003
     32  CE2       19.3820    1.5480   67.3260 C.ar   25  PHE25      -0.0003
     33  CZ        18.3120    0.7780   67.7560 C.ar   25  PHE25      -0.0000
     34  N         20.1810    1.2990   60.6450 N.am   26  ASP26      -0.1971
     35  CA        20.7360    1.0230   59.3220 C.3    26  ASP26       0.1709
     36  C         22.2100    0.6310   59.3690 C.2    26  ASP26       0.2293
     37  O         23.0530    1.3980   59.8220 O.2    26  ASP26      -0.2864
     38  CB        20.4770    2.1870   58.3420 C.3    26  ASP26       0.1436
     39  CG        19.3670    1.8570   57.3280 C.2    26  ASP26       0.3671
     40  OD1       18.6430    0.8540   57.5370 O.co2  26  ASP26      -0.2456
     41  OD2       19.2200    2.5780   56.3250 O.co2  26  ASP26      -0.2456
     42  N         24.8220    0.8440   57.8320 N.3    28  THR28      -0.1218
     43  CA        25.6670    1.5990   56.9140 C.3    28  THR28       0.1862
     44  C         27.1070    1.6070   57.4040 C.2    28  THR28       0.2287
     45  O         27.9940    2.1740   56.7690 O.2    28  THR28      -0.2866
     46  CB        25.1720    3.0510   56.7500 C.3    28  THR28       0.1770
     47  OG1       25.2420    3.7290   58.0050 O.3    28  THR28      -0.2211
     48  CG2       23.7290    3.0690   56.2340 C.3    28  THR28       0.0375
     49  N         27.2020    3.4090   67.2020 N.3    33  HIS33      -0.1241
     50  CA        27.9300    4.4740   67.8650 C.3    33  HIS33       0.1621
     51  C         27.0640    5.0670   68.9680 C.2    33  HIS33       0.2264
     52  O         25.8870    4.7270   69.1010 O.2    33  HIS33      -0.2867
     53  CB        28.3460    5.5410   66.8510 C.3    33  HIS33       0.0745
     54  CG        27.1900    6.2380   66.2090 C.ar   33  HIS33       0.0817
     55  ND1       26.1630    6.8030   66.9350 N.ar   33  HIS33      -0.2268
     56  CD2       26.8930    6.4520   64.9070 C.ar   33  HIS33       0.1154
     57  CE1       25.2860    7.3450   66.1060 C.ar   33  HIS33       0.1986
     58  NE2       25.7050    7.1440   64.8700 N.ar   33  HIS33      -0.2212
     59  N         25.3930    7.6360   69.5360 N.3    35  GLY35      -0.1210
     60  CA        24.0770    8.1390   69.1920 C.3    35  GLY35       0.1956
     61  C         23.0530    7.0270   69.0940 C.2    35  GLY35       0.2611
     62  O         21.9510    7.1430   69.6260 O.2    35  GLY35      -0.2717
     63  N         23.4140    5.9470   68.4070 N.am   36  HIS36      -0.1975
     64  CA        22.5560    4.7640   68.3410 C.3    36  HIS36       0.1656
     65  C         22.1990    4.2880   69.7380 C.2    36  HIS36       0.2291
     66  O         21.1040    3.7800   69.9940 O.2    36  HIS36      -0.2864
     67  CB        23.2710    3.6380   67.6030 C.3    36  HIS36       0.0771
     68  CG        23.6800    4.0020   66.2110 C.ar   36  HIS36       0.0820
     69  ND1       22.9000    4.7930   65.3930 N.ar   36  HIS36      -0.2267
     70  CD2       24.7890    3.6960   65.4980 C.ar   36  HIS36       0.1154
     71  CE1       23.5100    4.9550   64.2330 C.ar   36  HIS36       0.1986
     72  NE2       24.6550    4.2980   64.2700 N.ar   36  HIS36      -0.2212
     73  N         21.4940    5.8520   72.3880 N.3    38  LEU38      -0.1231
     74  CA        20.3450    6.5490   72.9460 C.3    38  LEU38       0.1693
     75  C         19.0070    5.9420   72.5070 C.2    38  LEU38       0.2591
     76  O         18.1320    5.7050   73.3280 O.2    38  LEU38      -0.2718
     77  CB        20.4160    8.0300   72.5600 C.3    38  LEU38       0.0284
     78  CG        19.7640    9.0170   73.5200 C.3    38  LEU38       0.0019
     79  CD1       20.1750    8.6460   74.9040 C.3    38  LEU38       0.0001
     80  CD2       20.1850   10.4400   73.2090 C.3    38  LEU38       0.0001
     81  N         18.8430    5.7030   71.2120 N.am   39  ALA39      -0.1980
     82  CA        17.6340    5.0360   70.7110 C.3    39  ALA39       0.1597
     83  C         17.4670    3.6440   71.3010 C.2    39  ALA39       0.2287
     84  O         16.3610    3.2270   71.6480 O.2    39  ALA39      -0.2864
     85  CB        17.6680    4.9260   69.2070 C.3    39  ALA39       0.0319
     86  N         15.5430   -3.6490   65.0120 N.3    56  LEU56      -0.1245
     87  CA        15.5840   -4.0410   63.6010 C.3    56  LEU56       0.1561
     88  C         16.8470   -3.6080   62.8580 C.2    56  LEU56       0.2260
     89  O         17.2350   -2.4370   62.8960 O.2    56  LEU56      -0.2867
     90  CB        14.3780   -3.4520   62.8820 C.3    56  LEU56       0.0270
     91  CG        14.2280   -3.8450   61.4210 C.3    56  LEU56       0.0019
     92  CD1       14.1080   -5.3540   61.2690 C.3    56  LEU56       0.0001
     93  CD2       13.0100   -3.1650   60.8620 C.3    56  LEU56       0.0001
     94  N         18.5680   -2.7990   59.2610 N.3    58  GLY58      -0.1225
     95  CA        18.1160   -2.3670   57.9430 C.3    58  GLY58       0.1811
     96  C         18.9630   -2.9080   56.8080 C.2    58  GLY58       0.2280
     97  O         19.5230   -2.1320   56.0320 O.2    58  GLY58      -0.2866
     98  N         17.2750   -1.5380   53.6300 N.3    61  THR61      -0.1218
     99  CA        17.2200   -0.0740   53.5500 C.3    61  THR61       0.1862
    100  C         18.5730    0.6350   53.5330 C.2    61  THR61       0.2287
    101  O         18.6570    1.7900   53.1410 O.2    61  THR61      -0.2866
    102  CB        16.3660    0.5320   54.6920 C.3    61  THR61       0.1770
    103  OG1       16.6250   -0.1820   55.9010 O.3    61  THR61      -0.2211
    104  CG2       14.8830    0.4350   54.3750 C.3    61  THR61       0.0375
    105  N         19.2200    6.3740   54.2230 N.3    66  ASP66      -0.1239
    106  CA        18.2390    7.3560   54.7120 C.3    66  ASP66       0.1674
    107  C         18.5600    8.8000   54.2750 C.2    66  ASP66       0.2266
    108  O         19.6380    9.3390   54.5730 O.2    66  ASP66      -0.2867
    109  CB        18.1110    7.2870   56.2340 C.3    66  ASP66       0.1410
    110  CG        16.7640    7.7960   56.7270 C.2    66  ASP66       0.3668
    111  OD1       16.0740    8.5270   55.9780 O.co2  66  ASP66      -0.2456
    112  OD2       16.3880    7.4570   57.8660 O.co2  66  ASP66      -0.2456
    113  N         15.0560   -6.5550   58.0140 N.3   118  ASN118     -0.1240
    114  CA        14.0740   -6.3630   56.9210 C.3   118  ASN118      0.1653
    115  C         14.4240   -7.0060   55.5580 C.2   118  ASN118      0.2266
    116  O         13.5520   -7.1980   54.7070 O.2   118  ASN118     -0.2867
    117  CB        13.6920   -4.8780   56.7400 C.3   118  ASN118      0.1155
    118  CG        14.8980   -3.9520   56.6440 C.2   118  ASN118      0.2627
    119  OD1       16.0170   -4.3780   56.3380 O.2   118  ASN118     -0.2716
    120  ND2       14.6670   -2.6690   56.9080 N.am  118  ASN118     -0.0877
    121  N         12.8540    5.5690   49.8490 N.3   166  TYR166     -0.1241
    122  CA        13.2840    5.1270   51.1660 C.3   166  TYR166      0.1605
    123  C         12.1920    5.1780   52.2220 C.2   166  TYR166      0.2264
    124  O         11.9500    4.1880   52.9120 O.2   166  TYR166     -0.2867
    125  CB        14.4550    5.9610   51.6390 C.3   166  TYR166      0.0534
    126  CG        15.1100    5.3890   52.8650 C.ar  166  TYR166     -0.0201
    127  CD1       14.5590    5.5790   54.1350 C.ar  166  TYR166     -0.0009
    128  CD2       16.2860    4.6580   52.7600 C.ar  166  TYR166     -0.0009
    129  CE1       15.1680    5.0630   55.2630 C.ar  166  TYR166      0.0417
    130  CE2       16.9040    4.1230   53.8850 C.ar  166  TYR166      0.0417
    131  CZ        16.3400    4.3220   55.1340 C.ar  166  TYR166      0.1957
    132  OH        16.9580    3.7820   56.2520 O.3   166  TYR166     -0.2866
    133  N         10.4710    1.9430   55.0230 N.3   170  GLN170     -0.1245
    134  CA        10.2740    2.1500   56.4640 C.3   170  GLN170      0.1566
    135  C          8.7980    2.1520   56.8760 C.2   170  GLN170      0.2260
    136  O          8.4360    1.5940   57.9110 O.2   170  GLN170     -0.2867
    137  CB        10.9580    3.4550   56.9280 C.3   170  GLN170      0.0367
    138  CG        10.8100    3.7620   58.4120 C.3   170  GLN170      0.0905
    139  CD        12.0150    4.5030   58.9830 C.2   170  GLN170      0.2608
    140  OE1       13.0440    4.6440   58.3260 O.2   170  GLN170     -0.2717
    141  NE2       11.8890    4.9760   60.2120 N.am  170  GLN170     -0.0878
    142  N          7.7850   -1.4440   56.5950 N.3   173  ASP173     -0.1239
    143  CA         8.3190   -2.1690   57.7440 C.3   173  ASP173      0.1674
    144  C          7.3710   -2.1120   58.9390 C.2   173  ASP173      0.2266
    145  O          6.9200   -3.1560   59.4490 O.2   173  ASP173     -0.2867
    146  CB         9.6820   -1.6060   58.1430 C.3   173  ASP173      0.1410
    147  CG        10.7580   -1.9530   57.1510 C.2   173  ASP173      0.3668
    148  OD1       10.4520   -2.7500   56.2400 O.co2 173  ASP173     -0.2456
    149  OD2       11.8980   -1.4460   57.2800 O.co2 173  ASP173     -0.2456
    150  N          6.6150    2.5750   67.1440 N.3   186  GLN186     -0.1245
    151  CA         7.9420    2.6710   66.6000 C.3   186  GLN186      0.1566
    152  C          8.6440    3.8240   67.2870 C.2   186  GLN186      0.2260
    153  O          8.0380    4.8660   67.5560 O.2   186  GLN186     -0.2867
    154  CB         7.9020    2.8920   65.0720 C.3   186  GLN186      0.0367
    155  CG         9.2920    3.0660   64.4860 C.3   186  GLN186      0.0905
    156  CD         9.2830    3.2420   63.0040 C.2   186  GLN186      0.2608
    157  OE1       10.3420    3.3420   62.3810 O.2   186  GLN186     -0.2717
    158  NE2        8.0890    3.2790   62.4140 N.am  186  GLN186     -0.0878
    159  N         12.5350    6.0860   67.4530 N.3   188  GLY188     -0.1210
    160  CA        13.8290    6.4110   66.8740 C.3   188  GLY188      0.1956
    161  C         14.2100    7.8180   67.2930 C.2   188  GLY188      0.2612
    162  O         13.4760    8.4280   68.0640 O.2   188  GLY188     -0.2717
    163  N         15.3420    8.3240   66.7950 N.am  189  GLY189     -0.1956
    164  CA        15.7400    9.7130   66.9870 C.3   189  GLY189      0.1869
    165  C         14.6830   10.7010   66.5140 C.2   189  GLY189      0.2309
    166  O         13.6120   10.3130   66.0790 O.2   189  GLY189     -0.2863
    167  N         15.2340   12.9000   64.0570 N.3   191  ASP191     -0.1225
    168  CA        15.4070   12.8830   62.6030 C.3   191  ASP191      0.1805
    169  C         14.4750   11.9060   61.8900 C.2   191  ASP191      0.2597
    170  O         14.4090   11.8850   60.6640 O.2   191  ASP191     -0.2718
    171  CB        16.8760   12.6030   62.2210 C.3   191  ASP191      0.1424
    172  CG        17.4520   11.3550   62.8990 C.2   191  ASP191      0.3668
    173  OD1       17.1510   11.1120   64.0920 O.co2 191  ASP191     -0.2456
    174  OD2       18.2290   10.6290   62.2330 O.co2 191  ASP191     -0.2456
    175  N         13.7510   11.1100   62.6630 N.am  192  GLN192     -0.1979
    176  CA        12.9550   10.0190   62.1240 C.3   192  GLN192      0.1601
    177  C         11.4780   10.2860   62.2860 C.2   192  GLN192      0.2287
    178  O         10.6600    9.3830   62.0780 O.2   192  GLN192     -0.2864
    179  CB        13.2930    8.7170   62.8460 C.3   192  GLN192      0.0394
    180  CG        14.7420    8.2790   62.6990 C.3   192  GLN192      0.0908
    181  CD        15.0970    7.9010   61.2710 C.2   192  GLN192      0.2608
    182  OE1       14.2980    7.2760   60.5550 O.2   192  GLN192     -0.2717
    183  NE2       16.3030    8.2770   60.8500 N.am  192  GLN192     -0.0878
    184  N         13.2960   10.5250   70.5530 N.3   216  VAL216     -0.1231
    185  CA        14.2760   10.7510   71.5920 C.3   216  VAL216      0.1678
    186  C         15.2570   11.7880   71.0590 C.2   216  VAL216      0.2434
    187  O         15.4290   11.9210   69.8510 O.2   216  VAL216     -0.2733
    188  CB        15.0180    9.4550   71.9450 C.3   216  VAL216      0.0265
    189  CG1       14.0700    8.2760   71.8390 C.3   216  VAL216      0.0020
    190  CG2       16.2240    9.2530   71.0360 C.3   216  VAL216      0.0020
    191  N         15.8950   12.5410   71.9570 N.am  217  PRO217     -0.2718
    192  CA        16.8150   13.6100   71.5570 C.3   217  PRO217      0.1535
    193  C         17.9980   13.1310   70.7220 C.2   217  PRO217      0.2598
    194  O         18.3540   11.9600   70.7720 O.2   217  PRO217     -0.2715
    195  CB        17.3200   14.1400   72.8920 C.3   217  PRO217      0.0310
    196  CG        16.2390   13.7970   73.8620 C.3   217  PRO217      0.0237
    197  CD        15.7250   12.4730   73.4150 C.3   217  PRO217      0.0939
    198  N         18.5920   14.0410   69.9560 N.am  218  LEU218     -0.1964
    199  CA        19.8000   13.7570   69.1880 C.3   218  LEU218      0.1728
    200  C         20.9900   14.4230   69.8740 C.2   218  LEU218      0.2616
    201  O         20.9540   15.6230   70.1620 O.2   218  LEU218     -0.2715
    202  CB        19.6720   14.2900   67.7520 C.3   218  LEU218      0.0311
    203  CG        18.6250   13.6560   66.8140 C.3   218  LEU218      0.0022
    204  CD1       18.4630   14.4490   65.4920 C.3   218  LEU218      0.0001
    205  CD2       18.9220   12.1700   66.5240 C.3   218  LEU218      0.0001
    206  N         22.0470   13.6560   70.1250 N.am  219  ILE219     -0.1977
    207  CA        23.2210   14.1980   70.8060 C.3   219  ILE219      0.1596
    208  C         24.3390   14.5690   69.8520 C.2   219  ILE219      0.2287
    209  O         24.5280   13.9270   68.8280 O.2   219  ILE219     -0.2864
    210  CB        23.7630   13.2350   71.8520 C.3   219  ILE219      0.0276
    211  CG1       24.2360   11.9540   71.1670 C.3   219  ILE219      0.0022
    212  CG2       22.7010   12.9520   72.8860 C.3   219  ILE219      0.0022
    213  CD1       24.3760   10.7820   72.0930 C.3   219  ILE219      0.0001
@<TRIPOS>BOND
     1   121   122    1
     2   122   125    1
     3   122   123    1
     4   125   126    1
     5   123   124    2
     6   128   126   ar
     7   128   130   ar
     8   126   127   ar
     9   101   100    2
    10   100    99    1
    11    99    98    1
    12    99   102    1
    13   130   131   ar
    14   127   129   ar
    15   105   106    1
    16   107   108    2
    17   107   106    1
    18   104   102    1
    19   102   103    1
    20   116   115    2
    21   106   109    1
    22   133   134    1
    23   131   129   ar
    24   131   132    1
    25   115   114    1
    26   111   110   ar
    27    97    96    2
    28   109   110    1
    29    48    46    1
    30   148   147   ar
    31    41    39   ar
    32   119   118    2
    33   134   135    1
    34   134   137    1
    35   142   143    1
    36   118   117    1
    37   118   120   am
    38   110   112   ar
    39   117   114    1
    40    46    43    1
    41    46    47    1
    42    45    44    2
    43    96    95    1
    44   135   136    2
    45    43    44    1
    46    43    42    1
    47   114   113    1
    48   137   138    1
    49   147   149   ar
    50   147   146    1
    51    39    40   ar
    52    39    38    1
    53   143   146    1
    54   143   144    1
    55    95    94    1
    56   140   139    2
    57    38    35    1
    58   138   139    1
    59   144   145    2
    60   139   141   am
    61    35    36    1
    62    35    34    1
    63    36    37    2
    64   182   181    2
    65    34    25   am
    66   170   169    2
    67   183   181   am
    68    93    91    1
    69    92    91    1
    70   181   180    1
    71    12    11    1
    72    26    25    2
    73    91    90    1
    74    25    24    1
    75   169   168    1
    76   169   175   am
    77   178   177    2
    78   176   177    1
    79   176   175    1
    80   176   179    1
    81   171   168    1
    82   171   172    1
    83   174   172   ar
    84   157   156    2
    85   158   156   am
    86    11     9   ar
    87    11    10   ar
    88   168   167    1
    89   180   179    1
    90    23    24    1
    91    23    21   am
    92    24    27    1
    93    88    89    2
    94    88    87    1
    95    90    87    1
    96     9     7   ar
    97   172   173   ar
    98   156   155    1
    99    20    21    1
   100    20    19    1
   101    21    22    2
   102    10     8   ar
   103    87    86    1
   104    27    28    1
   105     7     6   ar
   106    71    72   ar
   107    71    69   ar
   108    19    15   am
   109    72    70   ar
   110   155   154    1
   111     8     6   ar
   112    58    56   ar
   113    58    57   ar
   114    56    54   ar
   115     6     5    1
   116   154   151    1
   117    28    29   ar
   118    28    30   ar
   119    15    16    2
   120    15    14    1
   121    69    68   ar
   122   204   203    1
   123    70    68   ar
   124    29    31   ar
   125   166   165    2
   126    30    32   ar
   127    57    55   ar
   128    54    53    1
   129    54    55   ar
   130    68    67    1
   131     5     2    1
   132    14    13    1
   133    14    17    1
   134   165   164    1
   135   205   203    1
   136   151   150    1
   137   151   152    1
   138   163   164    1
   139   163   161   am
   140   203   202    1
   141    13     3   am
   142    53    50    1
   143   160   161    1
   144   160   159    1
   145    18    17    1
   146    31    33   ar
   147     4     3    2
   148     3     2    1
   149    49    50    1
   150   152   153    2
   151   161   162    2
   152    32    33   ar
   153     2     1    1
   154    67    64    1
   155   202   199    1
   156    50    51    1
   157    64    63    1
   158    64    65    1
   159    63    61   am
   160   209   208    2
   161    51    52    2
   162    61    60    1
   163    61    62    2
   164   199   200    1
   165   199   198    1
   166    60    59    1
   167    85    82    1
   168    65    66    2
   169   187   186    2
   170   208   207    1
   171   200   206   am
   172   200   201    2
   173   198   193   am
   174   206   207    1
   175   184   185    1
   176    82    81    1
   177    82    83    1
   178   193   194    2
   179   193   192    1
   180   207   210    1
   181   190   188    1
   182   186   185    1
   183   186   191   am
   184   211   210    1
   185   211   213    1
   186    81    75   am
   187    83    84    2
   188   192   191    1
   189   192   195    1
   190   185   188    1
   191   189   188    1
   192   210   212    1
   193   191   197    1
   194    73    74    1
   195    75    74    1
   196    75    76    2
   197    77    74    1
   198    77    78    1
   199   195   196    1
   200    80    78    1
   201   197   196    1
   202    78    79    1
