@<TRIPOS>MOLECULE
tmp/3zxjA01.pdb
 87 85 0 0 0
SMALL
GASTEIGER

@<TRIPOS>ATOM
      1  N        -32.8110   -4.0950   -4.2160 N.3   194  ILE194     -0.1231
      2  CA       -33.0260   -5.4950   -3.8820 C.3   194  ILE194      0.1692
      3  C        -34.4140   -5.6400   -3.2940 C.2   194  ILE194      0.2591
      4  O        -34.7050   -5.0450   -2.2650 O.2   194  ILE194     -0.2718
      5  CB       -31.9820   -6.0100   -2.8540 C.3   194  ILE194      0.0266
      6  CG1      -30.5690   -5.9320   -3.4390 C.3   194  ILE194      0.0019
      7  CG2      -32.2800   -7.4620   -2.4900 C.3   194  ILE194      0.0020
      8  CD1      -29.4750   -6.2090   -2.4340 C.3   194  ILE194      0.0001
      9  N        -35.2600   -6.4090   -3.9900 N.am  195  ARG195     -0.1980
     10  CA       -36.6460   -6.6770   -3.5690 C.3   195  ARG195      0.1597
     11  C        -37.3740   -5.4260   -3.0900 C.2   195  ARG195      0.2287
     12  O        -38.0000   -5.4170   -2.0190 O.2   195  ARG195     -0.2864
     13  CB       -36.7120   -7.7810   -2.5010 C.3   195  ARG195      0.0334
     14  CG       -36.0050   -9.0960   -2.8500 C.3   195  ARG195      0.0492
     15  CD       -36.5270   -9.7360   -4.1280 C.3   195  ARG195      0.2205
     16  NE       -37.9290  -10.1390   -4.0290 N.pl3 195  ARG195     -0.0865
     17  CZ       -38.3550  -11.4000   -3.9490 C.cat 195  ARG195      0.5346
     18  NH1      -37.4860  -12.4050   -3.9650 N.pl3 195  ARG195      0.1354
     19  NH2      -39.6560  -11.6570   -3.8530 N.pl3 195  ARG195      0.1354
     20  N        -36.2090   -2.4430   -2.2150 N.3   197  ASN197     -0.1240
     21  CA       -35.4970   -1.5130   -1.3220 C.3   197  ASN197      0.1653
     22  C        -34.1180   -1.1080   -1.8120 C.2   197  ASN197      0.2266
     23  O        -33.4990   -1.8430   -2.5670 O.2   197  ASN197     -0.2867
     24  CB       -35.3620   -2.1170    0.0820 C.3   197  ASN197      0.1155
     25  CG       -36.6790   -2.2010    0.8010 C.2   197  ASN197      0.2627
     26  OD1      -37.2980   -1.1730    1.1020 O.2   197  ASN197     -0.2716
     27  ND2      -37.1270   -3.4270    1.0870 N.am  197  ASN197     -0.0877
     28  N        -30.1730   -0.4070   -0.9980 N.3   199  TYR199     -0.1241
     29  CA       -29.0970   -0.6980   -0.0560 C.3   199  TYR199      0.1605
     30  C        -27.8050   -0.0990   -0.5700 C.2   199  TYR199      0.2264
     31  O        -27.5620   -0.1030   -1.7690 O.2   199  TYR199     -0.2867
     32  CB       -28.8790   -2.2150    0.0920 C.3   199  TYR199      0.0534
     33  CG       -30.0560   -2.9870    0.6680 C.ar  199  TYR199     -0.0201
     34  CD1      -31.1670   -3.3290   -0.1300 C.ar  199  TYR199     -0.0009
     35  CD2      -30.0510   -3.4040    1.9880 C.ar  199  TYR199     -0.0009
     36  CE1      -32.2390   -4.0330    0.3970 C.ar  199  TYR199      0.0417
     37  CE2      -31.1100   -4.1220    2.5210 C.ar  199  TYR199      0.0417
     38  CZ       -32.2020   -4.4370    1.7140 C.ar  199  TYR199      0.1957
     39  OH       -33.2590   -5.1420    2.2580 O.3   199  TYR199     -0.2866
     40  N        -30.5120  -17.6590   -6.6190 N.3   253  GLY253     -0.1225
     41  CA       -31.1020  -16.6600   -5.7240 C.3   253  GLY253      0.1811
     42  C        -30.3870  -16.4230   -4.4010 C.2   253  GLY253      0.2280
     43  O        -30.7420  -15.4970   -3.6630 O.2   253  GLY253     -0.2866
     44  N        -27.4150  -15.1020   -2.0210 N.3   255  TRP255     -0.1241
     45  CA       -26.5150  -13.9650   -2.0590 C.3   255  TRP255      0.1605
     46  C        -25.1790  -14.2890   -1.4480 C.2   255  TRP255      0.2264
     47  O        -25.0620  -15.2090   -0.6210 O.2   255  TRP255     -0.2867
     48  CB       -27.1610  -12.7790   -1.3580 C.3   255  TRP255      0.0550
     49  CG       -28.2500  -12.1410   -2.1870 C.ar  255  TRP255      0.0003
     50  CD1      -29.5650  -12.5870   -2.3890 C.ar  255  TRP255      0.0946
     51  CD2      -28.1410  -10.9190   -2.9700 C.ar  255  TRP255      0.0152
     52  NE1      -30.2470  -11.7270   -3.2140 N.ar  255  TRP255     -0.2442
     53  CE2      -29.4580  -10.7060   -3.5890 C.ar  255  TRP255      0.0810
     54  CE3      -27.1340  -10.0000   -3.1980 C.ar  255  TRP255      0.0012
     55  CZ2      -29.7120   -9.6270   -4.4120 C.ar  255  TRP255      0.0191
     56  CZ3      -27.3990   -8.9120   -4.0310 C.ar  255  TRP255      0.0001
     57  CH2      -28.6650   -8.7370   -4.6300 C.ar  255  TRP255      0.0015
     58  N        -30.5190  -13.6540    4.8990 N.3   276  TRP276     -0.1227
     59  CA       -31.3000  -12.4480    5.1070 C.3   276  TRP276      0.1737
     60  C        -32.1840  -12.6300    6.3110 C.2   276  TRP276      0.2596
     61  O        -32.8420  -13.6580    6.4410 O.2   276  TRP276     -0.2718
     62  CB       -32.1200  -12.1380    3.8580 C.3   276  TRP276      0.0564
     63  CG       -31.2660  -11.6880    2.7010 C.ar  276  TRP276      0.0003
     64  CD1      -30.5710  -12.4830    1.7880 C.ar  276  TRP276      0.0946
     65  CD2      -30.9730  -10.3060    2.3080 C.ar  276  TRP276      0.0152
     66  NE1      -29.8870  -11.7050    0.8810 N.ar  276  TRP276     -0.2442
     67  CE2      -30.0790  -10.3910    1.1380 C.ar  276  TRP276      0.0810
     68  CE3      -31.3300   -9.0520    2.7980 C.ar  276  TRP276      0.0012
     69  CZ2      -29.5930   -9.2620    0.5020 C.ar  276  TRP276      0.0191
     70  CZ3      -30.8420   -7.9190    2.1380 C.ar  276  TRP276      0.0001
     71  CH2      -29.9880   -8.0240    1.0190 C.ar  276  TRP276      0.0015
     72  N        -32.1540  -11.6610    7.2230 N.am  277  THR277     -0.1939
     73  CA       -33.0550  -11.6510    8.3850 C.3   277  THR277      0.2028
     74  C        -34.4890  -11.4350    7.9140 C.2   277  THR277      0.2642
     75  O        -34.7140  -10.9980    6.7840 O.2   277  THR277     -0.2714
     76  CB       -32.6770  -10.5400    9.3830 C.3   277  THR277      0.1808
     77  OG1      -32.8820   -9.2460    8.7800 O.3   277  THR277     -0.2208
     78  CG2      -31.2240  -10.6830    9.8190 C.3   277  THR277      0.0379
     79  N        -35.4650  -11.7230    8.7790 N.am  278  ALA278     -0.1977
     80  CA       -36.8620  -11.5520    8.4030 C.3   278  ALA278      0.1597
     81  C        -37.2420  -10.0790    8.1610 C.2   278  ALA278      0.2287
     82  O        -38.1870   -9.8010    7.4220 O.2   278  ALA278     -0.2864
     83  CB       -37.7830  -12.1930    9.4260 C.3   278  ALA278      0.0319
     84  N        -35.2330   -8.0030    6.6220 N.3   280  GLY280     -0.1225
     85  CA       -34.5970   -7.6200    5.3750 C.3   280  GLY280      0.1811
     86  C        -33.1820   -7.0890    5.4600 C.2   280  GLY280      0.2280
     87  O        -32.7940   -6.2280    4.6660 O.2   280  GLY280     -0.2866
@<TRIPOS>BOND
     1    40    41    1
     2    41    42    1
     3    57    55   ar
     4    57    56   ar
     5    55    53   ar
     6    42    43    2
     7     1     2    1
     8    15    16    1
     9    15    14    1
    10    56    54   ar
    11    16    17    2
    12     9    10    1
    13     9     3   am
    14    18    17    1
    15    17    19    1
    16     2     3    1
    17     2     5    1
    18    53    52   ar
    19    53    51   ar
    20    10    11    1
    21    10    13    1
    22     6     5    1
    23     6     8    1
    24     3     4    2
    25    52    50   ar
    26    54    51   ar
    27    11    12    2
    28    51    49   ar
    29     5     7    1
    30    14    13    1
    31    23    22    2
    32    50    49   ar
    33    20    21    1
    34    49    48    1
    35    45    44    1
    36    45    46    1
    37    45    48    1
    38    22    21    1
    39    31    30    2
    40    46    47    2
    41    21    24    1
    42    28    29    1
    43    30    29    1
    44    34    36   ar
    45    34    33   ar
    46    29    32    1
    47    24    25    1
    48    32    33    1
    49    36    38   ar
    50    69    71   ar
    51    69    67   ar
    52    33    35   ar
    53    25    27   am
    54    25    26    2
    55    66    67   ar
    56    66    64   ar
    57    71    70   ar
    58    67    65   ar
    59    38    39    1
    60    38    37   ar
    61    64    63   ar
    62    35    37   ar
    63    70    68   ar
    64    65    63   ar
    65    65    68   ar
    66    63    62    1
    67    62    59    1
    68    87    86    2
    69    58    59    1
    70    59    60    1
    71    85    86    1
    72    85    84    1
    73    60    61    2
    74    60    72   am
    75    75    74    2
    76    72    73    1
    77    82    81    2
    78    74    73    1
    79    74    79   am
    80    81    80    1
    81    73    76    1
    82    80    79    1
    83    80    83    1
    84    77    76    1
    85    76    78    1
