@<TRIPOS>MOLECULE
tmp/3zxjA00.pdb
 152 150 0 0 0
SMALL
GASTEIGER

@<TRIPOS>ATOM
      1  N        -10.5720   -2.8720   -4.6250 N.3    16  ASP16      -0.1239
      2  CA       -11.6990   -1.9360   -4.8100 C.3    16  ASP16       0.1674
      3  C        -12.7840   -2.5450   -5.7000 C.2    16  ASP16       0.2266
      4  O        -13.4200   -1.8580   -6.5170 O.2    16  ASP16      -0.2867
      5  CB       -11.2190   -0.5850   -5.3800 C.3    16  ASP16       0.1410
      6  CG       -10.2470    0.1290   -4.4540 C.2    16  ASP16       0.3668
      7  OD1      -10.4390    0.0150   -3.2250 O.co2  16  ASP16      -0.2456
      8  OD2       -9.2830    0.7770   -4.9560 O.co2  16  ASP16      -0.2456
      9  N         -4.8960    2.4260  -10.5170 N.3    33  PHE33      -0.1241
     10  CA        -3.9550    3.5350  -10.2900 C.3    33  PHE33       0.1605
     11  C         -3.3350    4.0010  -11.6250 C.2    33  PHE33       0.2264
     12  O         -4.0940    4.3180  -12.5360 O.2    33  PHE33      -0.2867
     13  CB        -2.9490    3.1420   -9.1550 C.3    33  PHE33       0.0534
     14  CG        -3.6630    2.7720   -7.8790 C.ar   33  PHE33      -0.0203
     15  CD1       -4.1510    1.4700   -7.6780 C.ar   33  PHE33      -0.0042
     16  CD2       -3.9590    3.7450   -6.9360 C.ar   33  PHE33      -0.0042
     17  CE1       -4.8910    1.1640   -6.5340 C.ar   33  PHE33      -0.0003
     18  CE2       -4.6740    3.4290   -5.7730 C.ar   33  PHE33      -0.0003
     19  CZ        -5.1600    2.1510   -5.5920 C.ar   33  PHE33      -0.0000
     20  N         -8.8060    5.0460   -8.7990 N.3    81  TRP81      -0.1227
     21  CA        -9.0460    4.5730   -7.4380 C.3    81  TRP81       0.1737
     22  C        -10.3320    3.7830   -7.4330 C.2    81  TRP81       0.2595
     23  O        -10.7420    3.2450   -8.4760 O.2    81  TRP81      -0.2718
     24  CB        -9.0830    5.7570   -6.4660 C.3    81  TRP81       0.0564
     25  CG        -7.7530    6.4600   -6.2890 C.ar   81  TRP81       0.0003
     26  CD1       -6.4970    6.0700   -6.7790 C.ar   81  TRP81       0.0946
     27  CD2       -7.5050    7.6930   -5.5390 C.ar   81  TRP81       0.0152
     28  NE1       -5.5190    6.9540   -6.3880 N.ar   81  TRP81      -0.2442
     29  CE2       -6.0600    7.9470   -5.6270 C.ar   81  TRP81       0.0810
     30  CE3       -8.3120    8.5910   -4.8210 C.ar   81  TRP81       0.0012
     31  CZ2       -5.4760    9.0710   -5.0460 C.ar   81  TRP81       0.0191
     32  CZ3       -7.7090    9.7020   -4.2100 C.ar   81  TRP81       0.0001
     33  CH2       -6.3230    9.9400   -4.3240 C.ar   81  TRP81       0.0015
     34  N        -11.0040    3.6800   -6.2930 N.am   82  ALA82      -0.1980
     35  CA       -12.2290    2.9060   -6.3040 C.3    82  ALA82       0.1597
     36  C        -13.2500    3.5280   -7.2840 C.2    82  ALA82       0.2287
     37  O        -13.5180    4.7430   -7.2760 O.2    82  ALA82      -0.2864
     38  CB       -12.7980    2.7580   -4.8960 C.3    82  ALA82       0.0319
     39  N        -16.1470   10.5440   -5.6040 N.3   139  TYR139     -0.1227
     40  CA       -15.1910    9.7570   -4.8330 C.3   139  TYR139      0.1736
     41  C        -15.8040    8.4220   -4.3300 C.2   139  TYR139      0.2595
     42  O        -16.8650    8.4160   -3.6760 O.2   139  TYR139     -0.2718
     43  CB       -14.6890   10.5960   -3.6500 C.3   139  TYR139      0.0548
     44  CG       -13.6490    9.8970   -2.7880 C.ar  139  TYR139     -0.0200
     45  CD1      -12.2840    9.9900   -3.0820 C.ar  139  TYR139     -0.0009
     46  CD2      -14.0350    9.1150   -1.7020 C.ar  139  TYR139     -0.0009
     47  CE1      -11.3350    9.3300   -2.2990 C.ar  139  TYR139      0.0417
     48  CE2      -13.1000    8.4590   -0.9190 C.ar  139  TYR139      0.0417
     49  CZ       -11.7560    8.5710   -1.2200 C.ar  139  TYR139      0.1957
     50  OH       -10.8420    7.9090   -0.4220 O.3   139  TYR139     -0.2866
     51  N        -15.1140    7.3160   -4.6150 N.am  140  ASP140     -0.1974
     52  CA       -15.5770    5.9820   -4.2440 C.3   140  ASP140      0.1709
     53  C        -17.0430    5.7790   -4.6780 C.2   140  ASP140      0.2293
     54  O        -17.9300    5.5210   -3.8530 O.2   140  ASP140     -0.2864
     55  CB       -15.4180    5.7630   -2.7360 C.3   140  ASP140      0.1436
     56  CG       -14.0000    5.3920   -2.3360 C.2   140  ASP140      0.3671
     57  OD1      -13.0570    5.6230   -3.1290 O.co2 140  ASP140     -0.2456
     58  OD2      -13.8160    4.8840   -1.2030 O.co2 140  ASP140     -0.2456
     59  N        -16.7810    5.0750    3.5150 N.3   188  GLU188     -0.1245
     60  CA       -16.5240    5.3160    2.0900 C.3   188  GLU188      0.1567
     61  C        -16.7500    3.9980    1.3400 C.2   188  GLU188      0.2260
     62  O        -17.4020    3.0980    1.8690 O.2   188  GLU188     -0.2867
     63  CB       -15.0890    5.8490    1.8850 C.3   188  GLU188      0.0388
     64  CG       -13.9770    4.9970    2.4960 C.3   188  GLU188      0.1160
     65  CD       -12.5550    5.5430    2.2770 C.2   188  GLU188      0.3649
     66  OE1      -12.3580    6.6050    1.6520 O.co2 188  GLU188     -0.2457
     67  OE2      -11.5940    4.8890    2.7430 O.co2 188  GLU188     -0.2457
     68  N        -17.5840    0.8840    3.6090 N.3   203  THR203     -0.1218
     69  CA       -16.5010    0.4100    4.4690 C.3   203  THR203      0.1862
     70  C        -16.1410    1.4620    5.5290 C.2   203  THR203      0.2287
     71  O        -16.2700    2.6570    5.2800 O.2   203  THR203     -0.2866
     72  CB       -15.2570   -0.0010    3.6480 C.3   203  THR203      0.1770
     73  OG1      -14.3190   -0.6760    4.5010 O.3   203  THR203     -0.2211
     74  CG2      -14.5840    1.2050    2.9770 C.3   203  THR203      0.0375
     75  N        -12.7960    2.1950    6.8300 N.3   205  PRO205     -0.2102
     76  CA       -11.4540    1.6700    6.4780 C.3   205  PRO205      0.1504
     77  C        -10.5620    1.3840    7.7080 C.2   205  PRO205      0.2575
     78  O        -10.5140    2.1960    8.6370 O.2   205  PRO205     -0.2718
     79  CB       -10.8510    2.7870    5.6230 C.3   205  PRO205      0.0282
     80  CG       -11.6390    4.0160    5.9630 C.3   205  PRO205      0.0208
     81  CD       -13.0310    3.5420    6.2660 C.3   205  PRO205      0.0893
     82  N         -9.8820    0.2470    7.7490 N.am  206  ALA206     -0.1980
     83  CA        -9.8890   -0.7730    6.7030 C.3   206  ALA206      0.1597
     84  C        -10.3250   -2.0980    7.3210 C.2   206  ALA206      0.2287
     85  O         -9.7920   -3.1730    6.9930 O.2   206  ALA206     -0.2864
     86  CB        -8.4900   -0.9070    6.1270 C.3   206  ALA206      0.0319
     87  N        -12.9510   -6.6300    4.0220 N.3   243  HIS243     -0.1226
     88  CA       -13.7200   -5.3790    4.0290 C.3   243  HIS243      0.1752
     89  C        -13.9420   -4.9070    2.6140 C.2   243  HIS243      0.2595
     90  O        -13.3460   -5.4320    1.6730 O.2   243  HIS243     -0.2718
     91  CB       -13.0360   -4.2930    4.8820 C.3   243  HIS243      0.0759
     92  CG       -11.7470   -3.7710    4.3040 C.ar  243  HIS243      0.0818
     93  ND1      -10.6260   -4.5270    4.2200 N.ar  243  HIS243     -0.2268
     94  CD2      -11.4190   -2.5150    3.7680 C.ar  243  HIS243      0.1154
     95  CE1       -9.6390   -3.8050    3.6510 C.ar  243  HIS243      0.1986
     96  NE2      -10.1290   -2.5720    3.3700 N.ar  243  HIS243     -0.2212
     97  N        -14.8380   -3.9300    2.4670 N.am  244  GLN244     -0.1979
     98  CA       -15.1340   -3.3140    1.1840 C.3   244  GLN244      0.1601
     99  C        -15.7260   -4.3680    0.2380 C.2   244  GLN244      0.2287
    100  O        -16.4320   -5.2630    0.6900 O.2   244  GLN244     -0.2864
    101  CB       -13.8980   -2.5950    0.6190 C.3   244  GLN244      0.0394
    102  CG       -14.2480   -1.2130    0.0590 C.3   244  GLN244      0.0908
    103  CD       -13.0450   -0.3370   -0.2230 C.2   244  GLN244      0.2608
    104  OE1      -12.0720   -0.3200    0.5350 O.2   244  GLN244     -0.2717
    105  NE2      -13.1090    0.4070   -1.3300 N.am  244  GLN244     -0.0878
    106  N        -12.4230   -7.8950    0.0240 N.3   260  PHE260     -0.1241
    107  CA       -10.9900   -8.1670   -0.1530 C.3   260  PHE260      0.1605
    108  C        -10.1950   -8.0200    1.1420 C.2   260  PHE260      0.2264
    109  O        -10.6970   -7.4130    2.1030 O.2   260  PHE260     -0.2867
    110  CB       -10.3780   -7.3560   -1.3200 C.3   260  PHE260      0.0534
    111  CG       -10.5350   -5.8620   -1.1940 C.ar  260  PHE260     -0.0203
    112  CD1       -9.6270   -5.1110   -0.4490 C.ar  260  PHE260     -0.0042
    113  CD2      -11.5670   -5.2070   -1.8660 C.ar  260  PHE260     -0.0042
    114  CE1       -9.7580   -3.7310   -0.3580 C.ar  260  PHE260     -0.0003
    115  CE2      -11.7030   -3.8170   -1.7770 C.ar  260  PHE260     -0.0003
    116  CZ       -10.8030   -3.0970   -1.0070 C.ar  260  PHE260     -0.0000
    117  N         -4.1730   -6.7700   -2.6500 N.3   267  ARG267     -0.1245
    118  CA        -5.4850   -6.9260   -2.0140 C.3   267  ARG267      0.1563
    119  C         -6.2940   -7.8980   -2.8300 C.2   267  ARG267      0.2260
    120  O         -6.5130   -7.6870   -4.0110 O.2   267  ARG267     -0.2867
    121  CB        -6.1810   -5.5730   -1.8920 C.3   267  ARG267      0.0307
    122  CG        -5.4000   -4.6380   -0.9860 C.3   267  ARG267      0.0489
    123  CD        -6.0360   -3.2690   -0.8680 C.3   267  ARG267      0.2205
    124  NE        -5.7000   -2.4410   -2.0210 N.pl3 267  ARG267     -0.0865
    125  CZ        -6.2960   -1.2860   -2.2850 C.cat 267  ARG267      0.5346
    126  NH1       -7.2460   -0.8410   -1.4650 N.pl3 267  ARG267      0.1354
    127  NH2       -5.9540   -0.5840   -3.3660 N.pl3 267  ARG267      0.1354
    128  N          1.3900   -0.4300    2.8740 N.3   493  TRP493     -0.1241
    129  CA         0.1810   -0.3440    2.0360 C.3   493  TRP493      0.1605
    130  C          0.1480    0.8950    1.1690 C.2   493  TRP493      0.2264
    131  O         -0.7290    1.0350    0.3130 O.2   493  TRP493     -0.2867
    132  CB        -1.0680   -0.3970    2.9330 C.3   493  TRP493      0.0550
    133  CG        -1.0960    0.7370    3.9460 C.ar  493  TRP493      0.0003
    134  CD1       -0.6210    0.7230    5.2610 C.ar  493  TRP493      0.0946
    135  CD2       -1.6060    2.1010    3.7450 C.ar  493  TRP493      0.0152
    136  NE1       -0.8230    1.9410    5.8700 N.ar  493  TRP493     -0.2442
    137  CE2       -1.3800    2.8170    5.0110 C.ar  493  TRP493      0.0810
    138  CE3       -2.2000    2.7780    2.6820 C.ar  493  TRP493      0.0012
    139  CZ2       -1.7610    4.1450    5.1860 C.ar  493  TRP493      0.0191
    140  CZ3       -2.5690    4.1260    2.8630 C.ar  493  TRP493      0.0001
    141  CH2       -2.3710    4.7830    4.0930 C.ar  493  TRP493      0.0015
    142  N         -0.3790    1.1220   -2.4900 N.3   496  PHE496     -0.1241
    143  CA        -1.6450    0.4370   -2.7560 C.3   496  PHE496      0.1605
    144  C         -1.5310   -0.8140   -3.5960 C.2   496  PHE496      0.2264
    145  O         -1.9470   -1.8720   -3.1640 O.2   496  PHE496     -0.2867
    146  CB        -2.7200    1.3650   -3.3220 C.3   496  PHE496      0.0534
    147  CG        -3.2920    2.3070   -2.3020 C.ar  496  PHE496     -0.0203
    148  CD1       -4.0680    1.8240   -1.2340 C.ar  496  PHE496     -0.0042
    149  CD2       -3.0740    3.6730   -2.4130 C.ar  496  PHE496     -0.0042
    150  CE1       -4.6040    2.7140   -0.2920 C.ar  496  PHE496     -0.0003
    151  CE2       -3.6010    4.5650   -1.4720 C.ar  496  PHE496     -0.0003
    152  CZ        -4.3600    4.0750   -0.4070 C.ar  496  PHE496     -0.0000
@<TRIPOS>BOND
     1    12    11    2
     2    11    10    1
     3     9    10    1
     4    10    13    1
     5    13    14    1
     6    20    21    1
     7    23    22    2
     8    14    15   ar
     9    14    16   ar
    10    15    17   ar
    11    21    22    1
    12    21    24    1
    13    22    34   am
    14    36    37    2
    15    36    35    1
    16    16    18   ar
    17    26    28   ar
    18    26    25   ar
    19    17    19   ar
    20     4     3    2
    21    24    25    1
    22    28    29   ar
    23    35    34    1
    24    35    38    1
    25    25    27   ar
    26    18    19   ar
    27     3     2    1
    28    29    27   ar
    29    29    31   ar
    30    39    40    1
    31    27    30   ar
    32     5     2    1
    33     5     6    1
    34    31    33   ar
    35     8     6   ar
    36    40    41    1
    37    40    43    1
    38    30    32   ar
    39     2     1    1
    40    53    52    1
    41    53    54    2
    42    51    41   am
    43    51    52    1
    44     6     7   ar
    45    41    42    2
    46    33    32   ar
    47    52    55    1
    48   120   119    2
    49    43    44    1
    50   144   145    2
    51   144   143    1
    52   127   125    1
    53   146   143    1
    54   146   147    1
    55    57    56   ar
    56    45    44   ar
    57    45    47   ar
    58   119   118    1
    59    44    46   ar
    60   143   142    1
    61    55    56    1
    62   117   118    1
    63   149   147   ar
    64   149   151   ar
    65    56    58   ar
    66   147   148   ar
    67    47    49   ar
    68   125   124    2
    69   125   126    1
    70   124   123    1
    71   118   121    1
    72   121   122    1
    73   113   115   ar
    74   113   111   ar
    75   115   116   ar
    76    46    48   ar
    77   151   152   ar
    78   105   103   am
    79   110   111    1
    80   110   107    1
    81   148   150   ar
    82    49    48   ar
    83    49    50    1
    84   111   112   ar
    85   116   114   ar
    86   122   123    1
    87   112   114   ar
    88   152   150   ar
    89   103   102    1
    90   103   104    2
    91   107   106    1
    92   107   108    1
    93   102   101    1
    94    99   100    2
    95    99    98    1
    96   131   130    2
    97   101    98    1
    98   108   109    2
    99   130   129    1
   100    98    97    1
   101    61    62    2
   102    61    60    1
   103    66    65   ar
   104    90    89    2
   105    63    60    1
   106    63    64    1
   107   129   128    1
   108   129   132    1
   109    60    59    1
   110    65    64    1
   111    65    67   ar
   112    97    89   am
   113    89    88    1
   114   138   140   ar
   115   138   135   ar
   116   140   141   ar
   117   132   133    1
   118    74    72    1
   119    96    95   ar
   120    96    94   ar
   121    68    69    1
   122    72    69    1
   123    72    73    1
   124    95    93   ar
   125   135   133   ar
   126   135   137   ar
   127    94    92   ar
   128   133   134   ar
   129    87    88    1
   130    88    91    1
   131   141   139   ar
   132    93    92   ar
   133    92    91    1
   134    69    70    1
   135   137   139   ar
   136   137   136   ar
   137   134   136   ar
   138    71    70    2
   139    79    80    1
   140    79    76    1
   141    80    81    1
   142    86    83    1
   143    81    75    1
   144    76    75    1
   145    76    77    1
   146    83    84    1
   147    83    82    1
   148    85    84    2
   149    77    82   am
   150    77    78    2
