@<TRIPOS>MOLECULE
tmp/3zxkB00.pdb
 159 156 0 0 0
SMALL
GASTEIGER

@<TRIPOS>ATOM
      1  N         37.1430  -27.8590   46.3490 N.3    79  TRP79      -0.1241
      2  CA        37.4010  -29.1520   45.7270 C.3    79  TRP79       0.1605
      3  C         38.7260  -29.6630   46.3060 C.2    79  TRP79       0.2264
      4  O         39.1170  -29.2380   47.4100 O.2    79  TRP79      -0.2867
      5  CB        37.4160  -28.9490   44.2220 C.3    79  TRP79       0.0550
      6  CG        36.0280  -28.8420   43.6050 C.ar   79  TRP79       0.0003
      7  CD1       34.9350  -28.1260   44.0810 C.ar   79  TRP79       0.0946
      8  CD2       35.5600  -29.5040   42.3860 C.ar   79  TRP79       0.0152
      9  NE1       33.8470  -28.2780   43.2400 N.ar   79  TRP79      -0.2442
     10  CE2       34.1710  -29.0910   42.1910 C.ar   79  TRP79       0.0810
     11  CE3       36.1540  -30.3530   41.4440 C.ar   79  TRP79       0.0012
     12  CZ2       33.4070  -29.5540   41.0980 C.ar   79  TRP79       0.0191
     13  CZ3       35.3880  -30.8120   40.3590 C.ar   79  TRP79       0.0001
     14  CH2       34.0560  -30.4150   40.1820 C.ar   79  TRP79       0.0015
     15  N         44.4410  -26.1070   40.3430 N.3   137  TYR137     -0.1241
     16  CA        43.4030  -27.1320   40.4070 C.3   137  TYR137      0.1605
     17  C         44.0130  -28.4410   40.9230 C.2   137  TYR137      0.2264
     18  O         45.0520  -28.8840   40.4320 O.2   137  TYR137     -0.2867
     19  CB        42.7430  -27.3340   39.0200 C.3   137  TYR137      0.0534
     20  CG        41.7380  -28.4610   39.0420 C.ar  137  TYR137     -0.0201
     21  CD1       40.4220  -28.2540   39.4700 C.ar  137  TYR137     -0.0009
     22  CD2       42.1300  -29.7630   38.6990 C.ar  137  TYR137     -0.0009
     23  CE1       39.5180  -29.3160   39.5220 C.ar  137  TYR137      0.0417
     24  CE2       41.2370  -30.8140   38.7450 C.ar  137  TYR137      0.0417
     25  CZ        39.9420  -30.5930   39.1720 C.ar  137  TYR137      0.1957
     26  OH        39.0670  -31.6570   39.2060 O.3   137  TYR137     -0.2866
     27  N         44.9930  -30.7180   35.6800 N.3   155  ASN155     -0.1240
     28  CA        44.1420  -31.7390   35.0470 C.3   155  ASN155      0.1653
     29  C         43.9600  -31.2090   33.6300 C.2   155  ASN155      0.2266
     30  O         43.4860  -30.0930   33.4640 O.2   155  ASN155     -0.2867
     31  CB        42.7860  -31.9040   35.7760 C.3   155  ASN155      0.1155
     32  CG        41.7660  -32.7250   34.9950 C.2   155  ASN155      0.2627
     33  OD1       41.7790  -32.7820   33.7580 O.2   155  ASN155     -0.2716
     34  ND2       40.8740  -33.3780   35.7260 N.am  155  ASN155     -0.0877
     35  N         44.8250  -36.2900   37.7150 N.3   187  GLU187     -0.1196
     36  CA        44.5840  -35.1310   38.5900 C.3   187  GLU187      0.1783
     37  C         44.9100  -35.5740   40.0170 C.2   187  GLU187      0.2306
     38  O         45.5500  -36.5960   40.2140 O.2   187  GLU187     -0.2863
     39  CB        43.1250  -34.6200   38.4630 C.2   187  GLU187      0.0071
     40  CG        42.0390  -35.6040   38.9340 C.2   187  GLU187      0.0834
     41  CD        40.5940  -35.0550   38.8930 C.2   187  GLU187      0.3877
     42  OE1       40.3420  -33.9130   38.4420 O.co2 187  GLU187     -0.2406
     43  OE2       39.6660  -35.7840   39.3220 O.co2 187  GLU187     -0.2406
     44  N         45.9440  -39.3430   40.4860 N.3   203  THR203     -0.1218
     45  CA        44.8670  -40.3070   40.2320 C.3   203  THR203      0.1862
     46  C         44.4470  -40.2740   38.7640 C.2   203  THR203      0.2287
     47  O         44.4390  -39.2180   38.1300 O.2   203  THR203     -0.2866
     48  CB        43.6190  -40.0940   41.1570 C.3   203  THR203      0.1770
     49  OG1       42.6800  -41.1660   40.9790 O.3   203  THR203     -0.2211
     50  CG2       42.8820  -38.7650   40.9100 C.3   203  THR203      0.0375
     51  N         41.0330  -40.6490   37.3430 N.3   205  PRO205     -0.2102
     52  CA        39.6820  -40.7700   37.8910 C.3   205  PRO205      0.1504
     53  C         38.9180  -41.8710   37.1610 C.2   205  PRO205      0.2575
     54  O         38.9290  -41.9130   35.9310 O.2   205  PRO205     -0.2718
     55  CB        39.0580  -39.3900   37.6120 C.3   205  PRO205      0.0282
     56  CG        40.2090  -38.4690   37.3540 C.3   205  PRO205      0.0208
     57  CD        41.2770  -39.3270   36.7400 C.3   205  PRO205      0.0893
     58  N         38.2810  -42.7920   37.8760 N.am  206  ALA206     -0.1980
     59  CA        38.1820  -42.8360   39.3430 C.3   206  ALA206      0.1597
     60  C         38.6500  -44.2290   39.8120 C.2   206  ALA206      0.2287
     61  O         38.1340  -44.7970   40.7740 O.2   206  ALA206     -0.2864
     62  CB        36.7350  -42.5490   39.7670 C.3   206  ALA206      0.0319
     63  N         41.2660  -45.0290   45.4620 N.3   243  HIS243     -0.1226
     64  CA        42.0990  -44.1700   44.6100 C.3   243  HIS243      0.1752
     65  C         42.3000  -42.8580   45.2790 C.2   243  HIS243      0.2595
     66  O         41.7190  -42.5620   46.3290 O.2   243  HIS243     -0.2718
     67  CB        41.4860  -43.9700   43.2020 C.3   243  HIS243      0.0759
     68  CG        40.1810  -43.2090   43.1900 C.ar  243  HIS243      0.0818
     69  ND1       39.0370  -43.6750   43.7740 N.ar  243  HIS243     -0.2268
     70  CD2       39.8690  -41.9750   42.6420 C.ar  243  HIS243      0.1154
     71  CE1       38.0570  -42.7700   43.5950 C.ar  243  HIS243      0.1986
     72  NE2       38.5650  -41.7390   42.8810 N.ar  243  HIS243     -0.2212
     73  N         43.1310  -42.0550   44.6510 N.am  244  GLN244     -0.1979
     74  CA        43.4210  -40.7090   45.1090 C.3   244  GLN244      0.1601
     75  C         44.0670  -40.7570   46.5160 C.2   244  GLN244      0.2287
     76  O         44.7380  -41.7390   46.8440 O.2   244  GLN244     -0.2864
     77  CB        42.1690  -39.8080   44.9690 C.3   244  GLN244      0.0394
     78  CG        42.5620  -38.3750   44.6850 C.3   244  GLN244      0.0908
     79  CD        41.4380  -37.5230   44.1590 C.2   244  GLN244      0.2608
     80  OE1       40.4860  -38.0330   43.5510 O.2   244  GLN244     -0.2717
     81  NE2       41.5360  -36.2110   44.3860 N.am  244  GLN244     -0.0878
     82  N         40.7420  -43.1900   49.2260 N.3   260  PHE260     -0.1241
     83  CA        39.3330  -43.2480   49.5450 C.3   260  PHE260      0.1605
     84  C         38.5510  -44.0810   48.5130 C.2   260  PHE260      0.2264
     85  O         39.0190  -44.3060   47.3930 O.2   260  PHE260     -0.2867
     86  CB        38.7350  -41.8370   49.7740 C.3   260  PHE260      0.0534
     87  CG        38.7780  -40.9460   48.5690 C.ar  260  PHE260     -0.0203
     88  CD1       37.8930  -41.1460   47.5110 C.ar  260  PHE260     -0.0042
     89  CD2       39.6900  -39.8960   48.5000 C.ar  260  PHE260     -0.0042
     90  CE1       37.9320  -40.3070   46.3940 C.ar  260  PHE260     -0.0003
     91  CE2       39.7430  -39.0640   47.3760 C.ar  260  PHE260     -0.0003
     92  CZ        38.8440  -39.2560   46.3430 C.ar  260  PHE260     -0.0000
     93  N         34.5630  -44.7370   46.6970 N.3   262  ASP262     -0.1239
     94  CA        33.3010  -44.0970   46.2840 C.3   262  ASP262      0.1674
     95  C         32.1120  -44.8340   46.9110 C.2   262  ASP262      0.2266
     96  O         31.3110  -45.5110   46.2380 O.2   262  ASP262     -0.2867
     97  CB        33.2240  -44.0670   44.7590 C.3   262  ASP262      0.1410
     98  CG        34.1720  -43.0360   44.1440 C.2   262  ASP262      0.3668
     99  OD1       34.4220  -42.0050   44.7860 O.co2 262  ASP262     -0.2456
    100  OD2       34.6900  -43.2590   43.0120 O.co2 262  ASP262     -0.2456
    101  N         29.2190  -44.2920   47.8870 N.3   264  TYR264     -0.1241
    102  CA        27.8740  -43.7040   47.7650 C.3   264  TYR264      0.1605
    103  C         26.8340  -44.7500   48.1040 C.2   264  TYR264      0.2264
    104  O         26.9830  -45.8880   47.7190 O.2   264  TYR264     -0.2867
    105  CB        27.6600  -43.1120   46.3580 C.3   264  TYR264      0.0534
    106  CG        28.5820  -41.9430   46.1410 C.ar  264  TYR264     -0.0201
    107  CD1       28.3520  -40.7250   46.7850 C.ar  264  TYR264     -0.0009
    108  CD2       29.7160  -42.0580   45.3470 C.ar  264  TYR264     -0.0009
    109  CE1       29.2190  -39.6500   46.6190 C.ar  264  TYR264      0.0417
    110  CE2       30.5900  -40.9820   45.1890 C.ar  264  TYR264      0.0417
    111  CZ        30.3220  -39.7790   45.8190 C.ar  264  TYR264      0.1957
    112  OH        31.1950  -38.7310   45.6520 O.3   264  TYR264     -0.2866
    113  N         32.4740  -40.4380   50.3290 N.3   268  ARG268     -0.1245
    114  CA        33.8240  -40.9040   49.9750 C.3   268  ARG268      0.1563
    115  C         34.6830  -41.1020   51.2290 C.2   268  ARG268      0.2260
    116  O         34.9100  -40.1590   51.9700 O.2   268  ARG268     -0.2867
    117  CB        34.4550  -39.9600   48.9350 C.3   268  ARG268      0.0307
    118  CG        33.6950  -40.0540   47.5950 C.3   268  ARG268      0.0489
    119  CD        34.3150  -39.2360   46.4710 C.3   268  ARG268      0.2205
    120  NE        34.1420  -37.8300   46.7420 N.pl3 268  ARG268     -0.0865
    121  CZ        34.6400  -36.8610   46.0080 C.cat 268  ARG268      0.5346
    122  NH1       35.3500  -37.1540   44.9100 N.pl3 268  ARG268      0.1354
    123  NH2       34.4200  -35.5950   46.3680 N.pl3 268  ARG268      0.1354
    124  N         27.1090  -48.1460   45.2150 N.3   464  PHE464     -0.1241
    125  CA        27.6470  -47.4520   44.0570 C.3   464  PHE464      0.1605
    126  C         27.8360  -48.4930   42.9710 C.2   464  PHE464      0.2264
    127  O         28.4030  -49.5780   43.2190 O.2   464  PHE464     -0.2867
    128  CB        28.9710  -46.7840   44.4110 C.3   464  PHE464      0.0534
    129  CG        29.4590  -45.8220   43.3610 C.ar  464  PHE464     -0.0203
    130  CD1       28.6840  -44.6950   43.0320 C.ar  464  PHE464     -0.0042
    131  CD2       30.6900  -46.0040   42.7360 C.ar  464  PHE464     -0.0042
    132  CE1       29.1240  -43.7820   42.0730 C.ar  464  PHE464     -0.0003
    133  CE2       31.1540  -45.0680   41.7890 C.ar  464  PHE464     -0.0003
    134  CZ        30.3680  -43.9730   41.4630 C.ar  464  PHE464     -0.0000
    135  N         26.9890  -39.8380   41.9180 N.3   497  TRP497     -0.1241
    136  CA        28.1860  -39.1630   42.4400 C.3   497  TRP497      0.1605
    137  C         28.2480  -37.6750   42.1270 C.2   497  TRP497      0.2264
    138  O         29.1240  -36.9670   42.6480 O.2   497  TRP497     -0.2867
    139  CB        29.4430  -39.8530   41.8970 C.3   497  TRP497      0.0550
    140  CG        29.5740  -39.8350   40.3930 C.ar  497  TRP497      0.0003
    141  CD1       29.2190  -40.8530   39.4970 C.ar  497  TRP497      0.0946
    142  CD2       30.1400  -38.7710   39.5600 C.ar  497  TRP497      0.0152
    143  NE1       29.5150  -40.4970   38.2030 N.ar  497  TRP497     -0.2442
    144  CE2       30.0600  -39.2510   38.1660 C.ar  497  TRP497      0.0810
    145  CE3       30.6630  -37.5030   39.8080 C.ar  497  TRP497      0.0012
    146  CZ2       30.4940  -38.4750   37.0940 C.ar  497  TRP497      0.0191
    147  CZ3       31.1110  -36.7400   38.7220 C.ar  497  TRP497      0.0001
    148  CH2       31.0230  -37.2170   37.3940 C.ar  497  TRP497      0.0015
    149  N         28.8140  -34.9820   44.5760 N.3   500  PHE500     -0.1241
    150  CA        30.0630  -35.3260   45.2810 C.3   500  PHE500      0.1605
    151  C         29.9260  -35.6290   46.7640 C.2   500  PHE500      0.2264
    152  O         30.3350  -36.6940   47.2100 O.2   500  PHE500     -0.2867
    153  CB        31.1650  -34.3070   45.0490 C.3   500  PHE500      0.0534
    154  CG        31.6810  -34.3100   43.6510 C.ar  500  PHE500     -0.0203
    155  CD1       32.4310  -35.3760   43.1790 C.ar  500  PHE500     -0.0042
    156  CD2       31.4040  -33.2560   42.7980 C.ar  500  PHE500     -0.0042
    157  CE1       32.9120  -35.3790   41.8770 C.ar  500  PHE500     -0.0003
    158  CE2       31.8760  -33.2430   41.5060 C.ar  500  PHE500     -0.0003
    159  CZ        32.6390  -34.3020   41.0440 C.ar  500  PHE500     -0.0000
@<TRIPOS>BOND
     1    30    29    2
     2    29    28    1
     3    33    32    2
     4    32    34   am
     5    32    31    1
     6    28    27    1
     7    28    31    1
     8    54    53    2
     9    57    51    1
    10    57    56    1
    11   146   148   ar
    12   146   144   ar
    13    53    58   am
    14    53    52    1
    15    51    52    1
    16    56    55    1
    17   148   147   ar
    18    55    52    1
    19    35    36    1
    20    58    59    1
    21    47    46    2
    22   144   143   ar
    23   144   142   ar
    24   143   141   ar
    25    42    41   ar
    26    39    36    1
    27    39    40    2
    28    36    37    1
    29    22    24   ar
    30    22    20   ar
    31   147   145   ar
    32    24    25   ar
    33    46    45    1
    34    41    40    1
    35    41    43   ar
    36    19    20    1
    37    19    16    1
    38    20    21   ar
    39    25    26    1
    40    25    23   ar
    41    59    62    1
    42    59    60    1
    43    21    23   ar
    44   141   140   ar
    45   142   145   ar
    46   142   140   ar
    47    60    61    2
    48    37    38    2
    49    14    13   ar
    50    14    12   ar
    51    45    44    1
    52    45    48    1
    53    15    16    1
    54    13    11   ar
    55   140   139    1
    56    16    17    1
    57    18    17    2
    58    50    48    1
    59    49    48    1
    60   159   158   ar
    61   159   157   ar
    62    12    10   ar
    63    11     8   ar
    64   134   133   ar
    65   134   132   ar
    66   158   156   ar
    67   133   131   ar
    68   157   155   ar
    69   139   136    1
    70   135   136    1
    71   132   130   ar
    72   137   136    1
    73   137   138    2
    74    10     8   ar
    75    10     9   ar
    76     8     6   ar
    77    70    72   ar
    78    70    68   ar
    79   131   129   ar
    80   156   154   ar
    81    72    71   ar
    82   126   127    2
    83   126   125    1
    84   100    98   ar
    85   130   129   ar
    86   155   154   ar
    87    68    67    1
    88    68    69   ar
    89    67    64    1
    90     9     7   ar
    91   129   128    1
    92    80    79    2
    93    71    69   ar
    94     6     7   ar
    95     6     5    1
    96   154   153    1
    97   125   128    1
    98   125   124    1
    99    98    97    1
   100    98    99   ar
   101    79    81   am
   102    79    78    1
   103     5     2    1
   104   149   150    1
   105    64    65    1
   106    64    63    1
   107    73    74    1
   108    73    65   am
   109    78    77    1
   110    97    94    1
   111   122   121    1
   112    77    74    1
   113   153   150    1
   114    74    75    1
   115   110   108   ar
   116   110   111   ar
   117    65    66    2
   118   150   151    1
   119   108   106   ar
   120   112   111    1
   121     2     3    1
   122     2     1    1
   123   111   109   ar
   124   121   123    1
   125   121   120    2
   126   106   105    1
   127   106   107   ar
   128    96    95    2
   129    94    93    1
   130    94    95    1
   131     3     4    2
   132    92    90   ar
   133    92    91   ar
   134   105   102    1
   135    90    88   ar
   136   119   120    1
   137   119   118    1
   138    75    76    2
   139   109   107   ar
   140   151   152    2
   141    91    89   ar
   142    85    84    2
   143    88    87   ar
   144   118   117    1
   145   104   103    2
   146   102   101    1
   147   102   103    1
   148    89    87   ar
   149    84    83    1
   150    87    86    1
   151   117   114    1
   152    82    83    1
   153    83    86    1
   154   114   113    1
   155   114   115    1
   156   115   116    2
