@<TRIPOS>MOLECULE
tmp/3zxkB01.pdb
 81 79 0 0 0
SMALL
GASTEIGER

@<TRIPOS>ATOM
      1  N         59.7750  -27.9960   50.9280 N.3   144  ASP144     -0.1225
      2  CA        61.0050  -28.7840   50.7120 C.3   144  ASP144      0.1805
      3  C         61.9650  -28.6090   51.8930 C.2   144  ASP144      0.2598
      4  O         61.7460  -27.7470   52.7740 O.2   144  ASP144     -0.2718
      5  CB        61.6810  -28.2950   49.4250 C.3   144  ASP144      0.1424
      6  CG        62.5640  -29.3250   48.7790 C.2   144  ASP144      0.3668
      7  OD1       62.7420  -30.4620   49.3030 O.co2 144  ASP144     -0.2456
      8  OD2       63.1100  -28.9710   47.7000 O.co2 144  ASP144     -0.2456
      9  N         63.0100  -29.4280   51.8990 N.am  145  ASP145     -0.1960
     10  CA        63.9530  -29.4980   53.0130 C.3   145  ASP145      0.1840
     11  C         64.7160  -28.1860   53.1940 C.2   145  ASP145      0.2622
     12  O         65.1760  -27.8850   54.2900 O.2   145  ASP145     -0.2715
     13  CB        64.9220  -30.6770   52.8090 C.3   145  ASP145      0.1450
     14  CG        64.2110  -32.0290   52.7750 C.2   145  ASP145      0.3671
     15  OD1       63.1380  -32.1570   53.3870 O.co2 145  ASP145     -0.2456
     16  OD2       64.7120  -32.9720   52.1080 O.co2 145  ASP145     -0.2456
     17  N         64.8360  -27.4030   52.1300 N.am  146  ASP146     -0.1971
     18  CA        65.4380  -26.0790   52.2240 C.3   146  ASP146      0.1709
     19  C         64.4240  -24.9480   52.4590 C.2   146  ASP146      0.2293
     20  O         64.7620  -23.7790   52.3450 O.2   146  ASP146     -0.2864
     21  CB        66.2670  -25.8030   50.9800 C.3   146  ASP146      0.1436
     22  CG        65.4350  -25.7690   49.7130 C.2   146  ASP146      0.3671
     23  OD1       64.1840  -25.8520   49.7640 O.co2 146  ASP146     -0.2456
     24  OD2       66.0500  -25.6610   48.6370 O.co2 146  ASP146     -0.2456
     25  N         56.5790  -25.5780   46.9420 N.3   150  TYR150     -0.1241
     26  CA        56.1480  -25.9260   45.6050 C.3   150  TYR150      0.1605
     27  C         54.7200  -26.4530   45.6730 C.2   150  TYR150      0.2264
     28  O         54.3170  -27.0790   46.6630 O.2   150  TYR150     -0.2867
     29  CB        57.0480  -27.0300   44.9910 C.3   150  TYR150      0.0534
     30  CG        58.5240  -26.6850   44.9020 C.ar  150  TYR150     -0.0201
     31  CD1       59.0470  -25.9990   43.8020 C.ar  150  TYR150     -0.0009
     32  CD2       59.3970  -27.0300   45.9310 C.ar  150  TYR150     -0.0009
     33  CE1       60.4010  -25.6730   43.7430 C.ar  150  TYR150      0.0417
     34  CE2       60.7300  -26.6980   45.8850 C.ar  150  TYR150      0.0417
     35  CZ        61.2380  -26.0290   44.7790 C.ar  150  TYR150      0.1957
     36  OH        62.5590  -25.7000   44.6940 O.3   150  TYR150     -0.2866
     37  N         58.8580  -34.9930   49.2190 N.3   193  LYS193     -0.1245
     38  CA        60.3110  -35.1260   49.2260 C.3   193  LYS193      0.1561
     39  C         60.6490  -36.3440   50.0800 C.2   193  LYS193      0.2260
     40  O         60.4220  -36.3370   51.2860 O.2   193  LYS193     -0.2867
     41  CB        60.9500  -33.8610   49.8260 C.3   193  LYS193      0.0271
     42  CG        62.4800  -33.9050   49.9290 C.3   193  LYS193      0.0035
     43  CD        63.1640  -33.8260   48.5640 C.3   193  LYS193      0.0206
     44  CE        64.6630  -33.6190   48.6870 C.3   193  LYS193      0.1093
     45  NZ        64.9360  -32.2690   49.2750 N.3   193  LYS193     -0.1314
     46  N         62.0500  -36.3190   44.5800 N.3   198  TYR198     -0.1241
     47  CA        60.7050  -35.7550   44.5080 C.3   198  TYR198      0.1605
     48  C         59.7360  -36.7470   43.9160 C.2   198  TYR198      0.2264
     49  O         60.0380  -37.3670   42.9070 O.2   198  TYR198     -0.2867
     50  CB        60.7200  -34.4900   43.6620 C.3   198  TYR198      0.0534
     51  CG        61.6040  -33.4370   44.2970 C.ar  198  TYR198     -0.0201
     52  CD1       61.0940  -32.5710   45.2700 C.ar  198  TYR198     -0.0009
     53  CD2       62.9640  -33.3690   43.9950 C.ar  198  TYR198     -0.0009
     54  CE1       61.9050  -31.6390   45.8840 C.ar  198  TYR198      0.0417
     55  CE2       63.7850  -32.4500   44.6110 C.ar  198  TYR198      0.0417
     56  CZ        63.2680  -31.5780   45.5570 C.ar  198  TYR198      0.1957
     57  OH        64.1340  -30.6680   46.1550 O.3   198  TYR198     -0.2866
     58  N         65.2340  -36.2470   37.2070 N.3   216  THR216     -0.1203
     59  CA        66.4330  -35.3990   37.2080 C.3   216  THR216      0.1994
     60  C         66.9020  -35.1040   38.6370 C.2   216  THR216      0.2618
     61  O         68.0310  -34.6790   38.8520 O.2   216  THR216     -0.2717
     62  CB        66.1250  -34.0560   36.5230 C.3   216  THR216      0.1784
     63  OG1       65.0150  -33.4580   37.1990 O.3   216  THR216     -0.2211
     64  CG2       65.7590  -34.2660   35.0310 C.3   216  THR216      0.0376
     65  N         66.0350  -35.3530   39.6110 N.am  217  GLY217     -0.1942
     66  CA        66.2280  -34.8770   40.9690 C.3   217  GLY217      0.2014
     67  C         65.7740  -33.4560   41.2260 C.2   217  GLY217      0.2640
     68  O         65.8910  -32.9740   42.3360 O.2   217  GLY217     -0.2714
     69  N         65.2370  -32.7930   40.2050 N.am  218  SER218     -0.1936
     70  CA        64.6010  -31.4610   40.3790 C.3   218  SER218      0.2040
     71  C         63.1160  -31.5780   40.7380 C.2   218  SER218      0.2485
     72  O         62.4350  -32.4670   40.2380 O.2   218  SER218     -0.2729
     73  CB        64.7420  -30.6700   39.0750 C.3   218  SER218      0.2129
     74  OG        63.9940  -29.4610   39.0780 O.3   218  SER218     -0.2179
     75  N         62.6050  -30.6470   41.5670 N.am  219  PRO219     -0.2726
     76  CA        61.1580  -30.6120   41.8090 C.3   219  PRO219      0.1402
     77  C         60.3550  -30.3120   40.5550 C.2   219  PRO219      0.2269
     78  O         59.1590  -30.6400   40.5030 O.2   219  PRO219     -0.2865
     79  CB        60.9970  -29.4600   42.8100 C.3   219  PRO219      0.0296
     80  CG        62.2310  -28.6320   42.6450 C.3   219  PRO219      0.0237
     81  CD        63.3230  -29.6180   42.3550 C.3   219  PRO219      0.0939
@<TRIPOS>BOND
     1    64    62    1
     2    62    63    1
     3    62    59    1
     4    58    59    1
     5    59    60    1
     6    60    61    2
     7    60    65   am
     8    73    74    1
     9    73    70    1
    10    65    66    1
    11    69    70    1
    12    69    67   am
    13    72    71    2
    14    70    71    1
    15    78    77    2
    16    77    76    1
    17    71    75   am
    18    66    67    1
    19    67    68    2
    20    75    76    1
    21    75    81    1
    22    76    79    1
    23    81    80    1
    24    80    79    1
    25    49    48    2
    26    50    51    1
    27    50    47    1
    28    33    31   ar
    29    33    35   ar
    30    31    30   ar
    31    48    47    1
    32    53    51   ar
    33    53    55   ar
    34    51    52   ar
    35    47    46    1
    36    55    56   ar
    37    36    35    1
    38    35    34   ar
    39    30    29    1
    40    30    32   ar
    41    29    26    1
    42    52    54   ar
    43    56    54   ar
    44    56    57    1
    45    26    27    1
    46    26    25    1
    47    27    28    2
    48    34    32   ar
    49     8     6   ar
    50    43    44    1
    51    43    42    1
    52    24    22   ar
    53    44    45    1
    54     6     7   ar
    55     6     5    1
    56    37    38    1
    57    38    41    1
    58    38    39    1
    59     5     2    1
    60    22    23   ar
    61    22    21    1
    62    41    42    1
    63    39    40    2
    64     2     1    1
    65     2     3    1
    66    21    18    1
    67     3     9   am
    68     3     4    2
    69     9    10    1
    70    16    14   ar
    71    17    18    1
    72    17    11   am
    73    18    19    1
    74    20    19    2
    75    14    13    1
    76    14    15   ar
    77    13    10    1
    78    10    11    1
    79    11    12    2
