@<TRIPOS>MOLECULE
tmp/3zxlB00.pdb
 152 149 0 0 0
SMALL
GASTEIGER

@<TRIPOS>ATOM
      1  N          5.6490  -42.7380   18.1650 N.3    17  ASP17      -0.1239
      2  CA         4.5280  -41.8230   17.9210 C.3    17  ASP17       0.1674
      3  C          3.4840  -42.4770   17.0230 C.2    17  ASP17       0.2266
      4  O          2.8810  -41.8340   16.1650 O.2    17  ASP17      -0.2867
      5  CB         5.0540  -40.4900   17.3200 C.3    17  ASP17       0.1410
      6  CG         6.0090  -39.7380   18.3200 C.2    17  ASP17       0.3668
      7  OD1        5.7790  -39.8920   19.5480 O.co2  17  ASP17      -0.2456
      8  OD2        6.9760  -39.0300   17.9070 O.co2  17  ASP17      -0.2456
      9  N         11.4320  -37.4620   12.3680 N.3    34  PHE34      -0.1241
     10  CA        12.3770  -36.3610   12.5800 C.3    34  PHE34       0.1605
     11  C         12.9630  -35.9190   11.2470 C.2    34  PHE34       0.2264
     12  O         12.1650  -35.6690   10.3270 O.2    34  PHE34      -0.2867
     13  CB        13.4040  -36.7610   13.6730 C.3    34  PHE34       0.0534
     14  CG        12.6850  -37.0760   14.9580 C.ar   34  PHE34      -0.0203
     15  CD1       12.3020  -36.0520   15.8010 C.ar   34  PHE34      -0.0042
     16  CD2       12.2200  -38.3580   15.2030 C.ar   34  PHE34      -0.0042
     17  CE1       11.5440  -36.3130   16.9390 C.ar   34  PHE34      -0.0003
     18  CE2       11.4250  -38.6290   16.3270 C.ar   34  PHE34      -0.0003
     19  CZ        11.1080  -37.6080   17.2070 C.ar   34  PHE34      -0.0000
     20  N          7.6860  -34.7940   14.0940 N.3    82  TRP82      -0.1227
     21  CA         7.3970  -35.3300   15.4220 C.3    82  TRP82       0.1737
     22  C          6.0510  -36.1130   15.4010 C.2    82  TRP82       0.2595
     23  O          5.6350  -36.6080   14.3630 O.2    82  TRP82      -0.2718
     24  CB         7.3780  -34.1870   16.4570 C.3    82  TRP82       0.0564
     25  CG         8.7650  -33.6060   16.6940 C.ar   82  TRP82       0.0003
     26  CD1        9.8020  -33.5880   15.8260 C.ar   82  TRP82       0.0946
     27  CD2        9.2420  -32.9990   17.8980 C.ar   82  TRP82       0.0152
     28  NE1       10.9100  -33.0050   16.4130 N.ar   82  TRP82      -0.2442
     29  CE2       10.5840  -32.6230   17.6790 C.ar   82  TRP82       0.0810
     30  CE3        8.6660  -32.7410   19.1450 C.ar   82  TRP82       0.0012
     31  CZ2       11.3640  -31.9950   18.6640 C.ar   82  TRP82       0.0191
     32  CZ3        9.4360  -32.1150   20.1210 C.ar   82  TRP82       0.0001
     33  CH2       10.7700  -31.7460   19.8690 C.ar   82  TRP82       0.0015
     34  N          5.3710  -36.2600   16.5320 N.am   83  ALA83      -0.1980
     35  CA         4.0970  -37.0170   16.5560 C.3    83  ALA83       0.1597
     36  C          3.1030  -36.4200   15.5730 C.2    83  ALA83       0.2287
     37  O          2.7660  -35.2420   15.7070 O.2    83  ALA83      -0.2864
     38  CB         3.4570  -36.9950   17.9770 C.3    83  ALA83       0.0319
     39  N          1.4120  -32.4830   17.9770 N.3   141  ASP141     -0.1239
     40  CA         0.9430  -33.8040   18.4460 C.3   141  ASP141      0.1674
     41  C         -0.5010  -34.0320   18.0090 C.2   141  ASP141      0.2266
     42  O         -1.3970  -34.3130   18.8110 O.2   141  ASP141     -0.2867
     43  CB         1.0450  -33.9380   19.9470 C.3   141  ASP141      0.1410
     44  CG         2.4760  -34.2540   20.4230 C.2   141  ASP141      0.3668
     45  OD1        3.4270  -34.1340   19.6220 O.co2 141  ASP141     -0.2456
     46  OD2        2.6520  -34.6110   21.6050 O.co2 141  ASP141     -0.2456
     47  N         -0.2550  -29.3890   23.7250 N.3   158  ASN158     -0.1240
     48  CA         0.5540  -29.8510   24.8500 C.3   158  ASN158      0.1653
     49  C          0.9070  -28.5510   25.5680 C.2   158  ASN158      0.2266
     50  O          1.5170  -27.6880   24.9650 O.2   158  ASN158     -0.2867
     51  CB         1.8290  -30.5460   24.3580 C.3   158  ASN158      0.1155
     52  CG         2.8650  -30.7390   25.4870 C.2   158  ASN158      0.2627
     53  OD1        2.7960  -30.0550   26.5120 O.2   158  ASN158     -0.2716
     54  ND2        3.8380  -31.6370   25.2840 N.am  158  ASN158     -0.0877
     55  N          3.5520  -37.4930   29.5240 N.3   208  PRO208     -0.2102
     56  CA         4.9080  -37.9850   29.2050 C.3   208  PRO208      0.1504
     57  C          5.6970  -38.3390   30.4870 C.2   208  PRO208      0.2575
     58  O          5.6030  -37.5830   31.4430 O.2   208  PRO208     -0.2718
     59  CB         5.5450  -36.8180   28.4290 C.3   208  PRO208      0.0282
     60  CG         4.3510  -35.9880   27.9130 C.3   208  PRO208      0.0208
     61  CD         3.2720  -36.1580   28.9590 C.3   208  PRO208      0.0893
     62  N          6.3590  -39.4940   30.5690 N.am  209  ALA209     -0.1980
     63  CA         6.2740  -40.5630   29.5740 C.3   209  ALA209      0.1597
     64  C          5.9140  -41.8780   30.2680 C.2   209  ALA209      0.2287
     65  O          6.4550  -42.9400   29.9570 O.2   209  ALA209     -0.2864
     66  CB         7.5910  -40.7100   28.8720 C.3   209  ALA209      0.0319
     67  N          3.4130  -46.3470   26.8400 N.3   246  HIS246     -0.1226
     68  CA         2.5560  -45.1490   26.8370 C.3   246  HIS246      0.1752
     69  C          2.3350  -44.6930   25.3860 C.2   246  HIS246      0.2595
     70  O          2.9130  -45.2700   24.4530 O.2   246  HIS246     -0.2718
     71  CB         3.1960  -44.0010   27.6450 C.3   246  HIS246      0.0759
     72  CG         4.4830  -43.5200   27.0520 C.ar  246  HIS246      0.0818
     73  ND1        5.5650  -44.3530   26.8530 N.ar  246  HIS246     -0.2268
     74  CD2        4.8450  -42.3110   26.5510 C.ar  246  HIS246      0.1154
     75  CE1        6.5400  -43.6770   26.2650 C.ar  246  HIS246      0.1986
     76  NE2        6.1270  -42.4350   26.0660 N.ar  246  HIS246     -0.2212
     77  N          1.5150  -43.6540   25.2360 N.am  247  GLN247     -0.1979
     78  CA         1.1770  -43.0670   23.9370 C.3   247  GLN247      0.1601
     79  C          0.5930  -44.1440   22.9910 C.2   247  GLN247      0.2287
     80  O         -0.0460  -45.0680   23.4650 O.2   247  GLN247     -0.2864
     81  CB         2.3950  -42.3030   23.3370 C.3   247  GLN247      0.0394
     82  CG         1.9970  -40.9890   22.6130 C.3   247  GLN247      0.0908
     83  CD         3.1810  -40.0680   22.2780 C.2   247  GLN247      0.2608
     84  OE1        4.1190  -39.9090   23.0870 O.2   247  GLN247     -0.2717
     85  NE2        3.1240  -39.4210   21.0940 N.am  247  GLN247     -0.0878
     86  N         10.0240  -47.1250   25.7650 N.3   265  ASP265     -0.1239
     87  CA        11.2670  -46.3780   25.5530 C.3   265  ASP265      0.1674
     88  C         12.4540  -47.3330   25.6250 C.2   265  ASP265      0.2266
     89  O         13.2290  -47.2810   26.5680 O.2   265  ASP265     -0.2867
     90  CB        11.4040  -45.2930   26.6320 C.3   265  ASP265      0.1410
     91  CG        10.4540  -44.1040   26.4100 C.2   265  ASP265      0.3668
     92  OD1       10.1150  -43.8680   25.2390 O.co2 265  ASP265     -0.2456
     93  OD2       10.0460  -43.4100   27.3860 O.co2 265  ASP265     -0.2456
     94  N         15.4610  -47.7130   24.6130 N.3   267  TYR267     -0.1241
     95  CA        16.7940  -47.2250   24.2170 C.3   267  TYR267      0.1605
     96  C         17.8280  -48.1640   24.8010 C.2   267  TYR267      0.2264
     97  O         17.6170  -48.6710   25.8890 O.2   267  TYR267     -0.2867
     98  CB        17.0070  -45.8270   24.7910 C.3   267  TYR267      0.0534
     99  CG        16.0590  -44.8420   24.1580 C.ar  267  TYR267     -0.0201
    100  CD1       16.3050  -44.3810   22.8610 C.ar  267  TYR267     -0.0009
    101  CD2       14.9090  -44.3870   24.8280 C.ar  267  TYR267     -0.0009
    102  CE1       15.4400  -43.5030   22.2330 C.ar  267  TYR267      0.0417
    103  CE2       14.0400  -43.4670   24.2010 C.ar  267  TYR267      0.0417
    104  CZ        14.3120  -43.0570   22.8960 C.ar  267  TYR267      0.1957
    105  OH        13.4820  -42.1710   22.2030 O.3   267  TYR267     -0.2866
    106  N         12.1590  -46.7830   20.1880 N.3   271  ARG271     -0.1245
    107  CA        10.8450  -46.9250   20.8280 C.3   271  ARG271      0.1563
    108  C         10.0170  -47.9110   20.0400 C.2   271  ARG271      0.2260
    109  O          9.8030  -47.7230   18.8360 O.2   271  ARG271     -0.2867
    110  CB        10.1780  -45.5550   20.9070 C.3   271  ARG271      0.0307
    111  CG        11.0450  -44.5950   21.8020 C.3   271  ARG271      0.0489
    112  CD        10.4160  -43.2190   22.0310 C.3   271  ARG271      0.2205
    113  NE        10.5790  -42.4220   20.8180 N.pl3 271  ARG271     -0.0865
    114  CZ        10.0360  -41.2330   20.5790 C.cat 271  ARG271      0.5346
    115  NH1        9.2620  -40.6180   21.4740 N.pl3 271  ARG271      0.1354
    116  NH2       10.3010  -40.6580   19.4120 N.pl3 271  ARG271      0.1354
    117  N         17.5040  -48.5780   29.2740 N.3   467  PHE467     -0.1241
    118  CA        16.9750  -47.2600   29.6300 C.3   467  PHE467      0.1605
    119  C         16.7740  -47.1840   31.1490 C.2   467  PHE467      0.2264
    120  O         16.2720  -48.1230   31.7760 O.2   467  PHE467     -0.2867
    121  CB        15.6650  -46.9820   28.8570 C.3   467  PHE467      0.0534
    122  CG        15.2310  -45.5310   28.8770 C.ar  467  PHE467     -0.0203
    123  CD1       16.0760  -44.5440   28.4170 C.ar  467  PHE467     -0.0042
    124  CD2       13.9650  -45.1720   29.3150 C.ar  467  PHE467     -0.0042
    125  CE1       15.6740  -43.1860   28.4030 C.ar  467  PHE467     -0.0003
    126  CE2       13.5280  -43.8410   29.2870 C.ar  467  PHE467     -0.0003
    127  CZ        14.3940  -42.8340   28.8450 C.ar  467  PHE467     -0.0000
    128  N         17.6450  -40.1830   25.6260 N.3   500  TRP500     -0.1241
    129  CA        16.4680  -40.1620   24.7440 C.3   500  TRP500      0.1605
    130  C         16.4200  -38.8990   23.8730 C.2   500  TRP500      0.2264
    131  O         15.5260  -38.7970   23.0330 O.2   500  TRP500     -0.2867
    132  CB        15.1470  -40.2120   25.5650 C.3   500  TRP500      0.0550
    133  CG        15.0790  -39.1230   26.6290 C.ar  500  TRP500      0.0003
    134  CD1       15.4690  -39.2410   27.9390 C.ar  500  TRP500      0.0946
    135  CD2       14.5830  -37.7640   26.4800 C.ar  500  TRP500      0.0152
    136  NE1       15.2500  -38.0510   28.6110 N.ar  500  TRP500     -0.2442
    137  CE2       14.7170  -37.1290   27.7410 C.ar  500  TRP500      0.0810
    138  CE3       14.0340  -37.0340   25.4130 C.ar  500  TRP500      0.0012
    139  CZ2       14.3420  -35.7870   27.9580 C.ar  500  TRP500      0.0191
    140  CZ3       13.6520  -35.6920   25.6300 C.ar  500  TRP500      0.0001
    141  CH2       13.8090  -35.0890   26.8950 C.ar  500  TRP500      0.0015
    142  N         15.8250  -38.6780   20.3440 N.3   503  PHE503     -0.1241
    143  CA        14.5810  -39.4190   20.0680 C.3   503  PHE503      0.1605
    144  C         14.7600  -40.7030   19.2370 C.2   503  PHE503      0.2264
    145  O         14.4250  -41.7950   19.7040 O.2   503  PHE503     -0.2867
    146  CB        13.5230  -38.5140   19.4240 C.3   503  PHE503      0.0534
    147  CG        12.9950  -37.4620   20.3580 C.ar  503  PHE503     -0.0203
    148  CD1       12.3700  -37.8250   21.5440 C.ar  503  PHE503     -0.0042
    149  CD2       13.1300  -36.1140   20.0540 C.ar  503  PHE503     -0.0042
    150  CE1       11.8910  -36.8400   22.4410 C.ar  503  PHE503     -0.0003
    151  CE2       12.6530  -35.1250   20.9280 C.ar  503  PHE503     -0.0003
    152  CZ        12.0270  -35.4920   22.1190 C.ar  503  PHE503     -0.0000
@<TRIPOS>BOND
     1    12    11    2
     2    11    10    1
     3     9    10    1
     4    10    13    1
     5    13    14    1
     6    20    21    1
     7    23    22    2
     8    14    16   ar
     9    14    15   ar
    10    16    18   ar
    11    22    21    1
    12    22    34   am
    13    21    24    1
    14    36    37    2
    15    36    35    1
    16    15    17   ar
    17    26    28   ar
    18    26    25   ar
    19     4     3    2
    20    18    19   ar
    21    28    29   ar
    22    24    25    1
    23    34    35    1
    24    35    38    1
    25    25    27   ar
    26    17    19   ar
    27     3     2    1
    28     5     2    1
    29     5     6    1
    30    29    27   ar
    31    29    31   ar
    32    27    30   ar
    33     8     6   ar
    34     2     1    1
    35    39    40    1
    36    41    40    1
    37    41    42    2
    38     6     7   ar
    39    40    43    1
    40    31    33   ar
    41   109   108    2
    42    30    32   ar
    43   144   145    2
    44   144   143    1
    45   116   114    1
    46   146   143    1
    47   146   147    1
    48    45    44   ar
    49    33    32   ar
    50    43    44    1
    51   108   107    1
    52   149   147   ar
    53   149   151   ar
    54   143   142    1
    55   106   107    1
    56   147   148   ar
    57    44    46   ar
    58   114   113    2
    59   114   115    1
    60   113   112    1
    61   107   110    1
    62   110   111    1
    63   151   152   ar
    64    85    83   am
    65   148   150   ar
    66   111   112    1
    67   152   150   ar
    68   105   104    1
    69   102   100   ar
    70   102   104   ar
    71    83    82    1
    72    83    84    2
    73    82    81    1
    74   100    99   ar
    75   104   103   ar
    76    79    80    2
    77    79    78    1
    78   131   130    2
    79    81    78    1
    80    47    48    1
    81   130   129    1
    82    78    77    1
    83    99    98    1
    84    99   101   ar
    85   103   101   ar
    86    95    94    1
    87    95    98    1
    88    95    96    1
    89    51    48    1
    90    51    52    1
    91    70    69    2
    92   129   132    1
    93   129   128    1
    94    96    97    2
    95    48    49    1
    96    50    49    2
    97    77    69   am
    98    92    91   ar
    99    54    52   am
   100    69    68    1
   101   138   140   ar
   102   138   135   ar
   103    52    53    2
   104    87    88    1
   105    87    86    1
   106    87    90    1
   107   132   133    1
   108    88    89    2
   109   140   141   ar
   110    76    75   ar
   111    76    74   ar
   112    75    73   ar
   113    91    90    1
   114    91    93   ar
   115   135   133   ar
   116   135   137   ar
   117    74    72   ar
   118   133   134   ar
   119    68    67    1
   120    68    71    1
   121    73    72   ar
   122   141   139   ar
   123    72    71    1
   124   137   139   ar
   125   137   136   ar
   126    60    59    1
   127    60    61    1
   128   134   136   ar
   129   125   123   ar
   130   125   127   ar
   131   123   122   ar
   132    59    56    1
   133   127   126   ar
   134   121   122    1
   135   121   118    1
   136    66    63    1
   137   122   124   ar
   138    61    55    1
   139    56    55    1
   140    56    57    1
   141   117   118    1
   142   126   124   ar
   143    63    64    1
   144    63    62    1
   145   118   119    1
   146    65    64    2
   147    57    62   am
   148    57    58    2
   149   119   120    2
