@<TRIPOS>MOLECULE
tmp/3zxsB01.pdb
 184 174 0 0 0
SMALL
GASTEIGER

@<TRIPOS>ATOM
      1  N         16.7750   36.1570  340.9770 N.3     7  VAL7       -0.1231
      2  CA        17.3620   35.2720  339.9750 C.3     7  VAL7        0.1692
      3  C         17.9460   36.0900  338.8450 C.2     7  VAL7        0.2592
      4  O         17.2480   36.7440  338.1080 O.2     7  VAL7       -0.2718
      5  CB        16.3540   34.2620  339.4110 C.3     7  VAL7        0.0266
      6  CG1       17.0450   33.3600  338.4360 C.3     7  VAL7        0.0020
      7  CG2       15.7300   33.4520  340.5540 C.3     7  VAL7        0.0020
      8  N         19.2620   36.0700  338.7570 N.am    8  LEU8       -0.1966
      9  CA        20.0000   36.8150  337.7530 C.3     8  LEU8        0.1728
     10  C         20.0660   35.9750  336.4810 C.2     8  LEU8        0.2617
     11  O         19.6740   34.8140  336.4570 O.2     8  LEU8       -0.2715
     12  CB        21.4030   37.1290  338.2780 C.3     8  LEU8        0.0311
     13  CG        21.5350   38.1530  339.4230 C.3     8  LEU8        0.0022
     14  CD1       22.9700   38.1050  340.0050 C.3     8  LEU8        0.0001
     15  CD2       21.1300   39.6140  338.9930 C.3     8  LEU8        0.0001
     16  N         20.5750   36.5650  335.4140 N.am    9  GLY9       -0.1940
     17  CA        20.5190   35.9260  334.1040 C.3     9  GLY9        0.2014
     18  C         21.4310   34.7240  333.9170 C.2     9  GLY9        0.2638
     19  O         21.2350   33.9560  332.9980 O.2     9  GLY9       -0.2714
     20  N         22.4660   34.5910  334.7310 N.am   10  ASP10      -0.1971
     21  CA        23.2790   33.3980  334.6680 C.3    10  ASP10       0.1709
     22  C         22.8670   32.4120  335.8030 C.2    10  ASP10       0.2293
     23  O         23.6640   31.5900  336.2230 O.2    10  ASP10      -0.2864
     24  CB        24.7560   33.7760  334.7600 C.3    10  ASP10       0.1436
     25  CG        25.1180   34.3550  336.0970 C.2    10  ASP10       0.3671
     26  OD1       24.2630   35.0880  336.6470 O.co2  10  ASP10      -0.2456
     27  OD2       26.2300   34.0850  336.6080 O.co2  10  ASP10      -0.2456
     28  N         14.9880   40.6550  336.3210 N.3    32  ALA32      -0.1231
     29  CA        15.0290   41.9950  335.7490 C.3    32  ALA32       0.1694
     30  C         16.0250   42.0980  334.5710 C.2    32  ALA32       0.2592
     31  O         17.2380   41.7850  334.6960 O.2    32  ALA32      -0.2718
     32  CB        15.3340   43.0000  336.8170 C.3    32  ALA32       0.0304
     33  N         15.4770   42.5080  333.4240 N.am   33  GLU33      -0.1966
     34  CA        16.2570   42.8280  332.2730 C.3    33  GLU33       0.1733
     35  C         16.5180   44.3270  332.3050 C.2    33  GLU33       0.2616
     36  O         15.5840   45.1200  332.2280 O.2    33  GLU33      -0.2715
     37  CB        15.4960   42.4970  331.0340 C.3    33  GLU33       0.0429
     38  CG        14.8080   41.1540  331.0260 C.3    33  GLU33       0.1163
     39  CD        13.9880   40.9440  329.7470 C.2    33  GLU33       0.3649
     40  OE1       13.6080   41.9620  329.0960 O.co2  33  GLU33      -0.2457
     41  OE2       13.7580   39.7680  329.3740 O.co2  33  GLU33      -0.2457
     42  N         17.7780   44.7250  332.4200 N.am   34  VAL34      -0.1977
     43  CA        18.0930   46.1290  332.6900 C.3    34  VAL34       0.1596
     44  C         19.3270   46.6180  331.9630 C.2    34  VAL34       0.2287
     45  O         20.2950   45.8750  331.7280 O.2    34  VAL34      -0.2864
     46  CB        18.3120   46.3650  334.2140 C.3    34  VAL34       0.0276
     47  CG1       17.1430   45.7390  335.0310 C.3    34  VAL34       0.0022
     48  CG2       19.6940   45.8240  334.6750 C.3    34  VAL34       0.0022
     49  N         23.1280   46.0100  333.2160 N.3    37  GLU37      -0.1231
     50  CA        23.7030   44.7120  332.8760 C.3    37  GLU37       0.1699
     51  C         23.8530   44.5320  331.3710 C.2    37  GLU37       0.2592
     52  O         24.7100   43.8120  330.8860 O.2    37  GLU37      -0.2718
     53  CB        22.8560   43.5950  333.4340 C.3    37  GLU37       0.0402
     54  CG        22.7500   43.5920  334.9620 C.3    37  GLU37       0.1161
     55  CD        24.0960   43.7560  335.6490 C.2    37  GLU37       0.3649
     56  OE1       24.9800   42.8760  335.4250 O.co2  37  GLU37      -0.2457
     57  OE2       24.2550   44.7610  336.3960 O.co2  37  GLU37      -0.2457
     58  N         23.0310   45.2290  330.6090 N.am   38  GLY38      -0.1957
     59  CA        23.1990   45.2010  329.1680 C.3    38  GLY38       0.1869
     60  C         24.3300   46.0320  328.6190 C.2    38  GLY38       0.2309
     61  O         24.6480   45.8980  327.4630 O.2    38  GLY38      -0.2863
     62  N         27.3820   47.2760  330.8030 N.3    40  TYR40      -0.1241
     63  CA        28.5510   47.5120  331.6400 C.3    40  TYR40       0.1605
     64  C         29.7990   47.2970  330.8070 C.2    40  TYR40       0.2264
     65  O         30.7590   48.0310  330.9390 O.2    40  TYR40      -0.2867
     66  CB        28.5670   46.6840  332.9310 C.3    40  TYR40       0.0534
     67  CG        28.5630   45.1990  332.8080 C.ar   40  TYR40      -0.0201
     68  CD1       27.3790   44.4950  332.7640 C.ar   40  TYR40      -0.0009
     69  CD2       29.7290   44.4900  332.7690 C.ar   40  TYR40      -0.0009
     70  CE1       27.3630   43.1150  332.6870 C.ar   40  TYR40       0.0417
     71  CE2       29.7300   43.0960  332.6690 C.ar   40  TYR40       0.0417
     72  CZ        28.5520   42.4160  332.6420 C.ar   40  TYR40       0.1957
     73  OH        28.5430   41.0330  332.5550 O.3    40  TYR40      -0.2866
     74  N         28.2650   44.1950  325.3440 N.3    43  HIS43      -0.1241
     75  CA        28.1820   42.7520  325.0290 C.3    43  HIS43       0.1621
     76  C         27.7840   42.5540  323.5710 C.2    43  HIS43       0.2264
     77  O         27.0750   43.3960  322.9850 O.2    43  HIS43      -0.2867
     78  CB        27.0940   42.0940  325.8350 C.3    43  HIS43       0.0745
     79  CG        27.2000   42.2710  327.3150 C.ar   43  HIS43       0.0817
     80  ND1       28.0430   41.5060  328.1010 N.ar   43  HIS43      -0.2268
     81  CD2       26.4780   43.0380  328.1650 C.ar   43  HIS43       0.1154
     82  CE1       27.8680   41.8350  329.3640 C.ar   43  HIS43       0.1986
     83  NE2       26.9350   42.7760  329.4310 N.ar   43  HIS43      -0.2212
     84  N         24.9660   37.5960  322.8010 N.3    47  LYS47      -0.1231
     85  CA        24.9840   37.3000  324.2140 C.3    47  LYS47       0.1693
     86  C         23.7760   37.9250  324.8800 C.2    47  LYS47       0.2591
     87  O         23.1290   37.2690  325.6850 O.2    47  LYS47      -0.2718
     88  CB        26.2930   37.6770  324.9110 C.3    47  LYS47       0.0285
     89  CG        26.1960   37.5540  326.4310 C.3    47  LYS47       0.0035
     90  CD        27.5290   37.5240  327.1500 C.3    47  LYS47       0.0206
     91  CE        28.5680   38.5470  326.6930 C.3    47  LYS47       0.1093
     92  NZ        29.4290   38.9540  327.8260 N.3    47  LYS47      -0.1314
     93  N         23.4620   39.1710  324.5390 N.am   48  ILE48      -0.1980
     94  CA        22.3290   39.8420  325.1660 C.3    48  ILE48       0.1595
     95  C         21.0390   39.0890  324.8460 C.2    48  ILE48       0.2287
     96  O         20.2140   38.8020  325.7280 O.2    48  ILE48      -0.2864
     97  CB        22.1560   41.2660  324.7240 C.3    48  ILE48       0.0276
     98  CG1       23.4180   42.1160  325.0430 C.3    48  ILE48       0.0022
     99  CG2       20.9490   41.8080  325.4130 C.3    48  ILE48       0.0022
    100  CD1       23.3130   43.6020  324.5990 C.3    48  ILE48       0.0001
    101  N         20.7480   35.7500  326.8600 N.3    51  ILE51      -0.1231
    102  CA        20.4450   35.9050  328.2670 C.3    51  ILE51       0.1692
    103  C         18.9920   36.3410  328.4350 C.2    51  ILE51       0.2591
    104  O         18.3000   35.8040  329.2600 O.2    51  ILE51      -0.2718
    105  CB        21.4330   36.8590  328.9020 C.3    51  ILE51       0.0266
    106  CG1       22.8160   36.1800  328.9530 C.3    51  ILE51       0.0019
    107  CG2       21.0530   37.1760  330.2810 C.3    51  ILE51       0.0020
    108  CD1       23.9770   37.0840  329.3770 C.3    51  ILE51       0.0001
    109  N         18.5160   37.2890  327.6460 N.am   52  LEU52      -0.1980
    110  CA        17.1590   37.7790  327.8440 C.3    52  LEU52       0.1596
    111  C         16.1350   36.6980  327.4330 C.2    52  LEU52       0.2287
    112  O         15.1240   36.4980  328.0950 O.2    52  LEU52      -0.2864
    113  CB        16.9370   39.0920  327.0810 C.3    52  LEU52       0.0297
    114  CG        17.3150   40.4630  327.7400 C.3    52  LEU52       0.0022
    115  CD1       18.5990   40.4980  328.6070 C.3    52  LEU52       0.0001
    116  CD2       17.4250   41.5700  326.7040 C.3    52  LEU52       0.0001
    117  N         16.1740   34.0460  330.0370 N.3    55  MET55      -0.1245
    118  CA        15.5330   34.5710  331.2480 C.3    55  MET55       0.1570
    119  C         14.0400   34.4300  331.1780 C.2    55  MET55       0.2261
    120  O         13.4010   33.9430  332.1260 O.2    55  MET55      -0.2867
    121  CB        15.9000   36.0320  331.5050 C.3    55  MET55       0.0387
    122  CG        17.2860   36.1300  332.1950 C.3    55  MET55       0.0595
    123  SD        17.8540   37.8060  332.4080 S.3    55  MET55      -0.1393
    124  CE        16.6610   38.3910  333.6200 C.3    55  MET55       0.0692
    125  N         12.9600   44.5130  329.6980 N.3    74  LEU74      -0.1245
    126  CA        13.8380   45.5950  329.2900 C.3    74  LEU74       0.1561
    127  C         13.0430   46.6370  328.5320 C.2    74  LEU74       0.2260
    128  O         13.3250   47.8030  328.6230 O.2    74  LEU74      -0.2867
    129  CB        14.9910   45.0770  328.4420 C.3    74  LEU74       0.0270
    130  CG        16.1240   46.0640  328.1250 C.3    74  LEU74       0.0019
    131  CD1       17.0130   46.2240  329.3340 C.3    74  LEU74       0.0001
    132  CD2       16.9300   45.5790  326.8900 C.3    74  LEU74       0.0001
    133  N         19.7650   46.2340  338.5280 N.3    83  ILE83      -0.1245
    134  CA        19.1450   45.1910  339.3330 C.3    83  ILE83       0.1561
    135  C         18.7030   45.7760  340.6800 C.2    83  ILE83       0.2260
    136  O         17.5850   45.5550  341.1750 O.2    83  ILE83      -0.2867
    137  CB        20.1000   44.0030  339.5500 C.3    83  ILE83       0.0252
    138  CG1       20.4130   43.3380  338.2090 C.3    83  ILE83       0.0019
    139  CG2       19.4830   42.9270  340.4840 C.3    83  ILE83       0.0019
    140  CD1       19.1910   42.6380  337.5380 C.3    83  ILE83       0.0001
    141  N         26.5640   36.3000  342.9080 N.3   104  PRO104     -0.2102
    142  CA        26.8360   36.4450  341.4750 C.3   104  PRO104      0.1504
    143  C         28.3000   36.2300  341.1090 C.2   104  PRO104      0.2576
    144  O         29.1410   36.1420  341.9880 O.2   104  PRO104     -0.2718
    145  CB        26.4710   37.8860  341.2110 C.3   104  PRO104      0.0282
    146  CG        25.5910   38.2840  342.3610 C.3   104  PRO104      0.0208
    147  CD        26.0720   37.5600  343.4990 C.3   104  PRO104      0.0893
    148  N         28.6150   36.1520  339.8260 N.am  105  GLY105     -0.1943
    149  CA        29.9940   35.9700  339.4160 C.3   105  GLY105      0.2014
    150  C         30.5650   37.2250  338.7920 C.2   105  GLY105      0.2638
    151  O         31.1690   37.1700  337.7360 O.2   105  GLY105     -0.2714
    152  N         30.3390   38.3650  339.4210 N.am  106  ASP106     -0.1971
    153  CA        30.8060   39.6410  338.9080 C.3   106  ASP106      0.1709
    154  C         30.9740   40.5470  340.0930 C.2   106  ASP106      0.2293
    155  O         30.0090   40.7970  340.8170 O.2   106  ASP106     -0.2864
    156  CB        29.8000   40.2230  337.9350 C.3   106  ASP106      0.1436
    157  CG        30.2840   41.5120  337.3050 C.2   106  ASP106      0.3671
    158  OD1       30.5260   42.4210  338.1070 O.co2 106  ASP106     -0.2456
    159  OD2       30.4360   41.6410  336.0520 O.co2 106  ASP106     -0.2456
    160  N         28.7570   43.6550  340.2650 N.3   109  LEU109     -0.1245
    161  CA        27.4040   43.3830  340.6840 C.3   109  LEU109      0.1561
    162  C         27.3400   43.0080  342.1580 C.2   109  LEU109      0.2260
    163  O         26.4250   43.4090  342.8540 O.2   109  LEU109     -0.2867
    164  CB        26.7630   42.2950  339.8330 C.3   109  LEU109      0.0270
    165  CG        25.2260   42.1830  339.9430 C.3   109  LEU109      0.0019
    166  CD1       24.5010   43.5360  339.8070 C.3   109  LEU109      0.0001
    167  CD2       24.6970   41.1930  338.9350 C.3   109  LEU109      0.0001
    168  N         31.2610   35.8320  331.0530 N.3   395  LEU395     -0.1231
    169  CA        30.8840   36.4910  332.3050 C.3   395  LEU395      0.1693
    170  C         32.1620   36.6490  333.1000 C.2   395  LEU395      0.2591
    171  O         33.0610   35.8450  332.9570 O.2   395  LEU395     -0.2718
    172  CB        29.9600   35.6040  333.0690 C.3   395  LEU395      0.0284
    173  CG        28.6720   35.2010  332.3760 C.3   395  LEU395      0.0019
    174  CD1       28.0230   33.9950  333.1090 C.3   395  LEU395      0.0001
    175  CD2       27.7510   36.3990  332.3540 C.3   395  LEU395      0.0001
    176  N         32.2520   37.6610  333.9550 N.am  396  GLU396     -0.1979
    177  CA        33.5130   37.9620  334.6480 C.3   396  GLU396      0.1602
    178  C         34.2020   36.7630  335.2600 C.2   396  GLU396      0.2287
    179  O         35.4020   36.5980  335.1120 O.2   396  GLU396     -0.2864
    180  CB        33.3190   38.9810  335.7420 C.3   396  GLU396      0.0415
    181  CG        34.6370   39.7030  336.0960 C.3   396  GLU396      0.1163
    182  CD        34.5060   40.6010  337.3410 C.2   396  GLU396      0.3649
    183  OE1       34.0860   40.0910  338.4040 O.co2 396  GLU396     -0.2457
    184  OE2       34.8190   41.8060  337.2700 O.co2 396  GLU396     -0.2457
@<TRIPOS>BOND
     1    84    85    1
     2    77    76    2
     3    76    75    1
     4    85    86    1
     5    85    88    1
     6    93    86   am
     7    93    94    1
     8   100    98    1
     9    97    98    1
    10    97    94    1
    11    97    99    1
    12    95    94    1
    13    95    96    2
    14    86    87    2
    15    88    89    1
    16    75    74    1
    17    75    78    1
    18    78    79    1
    19    89    90    1
    20    91    90    1
    21    91    92    1
    22   116   114    1
    23   101   102    1
    24   132   130    1
    25   113   114    1
    26   113   110    1
    27    79    80   ar
    28    79    81   ar
    29   111   110    1
    30   111   112    2
    31    61    60    2
    32   109   110    1
    33   109   103   am
    34   114   115    1
    35    80    82   ar
    36   130   129    1
    37   130   131    1
    38    81    83   ar
    39   102   103    1
    40   102   105    1
    41   103   104    2
    42   129   126    1
    43   127   128    2
    44   127   126    1
    45    60    59    1
    46   105   106    1
    47   105   107    1
    48   106   108    1
    49    40    39   ar
    50    59    58    1
    51   126   125    1
    52    82    83   ar
    53    41    39   ar
    54    39    38    1
    55   117   118    1
    56    58    51   am
    57    62    63    1
    58    64    65    2
    59    64    63    1
    60    52    51    2
    61    38    37    1
    62    37    34    1
    63   168   169    1
    64   119   118    1
    65   119   120    2
    66   118   121    1
    67    51    50    1
    68   121   122    1
    69    63    66    1
    70    45    44    2
    71    44    43    1
    72   122   123    1
    73    36    35    2
    74    34    35    1
    75    34    33    1
    76   169   172    1
    77   169   170    1
    78    35    42   am
    79   175   173    1
    80   173   172    1
    81   173   174    1
    82   123   124    1
    83    42    43    1
    84    73    72    1
    85    72    71   ar
    86    72    70   ar
    87    71    69   ar
    88    70    68   ar
    89    43    46    1
    90    68    67   ar
    91    69    67   ar
    92    67    66    1
    93    50    49    1
    94    50    53    1
    95   171   170    2
    96    19    18    2
    97   170   176   am
    98    33    30   am
    99    53    54    1
   100    18    17    1
   101    18    20   am
   102   176   177    1
   103    17    16    1
   104    46    48    1
   105    46    47    1
   106    30    31    2
   107    30    29    1
   108   177   178    1
   109   177   180    1
   110    21    20    1
   111    21    24    1
   112    21    22    1
   113    24    25    1
   114    54    55    1
   115   179   178    2
   116    16    10   am
   117    56    55   ar
   118    55    57   ar
   119   180   181    1
   120    29    28    1
   121    29    32    1
   122    22    23    2
   123   159   157   ar
   124   181   182    1
   125    25    27   ar
   126    25    26   ar
   127    11    10    2
   128    10     9    1
   129   184   182   ar
   130   157   156    1
   131   157   158   ar
   132   182   183   ar
   133   140   138    1
   134   151   150    2
   135     9    12    1
   136     9     8    1
   137   156   153    1
   138     4     3    2
   139   138   137    1
   140    12    13    1
   141     6     5    1
   142   133   134    1
   143     8     3   am
   144   150   149    1
   145   150   152   am
   146     3     2    1
   147   153   152    1
   148   153   154    1
   149   167   165    1
   150    15    13    1
   151   134   137    1
   152   134   135    1
   153     5     2    1
   154     5     7    1
   155   149   148    1
   156    13    14    1
   157   137   139    1
   158   166   165    1
   159   148   143   am
   160   164   165    1
   161   164   161    1
   162     2     1    1
   163   154   155    2
   164   160   161    1
   165   135   136    2
   166   161   162    1
   167   143   142    1
   168   143   144    2
   169   145   142    1
   170   145   146    1
   171   142   141    1
   172   162   163    2
   173   146   147    1
   174   141   147    1
