@<TRIPOS>MOLECULE
tmp/3zxtA00.pdb
 186 176 0 0 0
SMALL
GASTEIGER

@<TRIPOS>ATOM
      1  N         66.7160   21.0940   38.4070 N.3    13  LEU13      -0.1231
      2  CA        65.8300   20.1480   39.0740 C.3    13  LEU13       0.1693
      3  C         66.2350   20.0700   40.5300 C.2    13  LEU13       0.2593
      4  O         65.5400   19.4680   41.3500 O.2    13  LEU13      -0.2718
      5  CB        66.0300   18.7510   38.5090 C.3    13  LEU13       0.0284
      6  CG        65.9170   18.4520   37.0310 C.3    13  LEU13       0.0019
      7  CD1       66.9740   17.3990   36.7380 C.3    13  LEU13       0.0001
      8  CD2       64.5150   17.9600   36.6840 C.3    13  LEU13       0.0001
      9  N         67.4020   20.6230   40.8410 N.am   14  GLY14      -0.1942
     10  CA        67.8930   20.5840   42.1970 C.3    14  GLY14       0.2014
     11  C         69.1390   21.3970   42.4160 C.2    14  GLY14       0.2640
     12  O         69.7900   21.8360   41.4610 O.2    14  GLY14      -0.2714
     13  N         69.4550   21.5900   43.6960 N.am   15  SER15      -0.1935
     14  CA        70.6940   22.2230   44.1150 C.3    15  SER15       0.2055
     15  C         71.2670   21.6080   45.3820 C.2    15  SER15       0.2644
     16  O         70.5890   20.8610   46.0870 O.2    15  SER15      -0.2714
     17  CB        70.4930   23.7150   44.3230 C.3    15  SER15       0.2130
     18  OG        71.6980   24.3970   44.0270 O.3    15  SER15      -0.2179
     19  N         72.5360   21.9150   45.6360 N.am   16  GLY16      -0.1939
     20  CA        73.2330   21.5920   46.8750 C.3    16  GLY16       0.2014
     21  C         74.3140   22.6430   47.0310 C.2    16  GLY16       0.2639
     22  O         74.2830   23.6820   46.3420 O.2    16  GLY16      -0.2714
     23  N         75.2730   22.3950   47.9290 N.am   17  GLN17      -0.1963
     24  CA        76.3800   23.3630   48.1340 C.3    17  GLN17       0.1733
     25  C         77.2900   23.4560   46.8960 C.2    17  GLN17       0.2616
     26  O         77.5990   24.5470   46.4310 O.2    17  GLN17      -0.2715
     27  CB        77.1820   23.0830   49.4310 C.3    17  GLN17       0.0408
     28  CG        76.4160   23.2470   50.7420 C.3    17  GLN17       0.0908
     29  CD        75.8380   24.6290   50.9010 C.2    17  GLN17       0.2608
     30  OE1       76.5860   25.6170   50.7660 O.2    17  GLN17      -0.2717
     31  NE2       74.5560   24.7410   51.0530 N.am   17  GLN17      -0.0878
     32  N         77.6930   22.3110   46.3480 N.am   18  PHE18      -0.1960
     33  CA        78.6570   22.3230   45.2350 C.3    18  PHE18       0.1771
     34  C         78.2300   21.5420   43.9810 C.2    18  PHE18       0.2619
     35  O         79.0770   21.0530   43.2100 O.2    18  PHE18      -0.2715
     36  CB        80.0340   21.8590   45.7180 C.3    18  PHE18       0.0574
     37  CG        80.4650   22.4870   47.0070 C.ar   18  PHE18      -0.0200
     38  CD1       81.0000   23.7820   47.0220 C.ar   18  PHE18      -0.0042
     39  CD2       80.3400   21.7830   48.2100 C.ar   18  PHE18      -0.0042
     40  CE1       81.4050   24.3600   48.2190 C.ar   18  PHE18      -0.0003
     41  CE2       80.7420   22.3580   49.4060 C.ar   18  PHE18      -0.0003
     42  CZ        81.2820   23.6460   49.4100 C.ar   18  PHE18      -0.0000
     43  N         76.9180   21.4530   43.7820 N.am   19  ALA19      -0.1977
     44  CA        76.3520   20.7060   42.6720 C.3    19  ALA19       0.1597
     45  C         75.0230   21.2950   42.1860 C.2    19  ALA19       0.2287
     46  O         74.1500   21.6460   42.9870 O.2    19  ALA19      -0.2864
     47  CB        76.1840   19.2300   43.0550 C.3    19  ALA19       0.0319
     48  N         71.9170   20.1180   39.5850 N.3    21  VAL21      -0.1245
     49  CA        71.3760   19.0800   38.7510 C.3    21  VAL21       0.1561
     50  C         70.3480   19.7040   37.8220 C.2    21  VAL21       0.2260
     51  O         69.3260   20.2260   38.2700 O.2    21  VAL21      -0.2867
     52  CB        70.7410   17.9480   39.5790 C.3    21  VAL21       0.0252
     53  CG1       70.2390   16.8500   38.6560 C.3    21  VAL21       0.0019
     54  CG2       71.7310   17.3900   40.5990 C.3    21  VAL21       0.0019
     55  N         69.1610   13.3510   33.6890 N.3    34  ALA34      -0.1245
     56  CA        69.4930   14.3140   34.7370 C.3    34  ALA34       0.1562
     57  C         71.0100   14.5370   34.8210 C.2    34  ALA34       0.2260
     58  O         71.7560   13.6630   35.2370 O.2    34  ALA34      -0.2867
     59  CB        68.9550   13.8170   36.0760 C.3    34  ALA34       0.0290
     60  N         74.3030   15.9490   36.5000 N.3    36  LYS36      -0.1245
     61  CA        74.8500   16.4180   37.7750 C.3    36  LYS36       0.1561
     62  C         76.2140   17.0400   37.5470 C.2    36  LYS36       0.2260
     63  O         77.1990   16.3410   37.2940 O.2    36  LYS36      -0.2867
     64  CB        74.9400   15.2750   38.8060 C.3    36  LYS36       0.0271
     65  CG        75.1630   15.7380   40.2450 C.3    36  LYS36       0.0035
     66  CD        75.1630   14.5870   41.2310 C.3    36  LYS36       0.0206
     67  CE        75.5180   15.0470   42.6400 C.3    36  LYS36       0.1093
     68  NZ        75.0230   14.1450   43.7270 N.3    36  LYS36      -0.1314
     69  N         82.1760    8.4110   43.8910 N.3    50  GLU50      -0.1245
     70  CA        80.7870    8.4730   43.5090 C.3    50  GLU50       0.1567
     71  C         80.5510    7.7920   42.1590 C.2    50  GLU50       0.2260
     72  O         79.5530    7.0750   41.9870 O.2    50  GLU50      -0.2867
     73  CB        80.2970    9.9070   43.4900 C.3    50  GLU50       0.0388
     74  CG        78.7800   10.0420   43.3900 C.3    50  GLU50       0.1160
     75  CD        78.3250   11.4720   43.5930 C.2    50  GLU50       0.3649
     76  OE1       79.1860   12.3300   43.9130 O.co2  50  GLU50      -0.2457
     77  OE2       77.1160   11.7330   43.4210 O.co2  50  GLU50      -0.2457
     78  N         69.3720    4.6680   40.8760 N.3    63  ILE63      -0.1245
     79  CA        69.5500    5.4710   39.7230 C.3    63  ILE63       0.1561
     80  C         70.7300    4.8880   38.9650 C.2    63  ILE63       0.2260
     81  O         71.6730    4.3950   39.5740 O.2    63  ILE63      -0.2867
     82  CB        69.7430    6.9400   40.1960 C.3    63  ILE63       0.0252
     83  CG1       69.1470    7.9100   39.1790 C.3    63  ILE63       0.0019
     84  CG2       71.1810    7.2750   40.5980 C.3    63  ILE63       0.0019
     85  CD1       67.7110    8.2570   39.4710 C.3    63  ILE63       0.0001
     86  N         72.8460   11.1960   34.3650 N.3    79  LEU79      -0.1231
     87  CA        72.2440   10.1620   35.1810 C.3    79  LEU79       0.1693
     88  C         70.8460    9.8990   34.7500 C.2    79  LEU79       0.2592
     89  O         70.1800   10.7800   34.2190 O.2    79  LEU79      -0.2718
     90  CB        72.1680   10.5980   36.6350 C.3    79  LEU79       0.0284
     91  CG        73.3920   11.1400   37.3490 C.3    79  LEU79       0.0019
     92  CD1       72.9300   11.7600   38.6530 C.3    79  LEU79       0.0001
     93  CD2       74.4420   10.0660   37.5570 C.3    79  LEU79       0.0001
     94  N         70.3900    8.6860   35.0220 N.am   80  GLU80      -0.1966
     95  CA        69.0040    8.3830   34.8640 C.3    80  GLU80       0.1733
     96  C         68.1290    9.5330   35.4090 C.2    80  GLU80       0.2616
     97  O         68.2880    9.9580   36.5730 O.2    80  GLU80      -0.2715
     98  CB        68.7030    7.1030   35.6200 C.3    80  GLU80       0.0429
     99  CG        67.2490    6.6640   35.5060 C.3    80  GLU80       0.1163
    100  CD        67.0340    5.2120   35.9170 C.2    80  GLU80       0.3649
    101  OE1       67.8770    4.6370   36.6660 O.co2  80  GLU80      -0.2457
    102  OE2       66.0080    4.6410   35.4920 O.co2  80  GLU80      -0.2457
    103  N         67.2150   10.0320   34.5760 N.am   81  LEU81      -0.1963
    104  CA        66.2390   11.0420   34.9770 C.3    81  LEU81       0.1728
    105  C         65.2120   10.4240   35.8870 C.2    81  LEU81       0.2616
    106  O         64.8610    9.2790   35.7030 O.2    81  LEU81      -0.2715
    107  CB        65.5290   11.5880   33.7510 C.3    81  LEU81       0.0311
    108  CG        64.4500   12.6320   34.0080 C.3    81  LEU81       0.0022
    109  CD1       65.0020   13.8260   34.7740 C.3    81  LEU81       0.0001
    110  CD2       63.7570   13.0550   32.7130 C.3    81  LEU81       0.0001
    111  N         64.7520   11.1570   36.8980 N.am   82  VAL82      -0.1977
    112  CA        63.5610   10.7350   37.6410 C.3    82  VAL82       0.1596
    113  C         62.5770   11.8890   37.7740 C.2    82  VAL82       0.2287
    114  O         62.9190   12.9430   38.3480 O.2    82  VAL82      -0.2864
    115  CB        63.8820   10.2370   39.0440 C.3    82  VAL82       0.0276
    116  CG1       62.8220    9.2410   39.4770 C.3    82  VAL82       0.0022
    117  CG2       65.2760    9.6390   39.1250 C.3    82  VAL82       0.0022
    118  N         60.9230   14.6750   44.5930 N.3    86  GLU86      -0.1245
    119  CA        61.3770   14.0460   45.8460 C.3    86  GLU86       0.1567
    120  C         60.2620   13.4620   46.6890 C.2    86  GLU86       0.2260
    121  O         59.2340   14.1120   46.8960 O.2    86  GLU86      -0.2867
    122  CB        62.0890   15.0720   46.7300 C.3    86  GLU86       0.0388
    123  CG        63.4320   15.5810   46.2550 C.3    86  GLU86       0.1160
    124  CD        63.9170   16.7980   47.0410 C.2    86  GLU86       0.3649
    125  OE1       63.3650   17.0990   48.1370 O.co2  86  GLU86      -0.2457
    126  OE2       64.8610   17.4690   46.5500 O.co2  86  GLU86      -0.2457
    127  N         73.6550    8.3620   53.3720 N.3   125  ASP125     -0.1239
    128  CA        72.9270    9.5960   53.2040 C.3   125  ASP125      0.1674
    129  C         71.4260    9.3210   52.9150 C.2   125  ASP125      0.2266
    130  O         70.7520   10.1400   52.2590 O.2   125  ASP125     -0.2867
    131  CB        73.5520   10.3590   52.0590 C.3   125  ASP125      0.1410
    132  CG        73.4460   11.8650   52.2280 C.2   125  ASP125      0.3668
    133  OD1       72.9120   12.2800   53.2760 O.co2 125  ASP125     -0.2456
    134  OD2       73.8880   12.6160   51.3050 O.co2 125  ASP125     -0.2456
    135  N         65.0350   13.6830   50.8270 N.3   129  GLU129     -0.1231
    136  CA        65.5350   14.5080   49.7010 C.3   129  GLU129      0.1699
    137  C         66.4090   13.6850   48.7290 C.2   129  GLU129      0.2592
    138  O         66.6810   14.0830   47.6030 O.2   129  GLU129     -0.2718
    139  CB        66.1940   15.8450   50.1660 C.3   129  GLU129      0.0402
    140  CG        67.5530   15.8150   50.8900 C.3   129  GLU129      0.1161
    141  CD        68.3650   17.1530   50.8770 C.2   129  GLU129      0.3649
    142  OE1       67.9020   18.2350   50.4400 O.co2 129  GLU129     -0.2457
    143  OE2       69.5440   17.1550   51.3040 O.co2 129  GLU129     -0.2457
    144  N         66.8290   12.5120   49.1560 N.am  130  ASN130     -0.1974
    145  CA        67.6390   11.6680   48.3250 C.3   130  ASN130      0.1688
    146  C         66.8310   10.4950   47.7920 C.2   130  ASN130      0.2292
    147  O         67.3750    9.6160   47.1290 O.2   130  ASN130     -0.2864
    148  CB        68.9060   11.2380   49.0700 C.3   130  ASN130      0.1181
    149  CG        69.9250   12.3690   49.1900 C.2   130  ASN130      0.2629
    150  OD1       70.8040   12.3580   50.0590 O.2   130  ASN130     -0.2716
    151  ND2       69.8110   13.3570   48.3180 N.am  130  ASN130     -0.0877
    152  N         63.3600    9.5000   45.4420 N.3   132  MET132     -0.1245
    153  CA        62.8130   10.1970   44.2900 C.3   132  MET132      0.1570
    154  C         61.6960    9.3550   43.6990 C.2   132  MET132      0.2261
    155  O         61.7990    8.1140   43.6310 O.2   132  MET132     -0.2867
    156  CB        63.9330   10.3040   43.2770 C.3   132  MET132      0.0387
    157  CG        63.9150   11.5410   42.4410 C.3   132  MET132      0.0595
    158  SD        64.8480   12.8710   43.1920 S.3   132  MET132     -0.1393
    159  CE        64.1820   14.1450   42.1250 C.3   132  MET132      0.0692
    160  N         68.5630    8.0180   45.1250 N.3   145  ILE145     -0.1231
    161  CA        69.5440    8.8340   44.4440 C.3   145  ILE145      0.1692
    162  C         70.6460    9.2540   45.4300 C.2   145  ILE145      0.2592
    163  O         70.6390    8.8270   46.5770 O.2   145  ILE145     -0.2718
    164  CB        68.8940   10.0860   43.7930 C.3   145  ILE145      0.0266
    165  CG1       68.3640   11.0340   44.8560 C.3   145  ILE145      0.0019
    166  CG2       67.7680    9.6940   42.8760 C.3   145  ILE145      0.0020
    167  CD1       68.3600   12.4820   44.4240 C.3   145  ILE145      0.0001
    168  N         71.5530   10.1060   44.9300 N.am  146  ASP146     -0.1960
    169  CA        72.5890   10.8450   45.6620 C.3   146  ASP146      0.1840
    170  C         73.5790    9.9350   46.3090 C.2   146  ASP146      0.2622
    171  O         73.4240    9.5260   47.4450 O.2   146  ASP146     -0.2715
    172  CB        72.0300   11.8460   46.6750 C.3   146  ASP146      0.1450
    173  CG        73.1260   12.6660   47.3530 C.2   146  ASP146      0.3671
    174  OD1       74.3260   12.5320   47.0120 O.co2 146  ASP146     -0.2456
    175  OD2       72.7730   13.4580   48.2330 O.co2 146  ASP146     -0.2456
    176  N         74.6070    9.6130   45.5610 N.am  147  PHE147     -0.1974
    177  CA        75.6060    8.7150   46.0570 C.3   147  PHE147      0.1639
    178  C         76.8610    9.4770   46.4140 C.2   147  PHE147      0.2290
    179  O         76.8560   10.6990   46.6440 O.2   147  PHE147     -0.2864
    180  CB        75.8280    7.5910   45.0540 C.3   147  PHE147      0.0560
    181  CG        74.7230    6.5490   45.0490 C.ar  147  PHE147     -0.0200
    182  CD1       73.4950    6.8140   44.4750 C.ar  147  PHE147     -0.0042
    183  CD2       74.9320    5.2840   45.6100 C.ar  147  PHE147     -0.0042
    184  CE1       72.4990    5.8510   44.4820 C.ar  147  PHE147     -0.0003
    185  CE2       73.9280    4.3150   45.6450 C.ar  147  PHE147     -0.0003
    186  CZ        72.7080    4.5890   45.0620 C.ar  147  PHE147     -0.0000
@<TRIPOS>BOND
     1   110   108    1
     2    55    56    1
     3   107   108    1
     4   107   104    1
     5   108   109    1
     6    89    88    2
     7    86    87    1
     8   103   104    1
     9   103    96   am
    10    56    57    1
    11    56    59    1
    12    88    94   am
    13    88    87    1
    14    57    58    2
    15    95    94    1
    16    95    96    1
    17    95    98    1
    18   104   105    1
    19    87    90    1
    20    96    97    2
    21   102   100   ar
    22    99    98    1
    23    99   100    1
    24   106   105    2
    25   105   111   am
    26   100   101   ar
    27    60    61    1
    28    90    91    1
    29     8     6    1
    30     7     6    1
    31   111   112    1
    32     6     5    1
    33    63    62    2
    34    91    93    1
    35    91    92    1
    36    62    61    1
    37   112   113    1
    38   112   115    1
    39   113   114    2
    40    61    64    1
    41    50    51    2
    42    50    49    1
    43     1     2    1
    44     5     2    1
    45    53    52    1
    46    49    52    1
    47    49    48    1
    48    64    65    1
    49    80    81    2
    50    80    79    1
    51   115   117    1
    52   115   116    1
    53     2     3    1
    54    83    85    1
    55    83    82    1
    56    52    54    1
    57    79    82    1
    58    79    78    1
    59    82    84    1
    60    65    66    1
    61     3     9   am
    62     3     4    2
    63     9    10    1
    64    66    67    1
    65    12    11    2
    66    72    71    2
    67   159   158    1
    68    71    70    1
    69    45    44    1
    70    45    46    2
    71    10    11    1
    72    11    13   am
    73   157   158    1
    74   157   156    1
    75    67    68    1
    76    44    47    1
    77    44    43    1
    78   166   164    1
    79    35    34    2
    80   156   153    1
    81    74    73    1
    82    74    75    1
    83    77    75   ar
    84    73    70    1
    85    70    69    1
    86    75    76   ar
    87   155   154    2
    88    13    14    1
    89   154   153    1
    90    43    34   am
    91   164   161    1
    92   164   165    1
    93    34    33    1
    94    18    17    1
    95    14    17    1
    96    14    15    1
    97   153   152    1
    98   167   165    1
    99   161   160    1
   100   161   162    1
   101   182   184   ar
   102   182   181   ar
   103   184   186   ar
   104   118   119    1
   105   168   162   am
   106   168   169    1
   107   181   180    1
   108   181   183   ar
   109   180   177    1
   110   186   185   ar
   111    33    36    1
   112    33    32    1
   113    15    19   am
   114    15    16    2
   115   162   163    2
   116   176   177    1
   117   176   170   am
   118   183   185   ar
   119    19    20    1
   120   169   170    1
   121   169   172    1
   122    36    37    1
   123   119   120    1
   124   119   122    1
   125   177   178    1
   126   123   122    1
   127   123   124    1
   128   170   171    2
   129    22    21    2
   130    32    25   am
   131   178   179    2
   132    26    25    2
   133   126   124   ar
   134   172   173    1
   135   120   121    2
   136    20    21    1
   137    25    24    1
   138    37    38   ar
   139    37    39   ar
   140   174   173   ar
   141    38    40   ar
   142    21    23   am
   143   124   125   ar
   144   147   146    2
   145   173   175   ar
   146   138   137    2
   147   146   145    1
   148    23    24    1
   149    24    27    1
   150    39    41   ar
   151    40    42   ar
   152   151   149   am
   153   145   148    1
   154   145   144    1
   155   137   144   am
   156   137   136    1
   157   148   149    1
   158   149   150    2
   159    41    42   ar
   160    27    28    1
   161   136   139    1
   162   136   135    1
   163   139   140    1
   164   142   141   ar
   165    28    29    1
   166    30    29    2
   167   141   140    1
   168   141   143   ar
   169    29    31   am
   170   134   132   ar
   171   131   132    1
   172   131   128    1
   173   132   133   ar
   174   130   129    2
   175   129   128    1
   176   128   127    1
