@<TRIPOS>MOLECULE
tmp/3zxvC00.pdb
 171 170 0 0 0
SMALL
GASTEIGER

@<TRIPOS>ATOM
      1  N          2.5400   -5.2130   15.6390 N.3   126  TYR126     -0.1227
      2  CA         2.1530   -3.8130   15.4750 C.3   126  TYR126      0.1736
      3  C          1.5590   -3.2250   16.7460 C.2   126  TYR126      0.2595
      4  O          0.7170   -3.8570   17.3970 O.2   126  TYR126     -0.2718
      5  CB         1.1650   -3.6600   14.3190 C.3   126  TYR126      0.0548
      6  CG         1.8050   -3.7890   12.9580 C.ar  126  TYR126     -0.0200
      7  CD1        2.8620   -2.9420   12.5670 C.ar  126  TYR126     -0.0009
      8  CD2        1.3570   -4.7430   12.0570 C.ar  126  TYR126     -0.0009
      9  CE1        3.4610   -3.0540   11.3050 C.ar  126  TYR126      0.0417
     10  CE2        1.9430   -4.8670   10.7800 C.ar  126  TYR126      0.0417
     11  CZ         2.9950   -4.0210   10.4140 C.ar  126  TYR126      0.1957
     12  OH         3.5770   -4.1440    9.1720 O.3   126  TYR126     -0.2866
     13  N          2.0110   -2.0170   17.0890 N.am  127  PHE127     -0.1962
     14  CA         1.5120   -1.2890   18.2640 C.3   127  PHE127      0.1771
     15  C          0.9590    0.0650   17.8820 C.2   127  PHE127      0.2620
     16  O          1.6590    0.8810   17.2660 O.2   127  PHE127     -0.2715
     17  CB         2.6180   -1.1040   19.2970 C.3   127  PHE127      0.0574
     18  CG         2.9290   -2.3460   20.0750 C.ar  127  PHE127     -0.0200
     19  CD1        3.6350   -3.3990   19.4830 C.ar  127  PHE127     -0.0042
     20  CD2        2.5350   -2.4600   21.4090 C.ar  127  PHE127     -0.0042
     21  CE1        3.9320   -4.5510   20.2080 C.ar  127  PHE127     -0.0003
     22  CE2        2.8330   -3.6000   22.1380 C.ar  127  PHE127     -0.0003
     23  CZ         3.5340   -4.6490   21.5380 C.ar  127  PHE127     -0.0000
     24  N         -0.3060    0.2890   18.2340 N.am  128  GLY128     -0.1940
     25  CA        -0.9400    1.5960   18.1000 C.3   128  GLY128      0.2014
     26  C         -1.1680    2.0760   19.5220 C.2   128  GLY128      0.2639
     27  O         -1.7620    1.3550   20.3420 O.2   128  GLY128     -0.2714
     28  N         -0.7020    3.2870   19.8290 N.am  129  ALA129     -0.1963
     29  CA        -0.7730    3.7720   21.1960 C.3   129  ALA129      0.1728
     30  C         -1.5970    5.0590   21.3300 C.2   129  ALA129      0.2616
     31  O         -1.6900    5.8600   20.3920 O.2   129  ALA129     -0.2715
     32  CB         0.6170    3.9390   21.7650 C.3   129  ALA129      0.0334
     33  N         -2.2430    5.2280   22.4830 N.am  130  GLU130     -0.1977
     34  CA        -2.9760    6.4490   22.7550 C.3   130  GLU130      0.1602
     35  C         -2.4530    7.0120   24.0590 C.2   130  GLU130      0.2287
     36  O         -2.9100    6.6280   25.1430 O.2   130  GLU130     -0.2864
     37  CB        -4.4680    6.1790   22.8920 C.3   130  GLU130      0.0415
     38  CG        -5.1040    5.4030   21.7710 C.3   130  GLU130      0.1163
     39  CD        -6.4240    4.8710   22.2060 C.2   130  GLU130      0.3649
     40  OE1       -7.3580    5.6760   22.4080 O.co2 130  GLU130     -0.2457
     41  OE2       -6.5260    3.6520   22.4100 O.co2 130  GLU130     -0.2457
     42  N         -3.5890   10.7500   12.7840 N.3   211  GLU211     -0.1231
     43  CA        -4.9450   10.2660   12.6440 C.3   211  GLU211      0.1699
     44  C         -5.9800   11.1930   13.2400 C.2   211  GLU211      0.2592
     45  O         -6.9290   11.5430   12.5580 O.2   211  GLU211     -0.2718
     46  CB        -5.0790    8.8650   13.1950 C.3   211  GLU211      0.0402
     47  CG        -4.6950    7.8370   12.1560 C.3   211  GLU211      0.1161
     48  CD        -4.1950    6.5690   12.7840 C.2   211  GLU211      0.3649
     49  OE1       -4.4110    6.4100   14.0180 O.co2 211  GLU211     -0.2457
     50  OE2       -3.5870    5.7370   12.0530 O.co2 211  GLU211     -0.2457
     51  N         -5.8010   11.5800   14.5030 N.am  212  LYS212     -0.1980
     52  CA        -6.6920   12.5560   15.1270 C.3   212  LYS212      0.1596
     53  C         -6.1370   13.2370   16.3710 C.2   212  LYS212      0.2287
     54  O         -5.1150   12.8170   16.9460 O.2   212  LYS212     -0.2864
     55  CB        -8.0900   11.9810   15.4030 C.3   212  LYS212      0.0298
     56  CG        -8.2050   10.8080   16.3460 C.3   212  LYS212      0.0038
     57  CD        -9.6710   10.7170   16.8020 C.3   212  LYS212      0.0206
     58  CE       -10.2840    9.3270   16.6420 C.3   212  LYS212      0.1093
     59  NZ       -10.3510    8.5150   17.9290 N.3   212  LYS212     -0.1314
     60  N         -3.4570   11.0350   18.1720 N.3   226  ASN226     -0.1225
     61  CA        -3.2320    9.6930   17.6570 C.3   226  ASN226      0.1785
     62  C         -2.4430    9.7920   16.3630 C.2   226  ASN226      0.2597
     63  O         -2.7970   10.5460   15.4660 O.2   226  ASN226     -0.2718
     64  CB        -4.5590    8.9810   17.3190 C.3   226  ASN226      0.1169
     65  CG        -5.4230    8.6760   18.5340 C.2   226  ASN226      0.2627
     66  OD1       -6.5920    8.3210   18.3730 O.2   226  ASN226     -0.2716
     67  ND2       -4.8720    8.7950   19.7360 N.am  226  ASN226     -0.0877
     68  N         -1.3730    9.0150   16.2800 N.am  227  TYR227     -0.1976
     69  CA        -0.6210    8.8870   15.0580 C.3   227  TYR227      0.1639
     70  C         -0.6340    7.4080   14.6490 C.2   227  TYR227      0.2290
     71  O         -0.9510    6.5410   15.4700 O.2   227  TYR227     -0.2864
     72  CB         0.7980    9.4140   15.2650 C.3   227  TYR227      0.0560
     73  CG         1.4830    8.7980   16.4600 C.ar  227  TYR227     -0.0198
     74  CD1        2.1940    7.5900   16.3570 C.ar  227  TYR227     -0.0009
     75  CD2        1.4220    9.4240   17.7070 C.ar  227  TYR227     -0.0009
     76  CE1        2.8180    7.0280   17.4800 C.ar  227  TYR227      0.0417
     77  CE2        2.0390    8.8750   18.8150 C.ar  227  TYR227      0.0417
     78  CZ         2.7280    7.6830   18.7040 C.ar  227  TYR227      0.1957
     79  OH         3.3330    7.1580   19.8210 O.3   227  TYR227     -0.2866
     80  N         -0.0180    3.5680   13.7370 N.3   229  PHE229     -0.1241
     81  CA         0.6520    2.4380   14.3740 C.3   229  PHE229      0.1605
     82  C          1.9630    2.0960   13.6580 C.2   229  PHE229      0.2264
     83  O          2.2230    2.5780   12.5560 O.2   229  PHE229     -0.2867
     84  CB        -0.2860    1.2200   14.3860 C.3   229  PHE229      0.0534
     85  CG        -0.4980    0.6090   13.0340 C.ar  229  PHE229     -0.0203
     86  CD1       -1.3730    1.1850   12.1250 C.ar  229  PHE229     -0.0042
     87  CD2        0.2110   -0.5310   12.6450 C.ar  229  PHE229     -0.0042
     88  CE1       -1.5640    0.6230   10.8480 C.ar  229  PHE229     -0.0003
     89  CE2        0.0270   -1.0990   11.3650 C.ar  229  PHE229     -0.0003
     90  CZ        -0.8580   -0.5160   10.4750 C.ar  229  PHE229     -0.0000
     91  N         -3.1230   -0.7630   21.2850 N.3   275  HIS275     -0.1226
     92  CA        -3.7730   -1.6220   20.3110 C.3   275  HIS275      0.1752
     93  C         -2.6780   -2.4960   19.7120 C.2   275  HIS275      0.2596
     94  O         -1.6550   -1.9700   19.2370 O.2   275  HIS275     -0.2718
     95  CB        -4.4280   -0.7840   19.2060 C.3   275  HIS275      0.0759
     96  CG        -5.5660    0.0710   19.6740 C.ar  275  HIS275      0.0818
     97  ND1       -6.8290   -0.0110   19.1310 N.ar  275  HIS275     -0.2268
     98  CD2       -5.6280    1.0340   20.6250 C.ar  275  HIS275      0.1154
     99  CE1       -7.6230    0.8600   19.7260 C.ar  275  HIS275      0.1986
    100  NE2       -6.9180    1.5050   20.6410 N.ar  275  HIS275     -0.2212
    101  N         -2.8820   -3.8160   19.7540 N.am  276  GLN276     -0.1965
    102  CA        -1.8560   -4.7810   19.3230 C.3   276  GLN276      0.1733
    103  C         -2.3640   -5.8180   18.3340 C.2   276  GLN276      0.2617
    104  O         -3.5030   -6.3040   18.4510 O.2   276  GLN276     -0.2715
    105  CB        -1.3020   -5.5330   20.5310 C.3   276  GLN276      0.0408
    106  CG        -0.4890   -4.6820   21.4580 C.3   276  GLN276      0.0908
    107  CD        -0.5410   -5.1990   22.8570 C.2   276  GLN276      0.2608
    108  OE1        0.0720   -6.2160   23.1640 O.2   276  GLN276     -0.2717
    109  NE2       -1.2740   -4.5070   23.7280 N.am  276  GLN276     -0.0878
    110  N         -1.5060   -6.1780   17.3870 N.am  277  SER277     -0.1950
    111  CA        -1.7890   -7.2520   16.4330 C.3   277  SER277      0.1924
    112  C         -0.5090   -7.9060   15.8980 C.2   277  SER277      0.2314
    113  O          0.5420   -7.2670   15.7540 O.2   277  SER277     -0.2863
    114  CB        -2.6440   -6.7590   15.2660 C.3   277  SER277      0.2116
    115  OG        -1.8820   -5.9200   14.4470 O.3   277  SER277     -0.2180
    116  N          1.2410  -10.0370   12.7210 N.3   279  TRP279     -0.1241
    117  CA         1.1900  -10.2590   11.2840 C.3   279  TRP279      0.1605
    118  C          2.3120  -11.2030   10.8680 C.2   279  TRP279      0.2264
    119  O          3.3990  -11.2170   11.4840 O.2   279  TRP279     -0.2867
    120  CB         1.3440   -8.9360   10.5520 C.3   279  TRP279      0.0550
    121  CG         0.1270   -8.0550   10.6280 C.ar  279  TRP279      0.0003
    122  CD1       -0.4890   -7.5840   11.7630 C.ar  279  TRP279      0.0946
    123  CD2       -0.6150   -7.5230    9.5210 C.ar  279  TRP279      0.0152
    124  NE1       -1.5690   -6.8080   11.4280 N.ar  279  TRP279     -0.2442
    125  CE2       -1.6690   -6.7470   10.0600 C.ar  279  TRP279      0.0810
    126  CE3       -0.4880   -7.6260    8.1260 C.ar  279  TRP279      0.0012
    127  CZ2       -2.5970   -6.0770    9.2550 C.ar  279  TRP279      0.0191
    128  CZ3       -1.4050   -6.9530    7.3170 C.ar  279  TRP279      0.0001
    129  CH2       -2.4530   -6.1930    7.8860 C.ar  279  TRP279      0.0015
    130  N        -13.1300   -6.4070    8.0440 N.3   356  ASN356     -0.1240
    131  CA       -11.7760   -6.2430    7.5210 C.3   356  ASN356      0.1653
    132  C        -10.7280   -6.8720    8.4490 C.2   356  ASN356      0.2266
    133  O        -10.4720   -6.3550    9.5450 O.2   356  ASN356     -0.2867
    134  CB       -11.4730   -4.7660    7.2800 C.3   356  ASN356      0.1155
    135  CG       -10.1830   -4.5370    6.4790 C.2   356  ASN356      0.2627
    136  OD1       -9.2740   -5.3780    6.4380 O.2   356  ASN356     -0.2716
    137  ND2      -10.1010   -3.3740    5.8430 N.am  356  ASN356     -0.0877
    138  N         -7.5670   -6.8360    8.4310 N.3   358  LYS358     -0.1231
    139  CA        -6.4100   -5.9830    8.6780 C.3   358  LYS358      0.1693
    140  C         -6.6110   -5.0310    9.8460 C.2   358  LYS358      0.2592
    141  O         -5.6380   -4.5430   10.4160 O.2   358  LYS358     -0.2718
    142  CB        -6.0460   -5.1970    7.4160 C.3   358  LYS358      0.0285
    143  CG        -5.7750   -6.0660    6.2010 C.3   358  LYS358      0.0035
    144  CD        -5.1600   -5.2570    5.0630 C.3   358  LYS358      0.0206
    145  CE        -4.6020   -6.1940    3.9950 C.3   358  LYS358      0.1093
    146  NZ        -3.7950   -5.4610    2.9760 N.3   358  LYS358     -0.1314
    147  N         -7.8690   -4.7610   10.1860 N.am  359  ALA359     -0.1966
    148  CA        -8.2180   -3.8240   11.2430 C.3   359  ALA359      0.1728
    149  C         -8.4290   -4.5140   12.5850 C.2   359  ALA359      0.2616
    150  O         -8.5120   -3.8580   13.6190 O.2   359  ALA359     -0.2715
    151  CB        -9.4730   -3.0020   10.8520 C.3   359  ALA359      0.0334
    152  N         -8.5050   -5.8380   12.5760 N.am  360  LYS360     -0.1963
    153  CA        -8.8090   -6.5790   13.7930 C.3   360  LYS360      0.1728
    154  C         -7.6420   -6.5300   14.7650 C.2   360  LYS360      0.2616
    155  O         -6.5160   -6.8430   14.3910 O.2   360  LYS360     -0.2715
    156  CB        -9.1740   -8.0430   13.4870 C.3   360  LYS360      0.0311
    157  CG        -9.3920   -8.8730   14.7640 C.3   360  LYS360      0.0038
    158  CD       -10.8610   -9.0020   15.1250 C.3   360  LYS360      0.0206
    159  CE       -11.5410   -7.6910   15.4260 C.3   360  LYS360      0.1093
    160  NZ       -13.0080   -7.8330   15.3000 N.3   360  LYS360     -0.1314
    161  N         -7.9230   -6.1400   16.0060 N.am  361  ARG361     -0.1977
    162  CA        -6.8930   -6.0680   17.0490 C.3   361  ARG361      0.1597
    163  C         -7.4970   -5.9390   18.4420 C.2   361  ARG361      0.2287
    164  O         -8.6910   -5.6990   18.5860 O.2   361  ARG361     -0.2864
    165  CB        -5.9250   -4.8970   16.7950 C.3   361  ARG361      0.0334
    166  CG        -6.4490   -3.5310   17.2360 C.3   361  ARG361      0.0492
    167  CD        -7.0730   -2.7940   16.1000 C.3   361  ARG361      0.2205
    168  NE        -7.4250   -1.4120   16.4280 N.pl3 361  ARG361     -0.0865
    169  CZ        -8.0610   -0.5970   15.5850 C.cat 361  ARG361      0.5346
    170  NH1       -8.3880   -1.0040   14.3640 N.pl3 361  ARG361      0.1354
    171  NH2       -8.3740    0.6320   15.9480 N.pl3 361  ARG361      0.1354
@<TRIPOS>BOND
     1   146   145    1
     2   145   144    1
     3   144   143    1
     4   137   135   am
     5   143   142    1
     6   136   135    2
     7   135   134    1
     8   134   131    1
     9   128   129   ar
    10   128   126   ar
    11   142   139    1
    12   131   130    1
    13   131   132    1
    14   129   127   ar
    15   126   123   ar
    16   138   139    1
    17   132   133    2
    18   139   140    1
    19    12    11    1
    20   127   125   ar
    21   123   125   ar
    22   123   121   ar
    23   140   147   am
    24   140   141    2
    25   125   124   ar
    26   147   148    1
    27    11    10   ar
    28    11     9   ar
    29    90    88   ar
    30    90    89   ar
    31   120   121    1
    32   120   117    1
    33   121   122   ar
    34    10     8   ar
    35    88    86   ar
    36   151   148    1
    37   118   117    1
    38   118   119    2
    39   148   149    1
    40   117   116    1
    41     9     7   ar
    42    89    87   ar
    43   124   122   ar
    44    50    48   ar
    45     8     6   ar
    46    86    85   ar
    47    47    48    1
    48    47    46    1
    49    83    82    2
    50    45    44    2
    51     7     6   ar
    52   152   149   am
    53   152   153    1
    54   149   150    2
    55    43    42    1
    56    43    46    1
    57    43    44    1
    58    87    85   ar
    59    48    49   ar
    60     6     5    1
    61    85    84    1
    62    44    51   am
    63   156   153    1
    64   156   157    1
    65    82    81    1
    66    80    81    1
    67   153   154    1
    68     5     2    1
    69   170   169    1
    70    81    84    1
    71   155   154    2
    72   115   114    1
    73    51    52    1
    74    70    69    1
    75    70    71    2
    76   157   158    1
    77   154   161   am
    78    69    72    1
    79    69    68    1
    80   158   159    1
    81    52    55    1
    82    52    53    1
    83    72    73    1
    84   114   111    1
    85   160   159    1
    86    55    56    1
    87    63    62    2
    88     2     1    1
    89     2     3    1
    90   169   171    1
    91   169   168    2
    92   113   112    2
    93   112   111    1
    94   161   162    1
    95   167   168    1
    96   167   166    1
    97    68    62   am
    98    56    57    1
    99    74    73   ar
   100    74    76   ar
   101    62    61    1
   102    53    54    2
   103   111   110    1
   104    73    75   ar
   105    58    57    1
   106    58    59    1
   107     3    13   am
   108     3     4    2
   109   165   162    1
   110   165   166    1
   111   162   163    1
   112    13    14    1
   113    16    15    2
   114    64    61    1
   115    64    65    1
   116   110   103   am
   117    76    78   ar
   118    61    60    1
   119    75    77   ar
   120    15    24   am
   121    15    14    1
   122    25    24    1
   123    25    26    1
   124    14    17    1
   125   103   104    2
   126   103   102    1
   127    66    65    2
   128   163   164    2
   129    65    67   am
   130    78    77   ar
   131    78    79    1
   132    97    96   ar
   133    97    99   ar
   134    95    96    1
   135    95    92    1
   136    94    93    2
   137    17    18    1
   138   102   101    1
   139   102   105    1
   140    19    18   ar
   141    19    21   ar
   142    26    28   am
   143    26    27    2
   144    96    98   ar
   145    93   101   am
   146    93    92    1
   147    99   100   ar
   148    28    29    1
   149    18    20   ar
   150    21    23   ar
   151    92    91    1
   152    31    30    2
   153   105   106    1
   154    98   100   ar
   155    29    30    1
   156    29    32    1
   157    30    33   am
   158    20    22   ar
   159   106   107    1
   160    23    22   ar
   161    38    39    1
   162    38    37    1
   163    39    40   ar
   164    39    41   ar
   165    33    34    1
   166    34    37    1
   167    34    35    1
   168   107   108    2
   169   107   109   am
   170    35    36    2
