@<TRIPOS>MOLECULE
tmp/3zxzA00.pdb
 183 173 0 0 0
SMALL
GASTEIGER

@<TRIPOS>ATOM
      1  N         21.8120   89.3050   -1.5140 N.3    33  ILE33      -0.1231
      2  CA        22.3860   88.0160   -1.1430 C.3    33  ILE33       0.1692
      3  C         21.3300   87.0680   -0.5850 C.2    33  ILE33       0.2593
      4  O         21.6370   85.9550   -0.1610 O.2    33  ILE33      -0.2718
      5  CB        23.5290   88.1840   -0.1110 C.3    33  ILE33       0.0266
      6  CG1       23.0120   88.8700    1.1550 C.3    33  ILE33       0.0019
      7  CG2       24.6510   89.0000   -0.7240 C.3    33  ILE33       0.0020
      8  CD1       24.0890   89.0660    2.2270 C.3    33  ILE33       0.0001
      9  N         20.0820   87.5180   -0.6000 N.am   34  GLY34      -0.1942
     10  CA        18.9750   86.6650   -0.2120 C.3    34  GLY34       0.2014
     11  C         17.6660   87.3810   -0.4650 C.2    34  GLY34       0.2638
     12  O         17.6400   88.6070   -0.5600 O.2    34  GLY34      -0.2714
     13  N         16.5770   86.6280   -0.5760 N.am   35  ARG35      -0.1977
     14  CA        15.2840   87.2320   -0.8640 C.3    35  ARG35       0.1597
     15  C         14.1880   86.6370    0.0020 C.2    35  ARG35       0.2287
     16  O         13.9590   85.4280   -0.0140 O.2    35  ARG35      -0.2864
     17  CB        14.9290   87.0430   -2.3410 C.3    35  ARG35       0.0334
     18  CG        15.9570   87.6140   -3.3020 C.3    35  ARG35       0.0492
     19  CD        15.4980   87.4880   -4.7450 C.3    35  ARG35       0.2205
     20  NE        16.5190   87.9770   -5.6670 N.pl3  35  ARG35      -0.0865
     21  CZ        16.5940   89.2310   -6.1010 C.cat  35  ARG35       0.5346
     22  NH1       15.7040   90.1290   -5.6980 N.pl3  35  ARG35       0.1354
     23  NH2       17.5650   89.5890   -6.9300 N.pl3  35  ARG35       0.1354
     24  N         17.8570   90.5490    1.4140 N.3    41  VAL41      -0.1245
     25  CA        19.0540   90.6260    2.2380 C.3    41  VAL41       0.1561
     26  C         20.1670   91.2190    1.3800 C.2    41  VAL41       0.2260
     27  O         20.3200   90.8560    0.2120 O.2    41  VAL41      -0.2867
     28  CB        19.4900   89.2270    2.7260 C.3    41  VAL41       0.0252
     29  CG1       20.6550   89.3540    3.6970 C.3    41  VAL41       0.0019
     30  CG2       18.3160   88.5140    3.3810 C.3    41  VAL41       0.0019
     31  N         25.2920   90.9230    7.0830 N.3    53  ALA53      -0.1245
     32  CA        24.1310   90.7400    6.2260 C.3    53  ALA53       0.1562
     33  C         22.9970   91.6340    6.7180 C.2    53  ALA53       0.2260
     34  O         22.6430   91.6110    7.8990 O.2    53  ALA53      -0.2867
     35  CB        23.6950   89.2820    6.2480 C.3    53  ALA53       0.0290
     36  N         19.1300   92.6080    6.5740 N.3    55  LYS55      -0.1245
     37  CA        17.8130   92.1030    6.1970 C.3    55  LYS55       0.1561
     38  C         16.7900   93.2280    6.2250 C.2    55  LYS55       0.2260
     39  O         16.5420   93.8310    7.2690 O.2    55  LYS55      -0.2867
     40  CB        17.3770   90.9870    7.1540 C.3    55  LYS55       0.0271
     41  CG        15.9420   90.4890    6.9440 C.3    55  LYS55       0.0035
     42  CD        15.7340   89.9600    5.5280 C.3    55  LYS55       0.0206
     43  CE        14.5130   89.0550    5.4410 C.3    55  LYS55       0.1093
     44  NZ        13.2710   89.7470    5.8760 N.3    55  LYS55      -0.1314
     45  N         22.0360   81.5830   15.2880 N.3    85  LEU85      -0.1245
     46  CA        22.3400   82.8510   14.6300 C.3    85  LEU85       0.1561
     47  C         22.1430   84.0060   15.6020 C.2    85  LEU85       0.2260
     48  O         21.1110   84.1020   16.2670 O.2    85  LEU85      -0.2867
     49  CB        21.4360   83.0680   13.4140 C.3    85  LEU85       0.0270
     50  CG        21.8090   84.2960   12.5720 C.3    85  LEU85       0.0019
     51  CD1       23.1000   84.0080   11.8230 C.3    85  LEU85       0.0001
     52  CD2       20.6890   84.6300   11.5960 C.3    85  LEU85       0.0001
     53  N         22.6190   91.3340   10.6460 N.3   102  LEU102     -0.1231
     54  CA        22.9770   89.9800   11.0550 C.3   102  LEU102      0.1678
     55  C         24.4120   89.6720   10.6470 C.2   102  LEU102      0.2434
     56  O         24.9410   90.2560    9.7020 O.2   102  LEU102     -0.2733
     57  CB        22.0210   88.9710   10.4030 C.3   102  LEU102      0.0284
     58  CG        20.5280   89.2440   10.6400 C.3   102  LEU102      0.0019
     59  CD1       19.6800   88.4930    9.6150 C.3   102  LEU102      0.0001
     60  CD2       20.1560   88.8290   12.0640 C.3   102  LEU102      0.0001
     61  N         25.0630   88.7450   11.3580 N.am  103  PRO103     -0.2718
     62  CA        26.3920   88.3100   10.9240 C.3   103  PRO103      0.1535
     63  C         26.3360   87.6860    9.5300 C.2   103  PRO103      0.2599
     64  O         25.3930   86.9610    9.1960 O.2   103  PRO103     -0.2715
     65  CB        26.8130   87.3060   11.9980 C.3   103  PRO103      0.0310
     66  CG        25.5380   86.8330   12.6010 C.3   103  PRO103      0.0237
     67  CD        24.5820   87.9880   12.5260 C.3   103  PRO103      0.0939
     68  N         27.3430   87.9880    8.7210 N.am  104  TYR104     -0.1960
     69  CA        27.4450   87.4400    7.3750 C.3   104  TYR104      0.1771
     70  C         27.8060   85.9590    7.4570 C.2   104  TYR104      0.2619
     71  O         28.7250   85.5780    8.1820 O.2   104  TYR104     -0.2715
     72  CB        28.5170   88.2080    6.5910 C.3   104  TYR104      0.0574
     73  CG        28.7970   87.6730    5.2040 C.ar  104  TYR104     -0.0198
     74  CD1       27.8710   87.8150    4.1790 C.ar  104  TYR104     -0.0009
     75  CD2       29.9990   87.0400    4.9180 C.ar  104  TYR104     -0.0009
     76  CE1       28.1380   87.3390    2.9040 C.ar  104  TYR104      0.0417
     77  CE2       30.2740   86.5660    3.6530 C.ar  104  TYR104      0.0417
     78  CZ        29.3430   86.7160    2.6500 C.ar  104  TYR104      0.1957
     79  OH        29.6250   86.2370    1.3920 O.3   104  TYR104     -0.2866
     80  N         27.0720   85.1270    6.7220 N.am  105  MET105     -0.1977
     81  CA        27.3320   83.6900    6.6970 C.3   105  MET105      0.1605
     82  C         27.9770   83.3150    5.3670 C.2   105  MET105      0.2287
     83  O         27.2990   83.1730    4.3500 O.2   105  MET105     -0.2864
     84  CB        26.0240   82.9130    6.8900 C.3   105  MET105      0.0413
     85  CG        25.3600   83.1670    8.2420 C.3   105  MET105      0.0598
     86  SD        26.2310   82.3400    9.6050 S.3   105  MET105     -0.1393
     87  CE        26.8760   83.7210   10.5200 C.3   105  MET105      0.0692
     88  N         26.5330   80.5360    3.1810 N.3   108  GLY108     -0.1210
     89  CA        25.1170   80.5430    2.8560 C.3   108  GLY108      0.1956
     90  C         24.2910   79.5540    3.6560 C.2   108  GLY108      0.2611
     91  O         24.6940   79.1280    4.7400 O.2   108  GLY108     -0.2717
     92  N         23.1300   79.1820    3.1210 N.am  109  ASP109     -0.1973
     93  CA        22.2590   78.2300    3.7980 C.3   109  ASP109      0.1709
     94  C         22.7230   76.7920    3.5930 C.2   109  ASP109      0.2293
     95  O         23.3380   76.4510    2.5810 O.2   109  ASP109     -0.2864
     96  CB        20.8110   78.3860    3.3150 C.3   109  ASP109      0.1436
     97  CG        20.6160   77.9170    1.8860 C.2   109  ASP109      0.3671
     98  OD1       20.9730   78.6650    0.9540 O.co2 109  ASP109     -0.2456
     99  OD2       20.1070   76.7950    1.6960 O.co2 109  ASP109     -0.2456
    100  N         21.1270   73.9360    3.0250 N.3   111  ARG111     -0.1231
    101  CA        20.5830   73.1200    1.9420 C.3   111  ARG111      0.1694
    102  C         21.3520   73.3300    0.6370 C.2   111  ARG111      0.2592
    103  O         21.7660   72.3690   -0.0100 O.2   111  ARG111     -0.2718
    104  CB        19.0950   73.4140    1.7030 C.3   111  ARG111      0.0321
    105  CG        18.4600   72.3620    0.7910 C.3   111  ARG111      0.0489
    106  CD        17.0630   72.7110    0.2980 C.3   111  ARG111      0.2205
    107  NE        16.5640   71.6500   -0.5780 N.pl3 111  ARG111     -0.0865
    108  CZ        15.9100   71.8520   -1.7180 C.cat 111  ARG111      0.5346
    109  NH1       15.6570   73.0860   -2.1390 N.pl3 111  ARG111      0.1354
    110  NH2       15.5210   70.8130   -2.4460 N.pl3 111  ARG111      0.1354
    111  N         21.5540   74.5850    0.2520 N.am  112  ASN112     -0.1974
    112  CA        22.3020   74.8680   -0.9690 C.3   112  ASN112      0.1688
    113  C         23.7390   74.3780   -0.8600 C.2   112  ASN112      0.2292
    114  O         24.3270   73.9370   -1.8460 O.2   112  ASN112     -0.2864
    115  CB        22.2740   76.3670   -1.2790 C.3   112  ASN112      0.1181
    116  CG        21.0320   76.7710   -2.0520 C.2   112  ASN112      0.2629
    117  OD1       20.5990   76.0610   -2.9640 O.2   112  ASN112     -0.2716
    118  ND2       20.4470   77.9070   -1.6880 N.am  112  ASN112     -0.0877
    119  N         17.1060   74.6010    4.7200 N.3   153  ARG153     -0.1231
    120  CA        17.1740   75.9000    4.0510 C.3   153  ARG153      0.1694
    121  C         17.2880   77.0310    5.0770 C.2   153  ARG153      0.2592
    122  O         17.6800   78.1470    4.7380 O.2   153  ARG153     -0.2718
    123  CB        15.9210   76.1250    3.1950 C.3   153  ARG153      0.0321
    124  CG        14.6490   76.1910    4.0220 C.3   153  ARG153      0.0489
    125  CD        13.4080   76.5210    3.2030 C.3   153  ARG153      0.2205
    126  NE        12.2220   76.4140    4.0460 N.pl3 153  ARG153     -0.0865
    127  CZ        11.5580   75.2840    4.2610 C.cat 153  ARG153      0.5346
    128  NH1       11.9500   74.1550    3.6810 N.pl3 153  ARG153      0.1354
    129  NH2       10.5280   75.2710    5.0950 N.pl3 153  ARG153      0.1354
    130  N         16.9250   76.7410    6.3240 N.am  154  ASN154     -0.1974
    131  CA        16.8680   77.7650    7.3650 C.3   154  ASN154      0.1688
    132  C         17.9840   77.6500    8.3930 C.2   154  ASN154      0.2292
    133  O         17.8840   78.2020    9.4920 O.2   154  ASN154     -0.2864
    134  CB        15.5130   77.7160    8.0750 C.3   154  ASN154      0.1181
    135  CG        14.3930   78.2470    7.2100 C.2   154  ASN154      0.2629
    136  OD1       14.6190   79.0860    6.3400 O.2   154  ASN154     -0.2716
    137  ND2       13.1780   77.7580    7.4390 N.am  154  ASN154     -0.0877
    138  N         22.2490   78.3070    8.5240 N.3   156  MET156     -0.1245
    139  CA        23.3370   78.9300    7.7740 C.3   156  MET156      0.1570
    140  C         24.6890   78.3550    8.2020 C.2   156  MET156      0.2261
    141  O         24.8110   77.7670    9.2820 O.2   156  MET156     -0.2867
    142  CB        23.3300   80.4480    7.9900 C.3   156  MET156      0.0387
    143  CG        21.9710   81.1050    7.7850 C.3   156  MET156      0.0595
    144  SD        21.3490   80.9690    6.0900 S.3   156  MET156     -0.1393
    145  CE        22.5140   82.0200    5.2220 C.3   156  MET156      0.0692
    146  N         18.8800   79.2800   12.0770 N.3   166  ALA166     -0.1231
    147  CA        18.5290   80.6410   11.6740 C.3   166  ALA166      0.1694
    148  C         17.0430   80.7650   11.3380 C.2   166  ALA166      0.2592
    149  O         16.2480   79.9240   11.7300 O.2   166  ALA166     -0.2718
    150  CB        19.3830   81.0660   10.4780 C.3   166  ALA166      0.0304
    151  N         16.6760   81.8250   10.6230 N.am  167  ASP167     -0.1974
    152  CA        15.2780   82.0820   10.2750 C.3   167  ASP167      0.1709
    153  C         14.3520   82.0120   11.4950 C.2   167  ASP167      0.2293
    154  O         13.3230   81.3300   11.4740 O.2   167  ASP167     -0.2864
    155  CB        14.8000   81.0910    9.2050 C.3   167  ASP167      0.1436
    156  CG        13.5020   81.5320    8.5340 C.2   167  ASP167      0.3671
    157  OD1       13.0580   82.6710    8.7790 O.co2 167  ASP167     -0.2456
    158  OD2       12.9230   80.7440    7.7600 O.co2 167  ASP167     -0.2456
    159  N         15.1240   87.6020   12.1700 N.3   171  ALA171     -0.1245
    160  CA        15.5870   87.0690   10.8920 C.3   171  ALA171      0.1562
    161  C         14.5190   86.2020   10.2220 C.2   171  ALA171      0.2260
    162  O         14.7610   85.6170    9.1650 O.2   171  ALA171     -0.2867
    163  CB        16.8700   86.2580   11.0940 C.3   171  ALA171      0.0290
    164  N         12.2150   82.3890    2.8230 N.3   175  TYR175     -0.1227
    165  CA        13.3140   82.6530    1.9080 C.3   175  TYR175      0.1736
    166  C         13.2800   81.7730    0.6650 C.2   175  TYR175      0.2595
    167  O         14.0070   82.0240   -0.2920 O.2   175  TYR175     -0.2718
    168  CB        14.6560   82.4790    2.6270 C.3   175  TYR175      0.0548
    169  CG        14.9140   83.5150    3.7000 C.ar  175  TYR175     -0.0200
    170  CD1       15.3950   84.7810    3.3750 C.ar  175  TYR175     -0.0009
    171  CD2       14.7040   83.2190    5.0410 C.ar  175  TYR175     -0.0009
    172  CE1       15.6650   85.7200    4.3610 C.ar  175  TYR175      0.0417
    173  CE2       14.9730   84.1540    6.0340 C.ar  175  TYR175      0.0417
    174  CZ        15.4530   85.3970    5.6890 C.ar  175  TYR175      0.1957
    175  OH        15.7370   86.3180    6.6780 O.3   175  TYR175     -0.2866
    176  N         12.4460   80.7370    0.6840 N.am  176  ASP176     -0.1974
    177  CA        12.2050   79.9350   -0.5120 C.3   176  ASP176      0.1709
    178  C         10.7240   79.6020   -0.5790 C.2   176  ASP176      0.2293
    179  O         10.2570   78.6750    0.0870 O.2   176  ASP176     -0.2864
    180  CB        13.0230   78.6360   -0.4750 C.3   176  ASP176      0.1436
    181  CG        12.9640   77.8700   -1.7920 C.2   176  ASP176      0.3671
    182  OD1       12.0890   78.1860   -2.6260 O.co2 176  ASP176     -0.2456
    183  OD2       13.7930   76.9550   -1.9960 O.co2 176  ASP176     -0.2456
@<TRIPOS>BOND
     1    23    21    1
     2    21    22    1
     3    21    20    2
     4    20    19    1
     5    19    18    1
     6    18    17    1
     7   117   116    2
     8   182   181   ar
     9   110   108    1
    10    17    14    1
    11   109   108    1
    12   116   118   am
    13   116   115    1
    14   183   181   ar
    15   114   113    2
    16   181   180    1
    17   108   107    2
    18     1     2    1
    19   115   112    1
    20     2     3    1
    21     2     5    1
    22   112   113    1
    23   112   111    1
    24    14    13    1
    25    14    15    1
    26     7     5    1
    27     9     3   am
    28     9    10    1
    29     3     4    2
    30   178   177    1
    31   178   179    2
    32   107   106    1
    33    13    11   am
    34    12    11    2
    35   177   180    1
    36   177   176    1
    37    11    10    1
    38   167   166    2
    39     5     6    1
    40    16    15    2
    41   103   102    2
    42    27    26    2
    43   111   102   am
    44   106   105    1
    45   102   101    1
    46   166   176   am
    47   166   165    1
    48   105   104    1
    49    98    97   ar
    50     6     8    1
    51    26    25    1
    52    79    78    1
    53    24    25    1
    54    99    97   ar
    55   104   101    1
    56    97    96    1
    57   165   168    1
    58   165   164    1
    59   101   100    1
    60    25    28    1
    61    95    94    2
    62   168   169    1
    63    78    76   ar
    64    78    77   ar
    65    28    30    1
    66    28    29    1
    67    89    88    1
    68    89    90    1
    69    76    74   ar
    70    92    90   am
    71    92    93    1
    72   123   124    1
    73   123   120    1
    74   125   124    1
    75   125   126    1
    76    96    93    1
    77   170   169   ar
    78   170   172   ar
    79    94    93    1
    80    77    75   ar
    81    90    91    2
    82   128   127    1
    83   169   171   ar
    84   126   127    2
    85   120   119    1
    86   120   121    1
    87    74    73   ar
    88   127   129    1
    89    83    82    2
    90   172   174   ar
    91   122   121    2
    92    75    73   ar
    93   171   173   ar
    94   121   130   am
    95    73    72    1
    96   145   144    1
    97    82    81    1
    98    43    42    1
    99    43    44    1
   100    42    41    1
   101   174   173   ar
   102   174   175    1
   103   144   143    1
   104    37    38    1
   105    37    36    1
   106    37    40    1
   107    38    39    2
   108    32    35    1
   109    32    33    1
   110    32    31    1
   111   130   131    1
   112   136   135    2
   113    72    69    1
   114    81    80    1
   115    81    84    1
   116    33    34    2
   117    80    70   am
   118    84    85    1
   119    41    40    1
   120   135   137   am
   121   135   134    1
   122   131   134    1
   123   131   132    1
   124    69    70    1
   125    69    68    1
   126    70    71    2
   127   158   156   ar
   128   139   142    1
   129   139   140    1
   130   139   138    1
   131   143   142    1
   132   140   141    2
   133    85    86    1
   134   132   133    2
   135   156   157   ar
   136   156   155    1
   137    68    63   am
   138   162   161    2
   139    64    63    2
   140   155   152    1
   141    63    62    1
   142    86    87    1
   143    59    58    1
   144    56    55    2
   145   161   160    1
   146   152   151    1
   147   152   153    1
   148    57    58    1
   149    57    54    1
   150   150   147    1
   151   151   148   am
   152    58    60    1
   153    53    54    1
   154    55    54    1
   155    55    61   am
   156   160   163    1
   157   160   159    1
   158    62    61    1
   159    62    65    1
   160   148   147    1
   161   148   149    2
   162    61    67    1
   163   154   153    2
   164    52    50    1
   165   147   146    1
   166    51    50    1
   167    65    66    1
   168    67    66    1
   169    50    49    1
   170    49    46    1
   171    46    45    1
   172    46    47    1
   173    47    48    2
