@<TRIPOS>MOLECULE
tmp/3zy2A00.pdb
 161 156 0 0 0
SMALL
GASTEIGER

@<TRIPOS>ATOM
      1  N          9.7870  -12.7340   13.0590 N.3    16  ARG16      -0.1231
      2  CA        11.0720  -12.3650   13.6250 C.3    16  ARG16       0.1694
      3  C         11.9410  -13.5940   13.8740 C.2    16  ARG16       0.2592
      4  O         11.6540  -14.6630   13.3320 O.2    16  ARG16      -0.2718
      5  CB        10.8390  -11.5300   14.8670 C.3    16  ARG16       0.0321
      6  CG        10.1680  -10.1950   14.4490 C.3    16  ARG16       0.0489
      7  CD         9.0850   -9.8670   15.4420 C.3    16  ARG16       0.2205
      8  NE         9.6510   -8.9330   16.3770 N.pl3  16  ARG16      -0.0865
      9  CZ         9.1500   -8.5920   17.5590 C.cat  16  ARG16       0.5346
     10  NH1        8.0380   -9.1510   18.0430 N.pl3  16  ARG16       0.1354
     11  NH2        9.8130   -7.6900   18.2650 N.pl3  16  ARG16       0.1354
     12  N         13.0400  -13.4360   14.6110 N.am   17  PHE17      -0.1962
     13  CA        14.0960  -14.4720   14.6240 C.3    17  PHE17       0.1771
     14  C         13.6320  -15.8650   15.0000 C.2    17  PHE17       0.2620
     15  O         14.0360  -16.8570   14.3560 O.2    17  PHE17      -0.2715
     16  CB        15.2490  -14.0450   15.5240 C.3    17  PHE17       0.0574
     17  CG        16.4730  -14.9020   15.4030 C.ar   17  PHE17      -0.0200
     18  CD1       17.1490  -15.0020   14.1850 C.ar   17  PHE17      -0.0042
     19  CD2       16.9860  -15.5630   16.5160 C.ar   17  PHE17      -0.0042
     20  CE1       18.3060  -15.7750   14.0770 C.ar   17  PHE17      -0.0003
     21  CE2       18.1260  -16.3250   16.4370 C.ar   17  PHE17      -0.0003
     22  CZ        18.8010  -16.4500   15.2250 C.ar   17  PHE17      -0.0000
     23  N         12.7650  -15.9580   16.0020 N.am   18  GLY18      -0.1940
     24  CA        12.2830  -17.2820   16.3960 C.3    18  GLY18       0.2014
     25  C         11.5120  -17.9580   15.2770 C.2    18  GLY18       0.2638
     26  O         11.6680  -19.1540   15.0570 O.2    18  GLY18      -0.2714
     27  N         10.6840  -17.2080   14.5620 N.am   19  ASN19      -0.1972
     28  CA         9.9640  -17.7770   13.4070 C.3    19  ASN19       0.1688
     29  C         10.9140  -18.1860   12.2750 C.2    19  ASN19       0.2292
     30  O         10.7280  -19.2370   11.6390 O.2    19  ASN19      -0.2864
     31  CB         8.9360  -16.7770   12.8220 C.3    19  ASN19       0.1181
     32  CG         7.7430  -16.4630   13.7480 C.2    19  ASN19       0.2629
     33  OD1        6.8430  -15.7270   13.3290 O.2    19  ASN19      -0.2716
     34  ND2        7.7330  -16.9800   14.9730 N.am   19  ASN19      -0.0877
     35  N         14.0060   -4.2380   14.0180 N.3    47  LYS47      -0.1245
     36  CA        14.0350   -3.1720   15.0330 C.3    47  LYS47       0.1561
     37  C         15.0430   -2.0670   14.6640 C.2    47  LYS47       0.2260
     38  O         15.9480   -1.7220   15.4220 O.2    47  LYS47      -0.2867
     39  CB        14.1820   -3.7690   16.4560 C.3    47  LYS47       0.0271
     40  CG        15.5740   -3.7940   17.1520 C.3    47  LYS47       0.0035
     41  CD        16.7240   -4.3930   16.3230 C.3    47  LYS47       0.0206
     42  CE        16.7180   -5.9130   16.3160 C.3    47  LYS47       0.1093
     43  NZ        15.6570   -6.4170   15.4150 N.3    47  LYS47      -0.1314
     44  N         13.0860  -16.3860   30.3390 N.3   200  HIS200     -0.1241
     45  CA        12.6280  -15.5770   29.2160 C.3   200  HIS200      0.1621
     46  C         11.2830  -14.9520   29.5320 C.2   200  HIS200      0.2264
     47  O         10.3070  -15.6590   29.7640 O.2   200  HIS200     -0.2867
     48  CB        12.5170  -16.4240   27.9390 C.3   200  HIS200      0.0745
     49  CG        12.0990  -15.6240   26.7460 C.ar  200  HIS200      0.0817
     50  ND1       11.2050  -16.0820   25.7980 N.ar  200  HIS200     -0.2268
     51  CD2       12.4490  -14.3650   26.3650 C.ar  200  HIS200      0.1154
     52  CE1       11.0310  -15.1410   24.8820 C.ar  200  HIS200      0.1986
     53  NE2       11.7680  -14.0870   25.2050 N.ar  200  HIS200     -0.2212
     54  N          8.6240  -12.8070   27.9360 N.3   202  ARG202     -0.1245
     55  CA         8.0520  -12.2640   26.7160 C.3   202  ARG202      0.1563
     56  C          6.8410  -11.4560   27.1670 C.2   202  ARG202      0.2260
     57  O          5.8410  -12.0160   27.6400 O.2   202  ARG202     -0.2867
     58  CB         7.6330  -13.4260   25.7960 C.3   202  ARG202      0.0307
     59  CG         7.1490  -12.9880   24.4120 C.3   202  ARG202      0.0489
     60  CD         8.2500  -12.5040   23.4890 C.3   202  ARG202      0.2205
     61  NE         7.7540  -12.5180   22.1120 N.pl3 202  ARG202     -0.0865
     62  CZ         7.1400  -11.5050   21.5190 C.cat 202  ARG202      0.5346
     63  NH1        6.9660  -10.3570   22.1600 N.pl3 202  ARG202      0.1354
     64  NH2        6.7170  -11.6220   20.2730 N.pl3 202  ARG202      0.1354
     65  N          2.3090   -8.8630   22.4900 N.3   207  TRP207     -0.1241
     66  CA         2.2650  -10.2330   22.9990 C.3   207  TRP207      0.1605
     67  C          1.0450  -10.4660   23.8700 C.2   207  TRP207      0.2264
     68  O          0.3600  -11.4770   23.7470 O.2   207  TRP207     -0.2867
     69  CB         3.5190  -10.5390   23.8150 C.3   207  TRP207      0.0550
     70  CG         3.5890  -11.9660   24.2880 C.ar  207  TRP207      0.0003
     71  CD1        3.3120  -12.4240   25.5370 C.ar  207  TRP207      0.0946
     72  CD2        3.9060  -13.1090   23.4960 C.ar  207  TRP207      0.0152
     73  NE1        3.4740  -13.7870   25.5880 N.ar  207  TRP207     -0.2442
     74  CE2        3.8470  -14.2350   24.3500 C.ar  207  TRP207      0.0810
     75  CE3        4.2700  -13.2900   22.1600 C.ar  207  TRP207      0.0012
     76  CZ2        4.1300  -15.5260   23.9040 C.ar  207  TRP207      0.0191
     77  CZ3        4.5550  -14.5710   21.7130 C.ar  207  TRP207      0.0001
     78  CH2        4.4820  -15.6690   22.5780 C.ar  207  TRP207      0.0015
     79  N          1.8780  -20.8080   17.7500 N.3   223  PHE223     -0.1241
     80  CA         3.3170  -20.6350   17.6660 C.3   223  PHE223      0.1605
     81  C          4.0270  -21.8650   18.2210 C.2   223  PHE223      0.2264
     82  O          3.7750  -22.9590   17.7390 O.2   223  PHE223     -0.2867
     83  CB         3.7160  -19.3210   18.3360 C.3   223  PHE223      0.0534
     84  CG         3.0710  -18.1110   17.7070 C.ar  223  PHE223     -0.0203
     85  CD1        2.8010  -18.0780   16.3430 C.ar  223  PHE223     -0.0042
     86  CD2        2.7220  -17.0130   18.4890 C.ar  223  PHE223     -0.0042
     87  CE1        2.1670  -16.9500   15.7620 C.ar  223  PHE223     -0.0003
     88  CE2        2.1180  -15.8930   17.9200 C.ar  223  PHE223     -0.0003
     89  CZ         1.8420  -15.8680   16.5610 C.ar  223  PHE223     -0.0000
     90  N         16.2330  -12.5460   30.2710 N.3   269  ALA269     -0.1231
     91  CA        16.1510  -12.0470   28.8860 C.3   269  ALA269      0.1694
     92  C         14.7110  -11.5990   28.6760 C.2   269  ALA269      0.2593
     93  O         13.7830  -12.3100   29.0190 O.2   269  ALA269     -0.2718
     94  CB        16.5060  -13.1560   27.8810 C.3   269  ALA269      0.0304
     95  N         14.5300  -10.3890   28.1510 N.am  270  SER270     -0.1938
     96  CA        13.1910   -9.8780   27.8860 C.3   270  SER270      0.2055
     97  C         13.1880   -8.9970   26.6410 C.2   270  SER270      0.2643
     98  O         14.1970   -8.3740   26.3090 O.2   270  SER270     -0.2714
     99  CB        12.6540   -9.0970   29.0970 C.3   270  SER270      0.2130
    100  OG        11.2920   -8.7150   28.8550 O.3   270  SER270     -0.2179
    101  N         12.0430   -9.0020   25.9720 N.am  271  ASP271     -0.1971
    102  CA        11.7490   -8.0830   24.8830 C.3   271  ASP271      0.1709
    103  C         11.3110   -6.7070   25.3610 C.2   271  ASP271      0.2293
    104  O         11.2640   -5.7580   24.5630 O.2   271  ASP271     -0.2864
    105  CB        10.6790   -8.6700   23.9650 C.3   271  ASP271      0.1436
    106  CG         9.3630   -8.9420   24.6720 C.2   271  ASP271      0.3671
    107  OD1        9.3070   -9.0880   25.9090 O.co2 271  ASP271     -0.2456
    108  OD2        8.3370   -8.9910   23.9620 O.co2 271  ASP271     -0.2456
    109  N         19.8790   -5.3510   25.8700 N.3   296  ASP296     -0.1239
    110  CA        19.6100   -6.7880   25.7300 C.3   296  ASP296      0.1674
    111  C         19.8280   -7.2120   24.2700 C.2   296  ASP296      0.2266
    112  O         19.0180   -6.8660   23.4020 O.2   296  ASP296     -0.2867
    113  CB        18.1760   -7.1350   26.2070 C.3   296  ASP296      0.1410
    114  CG        17.9200   -8.6380   26.2920 C.2   296  ASP296      0.3668
    115  OD1       18.2310   -9.3750   25.3470 O.co2 296  ASP296     -0.2456
    116  OD2       17.3570   -9.0750   27.3040 O.co2 296  ASP296     -0.2456
    117  N         19.7490   -9.8910   21.5440 N.3   298  MET298     -0.1245
    118  CA        18.9120  -11.0820   21.5130 C.3   298  MET298      0.1570
    119  C         19.7110  -12.3770   21.3560 C.2   298  MET298      0.2261
    120  O         19.3180  -13.4040   21.9140 O.2   298  MET298     -0.2867
    121  CB        17.7810  -10.9860   20.4840 C.3   298  MET298      0.0387
    122  CG        18.1800  -11.3400   19.0510 C.3   298  MET298      0.0595
    123  SD        16.8000  -11.1490   17.8720 S.3   298  MET298     -0.1393
    124  CE        17.1090   -9.4680   17.4740 C.3   298  MET298      0.0692
    125  N         21.6730  -13.2670   24.4310 N.3   301  SER301     -0.1217
    126  CA        20.6820  -13.7380   25.4270 C.3   301  SER301      0.1889
    127  C         20.3040  -15.1870   25.1780 C.2   301  SER301      0.2288
    128  O         20.2420  -15.9720   26.1190 O.2   301  SER301     -0.2866
    129  CB        19.4220  -12.8700   25.4720 C.3   301  SER301      0.2089
    130  OG        19.7100  -11.6180   26.0840 O.3   301  SER301     -0.2183
    131  N          4.7520  -20.4950   24.5780 N.3   316  VAL316     -0.1231
    132  CA         4.1840  -20.0630   23.2920 C.3   316  VAL316      0.1692
    133  C          5.2470  -19.4300   22.3860 C.2   316  VAL316      0.2593
    134  O          5.1410  -19.4160   21.1680 O.2   316  VAL316     -0.2718
    135  CB         2.9550  -19.1100   23.5110 C.3   316  VAL316      0.0266
    136  CG1        2.3820  -18.6280   22.1870 C.3   316  VAL316      0.0020
    137  CG2        1.9150  -19.8150   24.3320 C.3   316  VAL316      0.0020
    138  N          6.3110  -18.9240   22.9810 N.am  317  SER317     -0.1938
    139  CA         7.2740  -18.1650   22.2050 C.3   317  SER317      0.2055
    140  C          8.2250  -19.0510   21.3980 C.2   317  SER317      0.2644
    141  O          8.9170  -19.9370   21.9550 O.2   317  SER317     -0.2714
    142  CB         8.0740  -17.2780   23.1380 C.3   317  SER317      0.2130
    143  OG         9.1460  -16.6750   22.4520 O.3   317  SER317     -0.2179
    144  N          8.3270  -18.7680   20.1060 N.am  318  THR318     -0.1936
    145  CA         9.3140  -19.4720   19.2780 C.3   318  THR318      0.2028
    146  C         10.7550  -19.0640   19.6090 C.2   318  THR318      0.2642
    147  O         11.7030  -19.7690   19.2530 O.2   318  THR318     -0.2714
    148  CB         9.0910  -19.3030   17.7600 C.3   318  THR318      0.1808
    149  OG1        9.2450  -17.9190   17.4070 O.3   318  THR318     -0.2208
    150  CG2        7.7050  -19.7990   17.3780 C.3   318  THR318      0.0379
    151  N         10.9110  -17.9200   20.2770 N.am  319  PHE319     -0.1973
    152  CA        12.2090  -17.4720   20.7600 C.3   319  PHE319      0.1639
    153  C         12.6620  -18.3810   21.9260 C.2   319  PHE319      0.2290
    154  O         13.7780  -18.9130   21.9300 O.2   319  PHE319     -0.2864
    155  CB        12.0830  -15.9900   21.1330 C.3   319  PHE319      0.0560
    156  CG        13.3810  -15.2980   21.4250 C.ar  319  PHE319     -0.0200
    157  CD1       14.1060  -14.6880   20.3920 C.ar  319  PHE319     -0.0042
    158  CD2       13.8320  -15.1570   22.7380 C.ar  319  PHE319     -0.0042
    159  CE1       15.3050  -14.0120   20.6710 C.ar  319  PHE319     -0.0003
    160  CE2       15.0230  -14.4500   23.0260 C.ar  319  PHE319     -0.0003
    161  CZ        15.7460  -13.8830   22.0020 C.ar  319  PHE319     -0.0000
@<TRIPOS>BOND
     1    30    29    2
     2    29    28    1
     3    31    28    1
     4    31    32    1
     5     1     2    1
     6    33    32    2
     7     4     3    2
     8    28    27    1
     9     2     3    1
    10     2     5    1
    11    32    34   am
    12     3    12   am
    13    35    36    1
    14    20    18   ar
    15    20    22   ar
    16    18    17   ar
    17    15    14    2
    18     6     5    1
    19     6     7    1
    20    27    25   am
    21    12    13    1
    22    13    14    1
    23    13    16    1
    24    37    36    1
    25    37    38    2
    26    14    23   am
    27    36    39    1
    28    26    25    2
    29    22    21   ar
    30    25    24    1
    31    17    16    1
    32    17    19   ar
    33    43    42    1
    34     7     8    1
    35    87    85   ar
    36    87    89   ar
    37    23    24    1
    38    42    41    1
    39    41    40    1
    40    85    84   ar
    41     8     9    2
    42    21    19   ar
    43    39    40    1
    44    89    88   ar
    45   150   148    1
    46   149   148    1
    47   124   123    1
    48     9    10    1
    49     9    11    1
    50    80    79    1
    51    80    81    1
    52    80    83    1
    53    84    83    1
    54    84    86   ar
    55    82    81    2
    56   148   145    1
    57   123   122    1
    58    88    86   ar
    59   122   121    1
    60   147   146    2
    61   145   146    1
    62   145   144    1
    63   146   151   am
    64   144   140   am
    65    64    62    1
    66   151   152    1
    67   157   159   ar
    68   157   156   ar
    69   121   118    1
    70   159   161   ar
    71   152   155    1
    72   152   153    1
    73   155   156    1
    74   134   133    2
    75   119   118    1
    76   119   120    2
    77   140   141    2
    78   140   139    1
    79   156   158   ar
    80   118   117    1
    81    62    61    2
    82    62    63    1
    83    77    75   ar
    84    77    78   ar
    85   153   154    2
    86   161   160   ar
    87    61    60    1
    88    75    72   ar
    89   136   135    1
    90   139   138    1
    91   139   142    1
    92   133   138   am
    93   133   132    1
    94   143   142    1
    95    65    66    1
    96    78    76   ar
    97   158   160   ar
    98    66    69    1
    99    66    67    1
   100   132   135    1
   101   132   131    1
   102   112   111    2
   103    60    59    1
   104    72    70   ar
   105    72    74   ar
   106   135   137    1
   107    68    67    2
   108    69    70    1
   109    76    74   ar
   110   108   106   ar
   111   105   106    1
   112   105   102    1
   113   111   110    1
   114    70    71   ar
   115    74    73   ar
   116    59    58    1
   117   125   126    1
   118   104   103    2
   119   106   107   ar
   120    52    53   ar
   121    52    50   ar
   122   102   103    1
   123   102   101    1
   124   127   126    1
   125   127   128    2
   126    53    51   ar
   127   115   114   ar
   128   126   129    1
   129   129   130    1
   130    71    73   ar
   131   110   109    1
   132   110   113    1
   133    58    55    1
   134    50    49   ar
   135   101    97   am
   136   113   114    1
   137   114   116   ar
   138    98    97    2
   139    51    49   ar
   140    97    96    1
   141    55    56    1
   142    55    54    1
   143    49    48    1
   144    56    57    2
   145    94    91    1
   146    96    95    1
   147    96    99    1
   148    48    45    1
   149    95    92   am
   150    92    91    1
   151    92    93    2
   152   100    99    1
   153    91    90    1
   154    45    46    1
   155    45    44    1
   156    46    47    2
