@<TRIPOS>MOLECULE
tmp/3zy3A00.pdb
 152 148 0 0 0
SMALL
GASTEIGER

@<TRIPOS>ATOM
      1  N        -26.4730   31.8790   10.9150 N.3    17  ARG17      -0.1231
      2  CA       -26.5510   32.2510   12.3190 C.3    17  ARG17       0.1694
      3  C        -25.8460   33.5850   12.5970 C.2    17  ARG17       0.2592
      4  O        -25.6800   34.3690   11.6530 O.2    17  ARG17      -0.2718
      5  CB       -26.0730   31.0780   13.1560 C.3    17  ARG17       0.0321
      6  CG       -27.1770   30.0100   13.1720 C.3    17  ARG17       0.0489
      7  CD       -26.7820   28.7780   13.9390 C.3    17  ARG17       0.2205
      8  NE       -25.6830   28.0890   13.2940 N.pl3  17  ARG17      -0.0865
      9  CZ       -25.0720   27.0300   13.8070 C.cat  17  ARG17       0.5346
     10  NH1      -25.4700   26.5350   14.9790 N.pl3  17  ARG17       0.1354
     11  NH2      -24.0660   26.4650   13.1470 N.pl3  17  ARG17       0.1354
     12  N        -25.4650   33.8750   13.8500 N.am   18  PHE18      -0.1962
     13  CA       -25.1230   35.2560   14.2440 C.3    18  PHE18       0.1771
     14  C        -23.9720   35.8930   13.4350 C.2    18  PHE18       0.2620
     15  O        -24.0740   37.0620   12.9900 O.2    18  PHE18      -0.2715
     16  CB       -24.8630   35.3590   15.7630 C.3    18  PHE18       0.0574
     17  CG       -24.7680   36.7720   16.2680 C.ar   18  PHE18      -0.0200
     18  CD1      -25.8510   37.6390   16.1930 C.ar   18  PHE18      -0.0042
     19  CD2      -23.5880   37.2250   16.8600 C.ar   18  PHE18      -0.0042
     20  CE1      -25.7520   38.9440   16.6900 C.ar   18  PHE18      -0.0003
     21  CE2      -23.4730   38.5130   17.3480 C.ar   18  PHE18      -0.0003
     22  CZ       -24.5530   39.3800   17.2730 C.ar   18  PHE18      -0.0000
     23  N        -22.8920   35.1190   13.2540 N.am   19  GLY19      -0.1940
     24  CA       -21.7690   35.5150   12.3820 C.3    19  GLY19       0.2014
     25  C        -22.2240   35.9030   10.9910 C.2    19  GLY19       0.2638
     26  O        -21.8380   36.9710   10.4920 O.2    19  GLY19      -0.2714
     27  N        -22.9940   35.0140   10.3610 N.am   20  ASN20      -0.1972
     28  CA       -23.6470   35.2570    9.0630 C.3    20  ASN20       0.1688
     29  C        -24.4560   36.5680    9.0850 C.2    20  ASN20       0.2292
     30  O        -24.3600   37.3900    8.1710 O.2    20  ASN20      -0.2864
     31  CB       -24.6250   34.1100    8.7900 C.3    20  ASN20       0.1181
     32  CG       -24.2510   33.2210    7.6040 C.2    20  ASN20       0.2629
     33  OD1      -23.5670   32.1960    7.7600 O.2    20  ASN20      -0.2716
     34  ND2      -24.8230   33.5310    6.4310 N.am   20  ASN20      -0.0877
     35  N        -11.0450   30.7240   19.8810 N.3   209  HIS209     -0.1241
     36  CA       -12.3490   30.3070   19.4080 C.3   209  HIS209      0.1621
     37  C        -12.2140   28.8920   18.8410 C.2   209  HIS209      0.2264
     38  O        -11.4730   28.6870   17.9110 O.2   209  HIS209     -0.2867
     39  CB       -12.8980   31.2640   18.3590 C.3   209  HIS209      0.0745
     40  CG       -14.2340   30.8300   17.8120 C.ar  209  HIS209      0.0817
     41  ND1      -14.5900   30.9930   16.4920 N.ar  209  HIS209     -0.2268
     42  CD2      -15.2620   30.1740   18.4020 C.ar  209  HIS209      0.1154
     43  CE1      -15.8030   30.4990   16.2990 C.ar  209  HIS209      0.1986
     44  NE2      -16.2330   29.9900   17.4460 N.ar  209  HIS209     -0.2212
     45  N        -14.2010   26.2400   16.9650 N.3   211  ARG211     -0.1245
     46  CA       -15.3550   25.9880   16.1370 C.3   211  ARG211      0.1563
     47  C        -15.3460   24.5010   15.7950 C.2   211  ARG211      0.2260
     48  O        -14.4650   24.0350   15.0580 O.2   211  ARG211     -0.2867
     49  CB       -15.2460   26.8620   14.8680 C.3   211  ARG211      0.0307
     50  CG       -16.4580   26.8250   13.9360 C.3   211  ARG211      0.0489
     51  CD       -17.7890   27.3270   14.6030 C.3   211  ARG211      0.2205
     52  NE       -18.8350   27.5530   13.5920 N.pl3 211  ARG211     -0.0865
     53  CZ       -19.6830   26.6260   13.1440 C.cat 211  ARG211      0.5346
     54  NH1      -19.6390   25.3850   13.6130 N.pl3 211  ARG211      0.1354
     55  NH2      -20.5610   26.9300   12.1770 N.pl3 211  ARG211      0.1354
     56  N        -19.3720   21.7550   11.0190 N.3   216  TRP216     -0.1241
     57  CA       -18.0700   22.2320   10.5630 C.3   216  TRP216      0.1605
     58  C        -17.3250   21.3230    9.5760 C.2   216  TRP216      0.2264
     59  O        -16.6100   21.8230    8.7080 O.2   216  TRP216     -0.2867
     60  CB       -17.1650   22.5320   11.7520 C.3   216  TRP216      0.0550
     61  CG       -16.0920   23.5310   11.4460 C.ar  216  TRP216      0.0003
     62  CD1      -14.7540   23.3300   11.5310 C.ar  216  TRP216      0.0946
     63  CD2      -16.2720   24.8880   11.0050 C.ar  216  TRP216      0.0152
     64  NE1      -14.0800   24.4800   11.1870 N.ar  216  TRP216     -0.2442
     65  CE2      -14.9840   25.4550   10.8710 C.ar  216  TRP216      0.0810
     66  CE3      -17.3930   25.6840   10.7310 C.ar  216  TRP216      0.0012
     67  CZ2      -14.7840   26.7810   10.4290 C.ar  216  TRP216      0.0191
     68  CZ3      -17.2000   27.0140   10.3200 C.ar  216  TRP216      0.0001
     69  CH2      -15.8950   27.5410   10.1770 C.ar  216  TRP216      0.0015
     70  N        -16.2050   31.4880    3.0720 N.3   232  PHE232     -0.1241
     71  CA       -16.7820   32.2630    4.1650 C.3   232  PHE232      0.1605
     72  C        -15.8670   33.4310    4.5610 C.2   232  PHE232      0.2264
     73  O        -15.6080   34.2940    3.7240 O.2   232  PHE232     -0.2867
     74  CB       -17.1310   31.3470    5.3370 C.3   232  PHE232      0.0534
     75  CG       -18.2060   30.3330    5.0040 C.ar  232  PHE232     -0.0203
     76  CD1      -19.5560   30.7110    4.9370 C.ar  232  PHE232     -0.0042
     77  CD2      -17.8750   29.0070    4.7530 C.ar  232  PHE232     -0.0042
     78  CE1      -20.5650   29.7620    4.6310 C.ar  232  PHE232     -0.0003
     79  CE2      -18.8620   28.0550    4.4190 C.ar  232  PHE232     -0.0003
     80  CZ       -20.2020   28.4330    4.3550 C.ar  232  PHE232     -0.0000
     81  N        -13.8040   29.9830   24.0260 N.3   278  ALA278     -0.1231
     82  CA       -15.1800   30.0240   23.5500 C.3   278  ALA278      0.1694
     83  C        -15.3380   28.8750   22.5670 C.2   278  ALA278      0.2593
     84  O        -14.4780   28.6720   21.6920 O.2   278  ALA278     -0.2718
     85  CB       -15.4420   31.3470   22.8460 C.3   278  ALA278      0.0304
     86  N        -16.4140   28.1010   22.7040 N.am  279  SER279     -0.1938
     87  CA       -16.6610   27.0100   21.7460 C.3   279  SER279      0.2055
     88  C        -18.1360   26.7780   21.5530 C.2   279  SER279      0.2643
     89  O        -18.9230   27.0680   22.4620 O.2   279  SER279     -0.2714
     90  CB       -16.0390   25.6900   22.2080 C.3   279  SER279      0.2130
     91  OG       -16.2250   24.7320   21.1710 O.3   279  SER279     -0.2179
     92  N        -18.4990   26.2740   20.3750 N.am  280  ASP280     -0.1971
     93  CA       -19.8820   25.8520   20.0880 C.3   280  ASP280      0.1709
     94  C        -20.1560   24.4310   20.5860 C.2   280  ASP280      0.2293
     95  O        -21.3270   23.9990   20.6950 O.2   280  ASP280     -0.2864
     96  CB       -20.2410   25.9790   18.5930 C.3   280  ASP280      0.1436
     97  CG       -19.2240   25.2860   17.6490 C.2   280  ASP280      0.3671
     98  OD1      -18.1460   24.8520   18.0870 O.co2 280  ASP280     -0.2456
     99  OD2      -19.5400   25.1580   16.4530 O.co2 280  ASP280     -0.2456
    100  N        -21.8980   28.5270   27.9790 N.3   305  ASP305     -0.1239
    101  CA       -21.2100   29.3860   27.0350 C.3   305  ASP305      0.1674
    102  C        -22.2610   30.2190   26.2680 C.2   305  ASP305      0.2266
    103  O        -22.9670   29.7090   25.3600 O.2   305  ASP305     -0.2867
    104  CB       -20.3130   28.5260   26.1160 C.3   305  ASP305      0.1410
    105  CG       -19.4340   29.3550   25.1810 C.2   305  ASP305      0.3668
    106  OD1      -19.9400   30.2770   24.5090 O.co2 305  ASP305     -0.2456
    107  OD2      -18.2290   29.0510   25.0890 O.co2 305  ASP305     -0.2456
    108  N        -23.0050   32.9170   23.6690 N.3   307  MET307     -0.1245
    109  CA       -22.2530   33.3250   22.4560 C.3   307  MET307      0.1570
    110  C        -21.9040   34.8180   22.4050 C.2   307  MET307      0.2261
    111  O        -20.8440   35.1980   21.8790 O.2   307  MET307     -0.2867
    112  CB       -22.9760   32.8940   21.1620 C.3   307  MET307      0.0387
    113  CG       -24.0360   33.8670   20.6440 C.3   307  MET307      0.0595
    114  SD       -24.8810   33.3090   19.1170 S.3   307  MET307     -0.1393
    115  CE       -26.1400   32.3310   19.9170 C.3   307  MET307      0.0692
    116  N        -19.3140   35.5880   25.0490 N.3   310  SER310     -0.1217
    117  CA       -18.0830   34.9790   24.5450 C.3   310  SER310      0.1889
    118  C        -17.3740   35.8510   23.5240 C.2   310  SER310      0.2288
    119  O        -16.1570   35.9910   23.6060 O.2   310  SER310     -0.2866
    120  CB       -18.3190   33.5820   23.9770 C.3   310  SER310      0.2089
    121  OG       -18.3560   32.6590   25.0470 O.3   310  SER310     -0.2183
    122  N        -11.8670   30.7490    8.9510 N.3   325  VAL325     -0.1231
    123  CA       -13.0260   30.4980    8.0840 C.3   325  VAL325      0.1692
    124  C        -14.3440   30.9990    8.7350 C.2   325  VAL325      0.2593
    125  O        -15.2920   31.4010    8.0470 O.2   325  VAL325     -0.2718
    126  CB       -13.0550   29.0050    7.7000 C.3   325  VAL325      0.0266
    127  CG1      -14.3250   28.6340    6.9440 C.3   325  VAL325      0.0020
    128  CG2      -11.7800   28.6470    6.8830 C.3   325  VAL325      0.0020
    129  N        -14.3560   31.0530   10.0650 N.am  326  SER326     -0.1938
    130  CA       -15.5440   31.3740   10.8270 C.3   326  SER326      0.2055
    131  C        -15.9130   32.8550   10.8030 C.2   326  SER326      0.2644
    132  O        -15.0850   33.7070   11.1800 O.2   326  SER326     -0.2714
    133  CB       -15.3720   30.9500   12.2860 C.3   326  SER326      0.2130
    134  OG       -16.5140   31.3650   13.0180 O.3   326  SER326     -0.2179
    135  N        -17.1560   33.1500   10.3960 N.am  327  THR327     -0.1936
    136  CA       -17.6770   34.5290   10.4640 C.3   327  THR327      0.2028
    137  C        -17.9230   34.9470   11.9080 C.2   327  THR327      0.2642
    138  O        -17.9620   36.1430   12.2060 O.2   327  THR327     -0.2714
    139  CB       -18.9840   34.7160    9.6450 C.3   327  THR327      0.1808
    140  OG1      -20.0220   33.8690   10.1790 O.3   327  THR327     -0.2208
    141  CG2      -18.7310   34.3560    8.1840 C.3   327  THR327      0.0379
    142  N        -18.1290   33.9690   12.8030 N.am  328  PHE328     -0.1973
    143  CA       -18.2070   34.2360   14.2610 C.3   328  PHE328      0.1639
    144  C        -16.8460   34.7950   14.7460 C.2   328  PHE328      0.2290
    145  O        -16.7870   35.8530   15.3370 O.2   328  PHE328     -0.2864
    146  CB       -18.5980   32.9340   14.9840 C.3   328  PHE328      0.0560
    147  CG       -18.9780   33.0950   16.4400 C.ar  328  PHE328     -0.0200
    148  CD1      -20.2820   33.4330   16.8010 C.ar  328  PHE328     -0.0042
    149  CD2      -18.0510   32.8470   17.4400 C.ar  328  PHE328     -0.0042
    150  CE1      -20.6600   33.5580   18.1660 C.ar  328  PHE328     -0.0003
    151  CE2      -18.4100   32.9580   18.8180 C.ar  328  PHE328     -0.0003
    152  CZ       -19.7020   33.2860   19.1820 C.ar  328  PHE328     -0.0000
@<TRIPOS>BOND
     1    70    71    1
     2    73    72    2
     3    71    72    1
     4    71    74    1
     5    80    79   ar
     6    80    78   ar
     7    79    77   ar
     8    78    76   ar
     9    77    75   ar
    10    76    75   ar
    11    75    74    1
    12    34    32   am
    13   128   126    1
    14   127   126    1
    15    32    33    2
    16    32    31    1
    17   126   123    1
    18   125   124    2
    19   123   124    1
    20   123   122    1
    21    30    29    2
    22   141   139    1
    23    59    58    2
    24   124   129   am
    25    31    28    1
    26    28    29    1
    27    28    27    1
    28    58    57    1
    29   139   140    1
    30   139   136    1
    31   129   130    1
    32    69    68   ar
    33    69    67   ar
    34    68    66   ar
    35    27    25   am
    36   135   136    1
    37   135   131   am
    38    67    65   ar
    39   136   137    1
    40    26    25    2
    41    57    56    1
    42    57    60    1
    43    66    63   ar
    44   131   130    1
    45   131   132    2
    46   130   133    1
    47    65    63   ar
    48    65    64   ar
    49     1     2    1
    50    25    24    1
    51    63    61   ar
    52    64    62   ar
    53    61    62   ar
    54    61    60    1
    55     4     3    2
    56   137   138    2
    57   137   142   am
    58    55    53    1
    59   133   134    1
    60     2     3    1
    61     2     5    1
    62    24    23    1
    63     3    12   am
    64   142   143    1
    65    15    14    2
    66    53    52    2
    67    53    54    1
    68    11     9    1
    69     5     6    1
    70     6     7    1
    71    23    14   am
    72     8     9    2
    73     8     7    1
    74    14    13    1
    75    52    51    1
    76     9    10    1
    77    12    13    1
    78    50    51    1
    79    50    49    1
    80    13    16    1
    81   143   144    1
    82   143   146    1
    83   144   145    2
    84    49    46    1
    85   146   147    1
    86    48    47    2
    87    16    17    1
    88    47    46    1
    89    46    45    1
    90    18    17   ar
    91    18    20   ar
    92    17    19   ar
    93    43    41   ar
    94    43    44   ar
    95   147   148   ar
    96   147   149   ar
    97    99    97   ar
    98    41    40   ar
    99    20    22   ar
   100   148   150   ar
   101    19    21   ar
   102    22    21   ar
   103   149   151   ar
   104    44    42   ar
   105    97    98   ar
   106    97    96    1
   107    40    39    1
   108    40    42   ar
   109    38    37    2
   110   150   152   ar
   111    39    36    1
   112    96    93    1
   113   151   152   ar
   114    37    36    1
   115   114   115    1
   116   114   113    1
   117    36    35    1
   118    93    92    1
   119    93    94    1
   120    92    88   am
   121    94    95    2
   122   113   112    1
   123   112   109    1
   124    91    90    1
   125    88    87    1
   126    88    89    2
   127    84    83    2
   128    87    90    1
   129    87    86    1
   130   111   110    2
   131   110   109    1
   132   109   108    1
   133    83    86   am
   134    83    82    1
   135    85    82    1
   136   118   119    2
   137   118   117    1
   138    82    81    1
   139   120   117    1
   140   120   121    1
   141   106   105   ar
   142   117   116    1
   143   107   105   ar
   144   105   104    1
   145   103   102    2
   146   104   101    1
   147   102   101    1
   148   101   100    1
