@<TRIPOS>MOLECULE
tmp/3zy5A00.pdb
 199 193 0 0 0
SMALL
GASTEIGER

@<TRIPOS>ATOM
      1  N         -9.5480  -24.9780    6.0300 N.3    16  MET16      -0.1230
      2  CA        -8.6040  -25.0730    7.1260 C.3    16  MET16       0.1702
      3  C         -9.2070  -25.4760    8.4460 C.2    16  MET16       0.2593
      4  O        -10.0970  -24.8120    8.9640 O.2    16  MET16      -0.2718
      5  CB        -7.8260  -23.7770    7.3000 C.3    16  MET16       0.0401
      6  CG        -6.4580  -24.0380    7.8890 C.3    16  MET16       0.0596
      7  SD        -5.3760  -22.6530    7.5740 S.3    16  MET16      -0.1393
      8  CE        -6.1300  -21.6140    8.8540 C.3    16  MET16       0.0692
      9  N         -8.6830  -26.5670    8.9890 N.am   17  GLY17      -0.1942
     10  CA        -9.0530  -27.0340   10.3270 C.3    17  GLY17       0.2014
     11  C        -10.4800  -27.4830   10.5260 C.2    17  GLY17       0.2639
     12  O        -11.2850  -27.5780    9.5850 O.2    17  GLY17      -0.2714
     13  N        -10.7790  -27.7600   11.7820 N.am   18  ARG18      -0.1963
     14  CA       -12.0370  -28.3360   12.1840 C.3    18  ARG18       0.1729
     15  C        -13.0190  -27.2040   12.4830 C.2    18  ARG18       0.2616
     16  O        -12.7390  -26.0620   12.1380 O.2    18  ARG18      -0.2715
     17  CB       -11.8100  -29.2960   13.3680 C.3    18  ARG18       0.0348
     18  CG       -10.9470  -30.4950   12.9780 C.3    18  ARG18       0.0492
     19  CD        -9.9590  -30.8660   14.0770 C.3    18  ARG18       0.2205
     20  NE       -10.4330  -31.9890   14.8710 N.pl3  18  ARG18      -0.0865
     21  CZ        -9.7830  -32.5160   15.9100 C.cat  18  ARG18       0.5346
     22  NH1       -8.6130  -32.0160   16.3200 N.pl3  18  ARG18       0.1354
     23  NH2      -10.3150  -33.5490   16.5480 N.pl3  18  ARG18       0.1354
     24  N        -14.1510  -27.5130   13.1140 N.am   19  PHE19      -0.1960
     25  CA       -15.2790  -26.5620   13.1580 C.3    19  PHE19       0.1771
     26  C        -14.9500  -25.2260   13.7860 C.2    19  PHE19       0.2620
     27  O        -15.3400  -24.1980   13.2590 O.2    19  PHE19      -0.2715
     28  CB       -16.4860  -27.1780   13.8390 C.3    19  PHE19       0.0574
     29  CG       -17.7520  -26.3820   13.6870 C.ar   19  PHE19      -0.0200
     30  CD1      -18.3080  -26.1350   12.4210 C.ar   19  PHE19      -0.0042
     31  CD2      -18.4240  -25.9220   14.8040 C.ar   19  PHE19      -0.0042
     32  CE1      -19.5040  -25.4150   12.2930 C.ar   19  PHE19      -0.0003
     33  CE2      -19.5930  -25.2130   14.6770 C.ar   19  PHE19      -0.0003
     34  CZ       -20.1470  -24.9690   13.4260 C.ar   19  PHE19      -0.0000
     35  N        -14.2180  -25.2280   14.8910 N.am   20  GLY20      -0.1940
     36  CA       -13.7160  -23.9630   15.4880 C.3    20  GLY20       0.2014
     37  C        -12.9280  -23.0460   14.5560 C.2    20  GLY20       0.2638
     38  O        -13.2420  -21.8560   14.4260 O.2    20  GLY20      -0.2714
     39  N        -11.9010  -23.6080   13.9130 N.am   21  ASN21      -0.1972
     40  CA       -11.1010  -22.9160   12.9170 C.3    21  ASN21       0.1688
     41  C        -12.0090  -22.4040   11.7890 C.2    21  ASN21       0.2292
     42  O        -11.8680  -21.2570   11.3270 O.2    21  ASN21      -0.2864
     43  CB       -10.0380  -23.8860   12.3720 C.3    21  ASN21       0.1181
     44  CG        -8.9330  -23.2010   11.5860 C.2    21  ASN21       0.2629
     45  OD1       -7.8060  -23.7070   11.5210 O.2    21  ASN21      -0.2716
     46  ND2       -9.2420  -22.0610   10.9780 N.am   21  ASN21      -0.0877
     47  N        -16.8120  -31.8470    8.1910 N.3    47  GLU47      -0.1245
     48  CA       -16.5790  -32.6960    9.3440 C.3    47  GLU47       0.1567
     49  C        -15.8870  -33.9670    8.8740 C.2    47  GLU47       0.2260
     50  O        -16.3490  -34.6440    7.9540 O.2    47  GLU47      -0.2867
     51  CB       -17.8960  -32.9760   10.0730 C.3    47  GLU47       0.0388
     52  CG       -17.7530  -33.5830   11.4760 C.3    47  GLU47       0.1160
     53  CD       -19.1080  -33.9440   12.0690 C.2    47  GLU47       0.3649
     54  OE1      -20.0150  -33.0710   12.0660 O.co2  47  GLU47      -0.2457
     55  OE2      -19.2780  -35.1090   12.5040 O.co2  47  GLU47      -0.2457
     56  N         -6.5990  -15.9180   10.3390 N.3   174  PHE174     -0.1241
     57  CA        -6.6610  -16.9100   11.3930 C.3   174  PHE174      0.1605
     58  C         -5.3770  -16.8250   12.2240 C.2   174  PHE174      0.2264
     59  O         -4.2740  -16.9040   11.6640 O.2   174  PHE174     -0.2867
     60  CB        -6.8450  -18.3270   10.8610 C.3   174  PHE174      0.0534
     61  CG        -6.9840  -19.3440   11.9560 C.ar  174  PHE174     -0.0203
     62  CD1       -8.1990  -19.4990   12.6300 C.ar  174  PHE174     -0.0042
     63  CD2       -5.8930  -20.1000   12.3560 C.ar  174  PHE174     -0.0042
     64  CE1       -8.3280  -20.4160   13.7080 C.ar  174  PHE174     -0.0003
     65  CE2       -5.9980  -21.0270   13.4350 C.ar  174  PHE174     -0.0003
     66  CZ        -7.2190  -21.1940   14.0940 C.ar  174  PHE174     -0.0000
     67  N        -15.7270  -26.7630   28.9770 N.3   213  HIS213     -0.1241
     68  CA       -15.0990  -27.3800   27.8090 C.3   213  HIS213      0.1621
     69  C        -13.7170  -27.9440   28.1510 C.2   213  HIS213      0.2264
     70  O        -12.8410  -27.2110   28.6110 O.2   213  HIS213     -0.2867
     71  CB       -15.0260  -26.3820   26.6460 C.3   213  HIS213      0.0745
     72  CG       -14.3030  -26.9060   25.4400 C.ar  213  HIS213      0.0817
     73  ND1      -13.3350  -26.1780   24.7840 N.ar  213  HIS213     -0.2268
     74  CD2      -14.3980  -28.0880   24.7820 C.ar  213  HIS213      0.1154
     75  CE1      -12.8670  -26.8870   23.7700 C.ar  213  HIS213      0.1986
     76  NE2      -13.4980  -28.0470   23.7440 N.ar  213  HIS213     -0.2212
     77  N        -10.4940  -29.7220   26.6350 N.3   215  ARG215     -0.1245
     78  CA        -9.7290  -30.0450   25.4420 C.3   215  ARG215      0.1563
     79  C         -8.4270  -30.7240   25.8850 C.2   215  ARG215      0.2260
     80  O         -7.5840  -30.0910   26.5260 O.2   215  ARG215     -0.2867
     81  CB        -9.4850  -28.7530   24.6440 C.3   215  ARG215      0.0307
     82  CG        -8.8820  -28.9350   23.2570 C.3   215  ARG215      0.0489
     83  CD        -9.9100  -29.1410   22.1440 C.3   215  ARG215      0.2205
     84  NE        -9.2910  -28.8480   20.8460 N.pl3 215  ARG215     -0.0865
     85  CZ        -8.4920  -29.6780   20.1850 C.cat 215  ARG215      0.5346
     86  NH1       -8.2220  -30.8830   20.6750 N.pl3 215  ARG215      0.1354
     87  NH2       -7.9700  -29.3100   19.0250 N.pl3 215  ARG215      0.1354
     88  N         -2.6880  -34.4870   20.7480 N.3   219  ASP219     -0.1225
     89  CA        -2.2130  -33.4490   19.8330 C.3   219  ASP219      0.1805
     90  C         -2.2850  -32.0510   20.4350 C.2   219  ASP219      0.2597
     91  O         -1.4600  -31.1850   20.1160 O.2   219  ASP219     -0.2718
     92  CB        -3.0270  -33.4720   18.5340 C.3   219  ASP219      0.1424
     93  CG        -2.6350  -34.6110   17.6080 C.2   219  ASP219      0.3668
     94  OD1       -1.6110  -35.2900   17.8450 O.co2 219  ASP219     -0.2456
     95  OD2       -3.3660  -34.8260   16.6250 O.co2 219  ASP219     -0.2456
     96  N         -3.2880  -31.8370   21.2860 N.am  220  TRP220     -0.1976
     97  CA        -3.4830  -30.5680   21.9780 C.3   220  TRP220      0.1640
     98  C         -2.4140  -30.3090   23.0460 C.2   220  TRP220      0.2290
     99  O         -1.8800  -29.2020   23.1400 O.2   220  TRP220     -0.2864
    100  CB        -4.8810  -30.5210   22.5960 C.3   220  TRP220      0.0576
    101  CG        -5.1980  -29.2480   23.2930 C.ar  220  TRP220      0.0006
    102  CD1       -5.1690  -29.0240   24.6430 C.ar  220  TRP220      0.0946
    103  CD2       -5.6180  -28.0140   22.6890 C.ar  220  TRP220      0.0152
    104  NE1       -5.5370  -27.7260   24.9180 N.ar  220  TRP220     -0.2442
    105  CE2       -5.8230  -27.0850   23.7370 C.ar  220  TRP220      0.0810
    106  CE3       -5.8360  -27.6020   21.3680 C.ar  220  TRP220      0.0012
    107  CZ2       -6.2260  -25.7640   23.5020 C.ar  220  TRP220      0.0191
    108  CZ3       -6.2540  -26.2960   21.1320 C.ar  220  TRP220      0.0001
    109  CH2       -6.4400  -25.3910   22.1980 C.ar  220  TRP220      0.0015
    110  N          0.8410  -29.1360   21.4340 N.3   223  VAL223     -0.1245
    111  CA         0.9550  -27.7160   21.0390 C.3   223  VAL223      0.1561
    112  C          1.0870  -26.7990   22.2500 C.2   223  VAL223      0.2260
    113  O          1.7450  -25.7530   22.1780 O.2   223  VAL223     -0.2867
    114  CB        -0.1920  -27.2040   20.1070 C.3   223  VAL223      0.0252
    115  CG1       -0.3830  -28.1410   18.9050 C.3   223  VAL223      0.0019
    116  CG2       -1.4880  -27.0020   20.8700 C.3   223  VAL223      0.0019
    117  N         -3.6910  -19.4450   18.8040 N.3   236  PHE236     -0.1241
    118  CA        -5.0890  -19.6510   18.4250 C.3   236  PHE236      0.1605
    119  C         -6.0230  -18.6050   19.0390 C.2   236  PHE236      0.2264
    120  O         -5.9160  -17.4130   18.7090 O.2   236  PHE236     -0.2867
    121  CB        -5.4780  -21.1070   18.6890 C.3   236  PHE236      0.0534
    122  CG        -4.5640  -22.0800   17.9840 C.ar  236  PHE236     -0.0203
    123  CD1       -4.3510  -21.9620   16.6110 C.ar  236  PHE236     -0.0042
    124  CD2       -3.8700  -23.0620   18.6890 C.ar  236  PHE236     -0.0042
    125  CE1       -3.4730  -22.8370   15.9400 C.ar  236  PHE236     -0.0003
    126  CE2       -3.0050  -23.9420   18.0350 C.ar  236  PHE236     -0.0003
    127  CZ        -2.8040  -23.8320   16.6580 C.ar  236  PHE236     -0.0000
    128  N        -18.4240  -30.8790   27.8740 N.3   282  ALA282     -0.1231
    129  CA       -18.0780  -31.1940   26.4950 C.3   282  ALA282      0.1694
    130  C        -16.5760  -31.3640   26.4310 C.2   282  ALA282      0.2593
    131  O        -15.8280  -30.5960   27.0310 O.2   282  ALA282     -0.2718
    132  CB       -18.5320  -30.1000   25.5590 C.3   282  ALA282      0.0304
    133  N        -16.1400  -32.3790   25.6950 N.am  283  SER283     -0.1938
    134  CA       -14.7280  -32.6840   25.5450 C.3   283  SER283      0.2055
    135  C        -14.4570  -33.3380   24.1900 C.2   283  SER283      0.2643
    136  O        -15.3370  -33.9760   23.5940 O.2   283  SER283     -0.2714
    137  CB       -14.2650  -33.6150   26.6740 C.3   283  SER283      0.2130
    138  OG       -12.9440  -34.0720   26.4390 O.3   283  SER283     -0.2179
    139  N        -13.2300  -33.1710   23.7190 N.am  284  ASP284     -0.1971
    140  CA       -12.7560  -33.8290   22.5120 C.3   284  ASP284      0.1709
    141  C        -12.4070  -35.3040   22.7480 C.2   284  ASP284      0.2293
    142  O        -12.2050  -36.0580   21.7860 O.2   284  ASP284     -0.2864
    143  CB       -11.5220  -33.0870   21.9860 C.3   284  ASP284      0.1436
    144  CG       -10.3630  -33.0740   22.9850 C.2   284  ASP284      0.3671
    145  OD1      -10.5750  -33.2830   24.2030 O.co2 284  ASP284     -0.2456
    146  OD2       -9.2220  -32.8420   22.5400 O.co2 284  ASP284     -0.2456
    147  N        -21.2180  -37.9530   21.6310 N.3   309  ASP309     -0.1239
    148  CA       -20.9800  -36.5210   21.8510 C.3   309  ASP309      0.1674
    149  C        -21.0460  -35.6180   20.6010 C.2   309  ASP309      0.2266
    150  O        -20.0550  -35.4340   19.8840 O.2   309  ASP309     -0.2867
    151  CB       -19.6730  -36.2950   22.6270 C.3   309  ASP309      0.1410
    152  CG       -19.6530  -34.9640   23.3630 C.2   309  ASP309      0.3668
    153  OD1      -20.7210  -34.3290   23.4670 O.co2 309  ASP309     -0.2456
    154  OD2      -18.5780  -34.5530   23.8500 O.co2 309  ASP309     -0.2456
    155  N        -20.8940  -32.4120   18.7150 N.3   311  MET311     -0.1245
    156  CA       -20.1430  -31.1840   18.9780 C.3   311  MET311      0.1570
    157  C        -21.0230  -29.9450   18.8440 C.2   311  MET311      0.2261
    158  O        -20.8750  -29.0010   19.5970 O.2   311  MET311     -0.2867
    159  CB       -18.9130  -31.0640   18.0670 C.3   311  MET311      0.0387
    160  CG       -19.2420  -30.7420   16.6120 C.3   311  MET311      0.0595
    161  SD       -17.7900  -30.8210   15.5520 S.3   311  MET311     -0.1393
    162  CE       -17.0180  -29.2900   15.9660 C.3   311  MET311      0.0692
    163  N        -23.4340  -29.7500   21.7170 N.3   314  SER314     -0.1217
    164  CA       -22.6240  -29.4220   22.9000 C.3   314  SER314      0.1889
    165  C        -22.3310  -27.9170   22.9600 C.2   314  SER314      0.2288
    166  O        -22.5180  -27.2790   24.0070 O.2   314  SER314     -0.2866
    167  CB       -21.3350  -30.2340   22.9360 C.3   314  SER314      0.2089
    168  OG       -21.5960  -31.6140   23.1500 O.3   314  SER314     -0.2183
    169  N         -7.3510  -21.0840   24.9080 N.3   329  VAL329     -0.1231
    170  CA        -6.5980  -21.2790   23.6750 C.3   329  VAL329      0.1692
    171  C         -7.5040  -21.7850   22.5470 C.2   329  VAL329      0.2593
    172  O         -7.2670  -21.5040   21.3700 O.2   329  VAL329     -0.2718
    173  CB        -5.3700  -22.2070   23.9320 C.3   329  VAL329      0.0266
    174  CG1       -4.4880  -22.3940   22.6870 C.3   329  VAL329      0.0020
    175  CG2       -4.5290  -21.6300   25.0630 C.3   329  VAL329      0.0020
    176  N         -8.5520  -22.5160   22.9080 N.am  330  SER330     -0.1938
    177  CA        -9.3770  -23.2030   21.9140 C.3   330  SER330      0.2055
    178  C        -10.3900  -22.2960   21.1820 C.2   330  SER330      0.2644
    179  O        -11.1020  -21.5020   21.8090 O.2   330  SER330     -0.2714
    180  CB       -10.0590  -24.4130   22.5580 C.3   330  SER330      0.2130
    181  OG       -11.0080  -24.9790   21.6780 O.3   330  SER330     -0.2179
    182  N        -10.4160  -22.4080   19.8520 N.am  331  THR331     -0.1936
    183  CA       -11.3730  -21.6750   19.0130 C.3   331  THR331      0.2028
    184  C        -12.7750  -22.2750   19.1370 C.2   331  THR331      0.2642
    185  O        -13.7650  -21.6220   18.8170 O.2   331  THR331     -0.2714
    186  CB       -10.9500  -21.6200   17.5150 C.3   331  THR331      0.1808
    187  OG1      -10.9100  -22.9430   16.9580 O.3   331  THR331     -0.2208
    188  CG2       -9.5690  -21.0040   17.3610 C.3   331  THR331      0.0379
    189  N        -12.8380  -23.5310   19.5900 N.am  332  PHE332     -0.1973
    190  CA       -14.0970  -24.1820   19.9190 C.3   332  PHE332      0.1639
    191  C        -14.7700  -23.4720   21.1130 C.2   332  PHE332      0.2290
    192  O        -15.9330  -23.0450   21.0230 O.2   332  PHE332     -0.2864
    193  CB       -13.8240  -25.6570   20.2350 C.3   332  PHE332      0.0560
    194  CG       -15.0380  -26.5360   20.1640 C.ar  332  PHE332     -0.0200
    195  CD1      -15.5330  -26.9780   18.9350 C.ar  332  PHE332     -0.0042
    196  CD2      -15.6730  -26.9510   21.3240 C.ar  332  PHE332     -0.0042
    197  CE1      -16.6510  -27.7920   18.8740 C.ar  332  PHE332     -0.0003
    198  CE2      -16.7820  -27.7770   21.2720 C.ar  332  PHE332     -0.0003
    199  CZ       -17.2670  -28.2050   20.0410 C.ar  332  PHE332     -0.0000
@<TRIPOS>BOND
     1     1     2    1
     2     2     5    1
     3     2     3    1
     4     5     6    1
     5     7     6    1
     6     7     8    1
     7    50    49    2
     8    47    48    1
     9     3     4    2
    10     3     9   am
    11    49    48    1
    12     9    10    1
    13    48    51    1
    14    12    11    2
    15    51    52    1
    16    10    11    1
    17    56    57    1
    18    11    13   am
    19    60    57    1
    20    60    61    1
    21    46    44   am
    22    42    41    2
    23    57    58    1
    24    52    53    1
    25    45    44    2
    26    44    43    1
    27    59    58    2
    28    13    14    1
    29    41    40    1
    30    61    63   ar
    31    61    62   ar
    32    54    53   ar
    33    53    55   ar
    34    16    15    2
    35    14    15    1
    36    14    17    1
    37    32    30   ar
    38    32    34   ar
    39    63    65   ar
    40    43    40    1
    41    30    29   ar
    42    15    24   am
    43    62    64   ar
    44    40    39    1
    45    18    17    1
    46    18    19    1
    47    24    25    1
    48    25    26    1
    49    25    28    1
    50    27    26    2
    51    34    33   ar
    52    65    66   ar
    53    29    28    1
    54    29    31   ar
    55    64    66   ar
    56    26    35   am
    57    39    37   am
    58    19    20    1
    59    38    37    2
    60    37    36    1
    61    33    31   ar
    62    20    21    2
    63    35    36    1
    64   161   162    1
    65   161   160    1
    66    21    22    1
    67    21    23    1
    68   125   123   ar
    69   125   127   ar
    70   123   122   ar
    71   160   159    1
    72    95    93   ar
    73   127   126   ar
    74   187   186    1
    75   188   186    1
    76   186   183    1
    77    93    94   ar
    78    93    92    1
    79   122   124   ar
    80   122   121    1
    81   126   124   ar
    82   159   156    1
    83   118   121    1
    84   118   117    1
    85   118   119    1
    86    92    89    1
    87   120   119    2
    88   155   156    1
    89   185   184    2
    90   157   156    1
    91   157   158    2
    92   197   195   ar
    93   197   199   ar
    94   115   114    1
    95   195   194   ar
    96   183   184    1
    97   183   182    1
    98    87    85    1
    99   184   189   am
   100   189   190    1
   101    89    90    1
   102    89    88    1
   103   182   178   am
   104   150   149    2
   105   190   193    1
   106   190   191    1
   107   199   198   ar
   108   114   116    1
   109   114   111    1
   110    91    90    2
   111   194   193    1
   112   194   196   ar
   113    85    86    1
   114    85    84    2
   115    90    96   am
   116   149   148    1
   117    84    83    1
   118   192   191    2
   119   111   110    1
   120   111   112    1
   121   108   106   ar
   122   108   109   ar
   123   178   179    2
   124   178   177    1
   125   198   196   ar
   126    96    97    1
   127   106   103   ar
   128   172   171    2
   129   147   148    1
   130   181   180    1
   131   163   164    1
   132   142   141    2
   133   148   151    1
   134   177   180    1
   135   177   176    1
   136    97   100    1
   137    97    98    1
   138   143   140    1
   139   143   144    1
   140    83    82    1
   141   113   112    2
   142   109   107   ar
   143   140   141    1
   144   140   139    1
   145   146   144   ar
   146   171   176   am
   147   171   170    1
   148   100   101    1
   149   151   152    1
   150   174   173    1
   151   103   101   ar
   152   103   105   ar
   153   164   167    1
   154   164   165    1
   155   167   168    1
   156   165   166    2
   157   144   145   ar
   158    98    99    2
   159    82    81    1
   160   101   102   ar
   161   152   153   ar
   162   152   154   ar
   163   107   105   ar
   164   136   135    2
   165   170   173    1
   166   170   169    1
   167   139   135   am
   168   105   104   ar
   169    76    75   ar
   170    76    74   ar
   171    75    73   ar
   172   173   175    1
   173   135   134    1
   174   102   104   ar
   175    81    78    1
   176    74    72   ar
   177    73    72   ar
   178    72    71    1
   179    78    79    1
   180    78    77    1
   181   134   133    1
   182   134   137    1
   183   132   129    1
   184   133   130   am
   185    79    80    2
   186   130   129    1
   187   130   131    2
   188   138   137    1
   189   129   128    1
   190    71    68    1
   191    68    69    1
   192    68    67    1
   193    69    70    2
