@<TRIPOS>MOLECULE
tmp/3zy7B01.pdb
 70 67 0 0 0
SMALL
GASTEIGER

@<TRIPOS>ATOM
      1  N         18.0150   25.0810    9.9540 N.3     9  ASP9       -0.1225
      2  CA        19.2370   24.2970   10.0300 C.3     9  ASP9        0.1805
      3  C         19.1880   23.4190   11.2740 C.2     9  ASP9        0.2598
      4  O         19.3580   23.8840   12.4020 O.2     9  ASP9       -0.2718
      5  CB        20.4490   25.2340   10.0240 C.3     9  ASP9        0.1424
      6  CG        21.7650   24.5180    9.8470 C.2     9  ASP9        0.3668
      7  OD1       21.7700   23.3030    9.5920 O.co2   9  ASP9       -0.2456
      8  OD2       22.7930   25.2050    9.9340 O.co2   9  ASP9       -0.2456
      9  N         18.9340   22.1370   11.0940 N.am   10  ALA10      -0.1966
     10  CA        18.9140   21.2720   12.2580 C.3    10  ALA10       0.1728
     11  C         19.2750   19.9220   11.8180 C.2    10  ALA10       0.2616
     12  O         18.6000   19.3600   10.9430 O.2    10  ALA10      -0.2715
     13  CB        17.5260   21.2400   12.9370 C.3    10  ALA10       0.0334
     14  N         20.2990   19.3850   12.5000 N.am   11  LEU11      -0.1963
     15  CA        20.6140   17.9530   12.5330 C.3    11  LEU11       0.1728
     16  C         20.8140   17.3510   11.1630 C.2    11  LEU11       0.2617
     17  O         20.5110   16.1910   10.9070 O.2    11  LEU11      -0.2715
     18  CB        19.5240   17.1980   13.2630 C.3    11  LEU11       0.0311
     19  CG        19.3910   17.6170   14.7190 C.3    11  LEU11       0.0022
     20  CD1       18.3480   16.7320   15.3280 C.3    11  LEU11       0.0001
     21  CD2       20.6940   17.4660   15.5070 C.3    11  LEU11       0.0001
     22  N         21.3760   18.1330   10.2840 N.am   12  GLY12      -0.1940
     23  CA        21.6640   17.6170    8.9820 C.3    12  GLY12       0.2014
     24  C         20.8410   18.1480    7.8220 C.2    12  GLY12       0.2639
     25  O         21.2740   18.0180    6.6910 O.2    12  GLY12      -0.2714
     26  N         19.6670   18.7290    8.0680 N.am   13  LEU13      -0.1963
     27  CA        18.8560   19.3620    7.0480 C.3    13  LEU13       0.1728
     28  C         19.0180   20.8780    7.1260 C.2    13  LEU13       0.2616
     29  O         18.8310   21.4690    8.1930 O.2    13  LEU13      -0.2715
     30  CB        17.4090   18.9760    7.2860 C.3    13  LEU13       0.0311
     31  CG        16.3930   19.5980    6.3380 C.3    13  LEU13       0.0022
     32  CD1       16.6680   19.2440    4.8920 C.3    13  LEU13       0.0001
     33  CD2       15.0020   19.1430    6.6900 C.3    13  LEU13       0.0001
     34  N         19.3810   21.4870    6.0000 N.am   14  LYS14      -0.1977
     35  CA        19.4980   22.9290    5.9040 C.3    14  LYS14       0.1596
     36  C         18.6240   23.4170    4.7630 C.2    14  LYS14       0.2287
     37  O         18.5860   22.8190    3.6930 O.2    14  LYS14      -0.2864
     38  CB        20.9550   23.3090    5.6450 C.3    14  LYS14       0.0298
     39  CG        21.2150   24.7860    5.6320 C.3    14  LYS14       0.0038
     40  CD        22.7200   25.0650    5.6030 C.3    14  LYS14       0.0206
     41  CE        23.0580   26.5290    5.4060 C.3    14  LYS14       0.1093
     42  NZ        24.5420   26.7380    5.4380 N.3    14  LYS14      -0.1314
     43  N         19.2190   20.9820    1.5370 N.3    32  SER32      -0.1202
     44  CA        20.3850   20.1070    1.4560 C.3    32  SER32       0.2020
     45  C         20.4930   19.2460    2.7140 C.2    32  SER32       0.2619
     46  O         19.9460   19.5670    3.7590 O.2    32  SER32      -0.2717
     47  CB        21.6590   20.9150    1.2610 C.3    32  SER32       0.2103
     48  OG        21.7890   21.8860    2.2670 O.3    32  SER32      -0.2182
     49  N         21.2200   18.1450    2.5690 N.am   33  ASN33      -0.1960
     50  CA        21.2600   17.0420    3.5230 C.3    33  ASN33       0.1819
     51  C         22.7030   16.6180    3.7430 C.2    33  ASN33       0.2622
     52  O         23.3350   16.1130    2.8120 O.2    33  ASN33      -0.2715
     53  CB        20.4350   15.8900    2.9360 C.3    33  ASN33       0.1195
     54  CG        20.5700   14.5670    3.6770 C.2    33  ASN33       0.2630
     55  OD1       21.0640   14.4860    4.7930 O.2    33  ASN33      -0.2716
     56  ND2       20.0800   13.5090    3.0470 N.am   33  ASN33      -0.0877
     57  N         23.2230   16.8570    4.9380 N.am   34  SER34      -0.1950
     58  CA        24.5990   16.5220    5.2800 C.3    34  SER34       0.1924
     59  C         24.7350   15.1620    5.9490 C.2    34  SER34       0.2314
     60  O         25.8260   14.7750    6.3520 O.2    34  SER34      -0.2863
     61  CB        25.1580   17.5750    6.2320 C.3    34  SER34       0.2116
     62  OG        25.3310   18.8030    5.5650 O.3    34  SER34      -0.2180
     63  N         25.3260   16.0620    0.7470 N.3    68  ASN68      -0.1240
     64  CA        25.3790   17.2910   -0.0320 C.3    68  ASN68       0.1653
     65  C         25.6800   17.0810   -1.5080 C.2    68  ASN68       0.2266
     66  O         26.3150   17.9330   -2.1260 O.2    68  ASN68      -0.2867
     67  CB        26.3810   18.2740    0.5680 C.3    68  ASN68       0.1155
     68  CG        25.8990   18.8220    1.8600 C.2    68  ASN68       0.2627
     69  OD1       24.9460   19.6140    1.8900 O.2    68  ASN68      -0.2716
     70  ND2       26.4780   18.3620    2.9510 N.am   68  ASN68      -0.0877
@<TRIPOS>BOND
     1    66    65    2
     2    65    64    1
     3    64    67    1
     4    64    63    1
     5    67    68    1
     6    47    44    1
     7    47    48    1
     8    44    43    1
     9    44    45    1
    10    68    69    2
    11    68    70   am
    12    49    45   am
    13    49    50    1
    14    45    46    2
    15    52    51    2
    16    53    50    1
    17    53    54    1
    18    56    54   am
    19    50    51    1
    20    54    55    2
    21    37    36    2
    22    51    57   am
    23    36    35    1
    24    32    31    1
    25    57    58    1
    26    58    59    1
    27    58    61    1
    28    41    42    1
    29    41    40    1
    30    62    61    1
    31    40    39    1
    32    39    38    1
    33    38    35    1
    34    35    34    1
    35    59    60    2
    36    34    28   am
    37    31    33    1
    38    31    30    1
    39    25    24    2
    40    27    28    1
    41    27    30    1
    42    27    26    1
    43    28    29    2
    44    24    26   am
    45    24    23    1
    46    23    22    1
    47     7     6   ar
    48     6     8   ar
    49     6     5    1
    50     1     2    1
    51     5     2    1
    52     2     3    1
    53    22    16   am
    54    17    16    2
    55    12    11    2
    56     9     3   am
    57     9    10    1
    58    16    15    1
    59     3     4    2
    60    11    10    1
    61    11    14   am
    62    10    13    1
    63    14    15    1
    64    15    18    1
    65    18    19    1
    66    19    20    1
    67    19    21    1
