@<TRIPOS>MOLECULE
tmp/3zyaA00.pdb
 171 160 0 0 0
SMALL
GASTEIGER

@<TRIPOS>ATOM
      1  N         10.9090  -13.9360  -39.4300 N.3    35  VAL35      -0.1231
      2  CA         9.7610  -14.2410  -38.5840 C.3    35  VAL35       0.1692
      3  C          9.3190  -12.9970  -37.8240 C.2    35  VAL35       0.2592
      4  O         10.1310  -12.1130  -37.5370 O.2    35  VAL35      -0.2718
      5  CB        10.0520  -15.3910  -37.5960 C.3    35  VAL35       0.0266
      6  CG1       10.4420  -16.6550  -38.3490 C.3    35  VAL35       0.0020
      7  CG2       11.1350  -14.9960  -36.6200 C.3    35  VAL35       0.0020
      8  N          8.0250  -12.9180  -37.5300 N.am   36  GLY36      -0.1957
      9  CA         7.4870  -11.8650  -36.6830 C.3    36  GLY36       0.1869
     10  C          7.3170  -10.4900  -37.3040 C.2    36  GLY36       0.2309
     11  O          6.6910   -9.6160  -36.7010 O.2    36  GLY36      -0.2863
     12  N         10.1040   -8.5550  -33.2390 N.3    40  TYR40      -0.1241
     13  CA        11.1560   -8.9900  -32.3220 C.3    40  TYR40       0.1605
     14  C         12.5270   -8.4430  -32.7080 C.2    40  TYR40       0.2264
     15  O         13.5290   -8.7320  -32.0460 O.2    40  TYR40      -0.2867
     16  CB        11.1810  -10.5140  -32.2470 C.3    40  TYR40       0.0534
     17  CG         9.7880  -11.1050  -32.2060 C.ar   40  TYR40      -0.0201
     18  CD1        9.0580  -11.1380  -31.0190 C.ar   40  TYR40      -0.0009
     19  CD2        9.1930  -11.6120  -33.3620 C.ar   40  TYR40      -0.0009
     20  CE1        7.7770  -11.6750  -30.9830 C.ar   40  TYR40       0.0417
     21  CE2        7.9230  -12.1520  -33.3330 C.ar   40  TYR40       0.0417
     22  CZ         7.2170  -12.1790  -32.1480 C.ar   40  TYR40       0.1957
     23  OH         5.9480  -12.7170  -32.1380 O.3    40  TYR40      -0.2866
     24  N         14.6790  -10.7810  -37.0630 N.3    43  VAL43      -0.1245
     25  CA        14.9430  -12.1760  -36.6760 C.3    43  VAL43       0.1561
     26  C         14.5100  -13.0440  -37.8380 C.2    43  VAL43       0.2260
     27  O         13.4250  -12.8570  -38.3830 O.2    43  VAL43      -0.2867
     28  CB        14.1340  -12.5840  -35.4090 C.3    43  VAL43       0.0252
     29  CG1       14.3970  -14.0520  -35.0300 C.3    43  VAL43       0.0019
     30  CG2       14.4550  -11.6400  -34.2330 C.3    43  VAL43       0.0019
     31  N         16.8920  -19.5150  -34.6410 N.3    56  ALA56      -0.1245
     32  CA        16.4960  -18.1350  -34.8730 C.3    56  ALA56       0.1562
     33  C         17.7670  -17.2980  -34.8950 C.2    56  ALA56       0.2260
     34  O         18.6100  -17.4280  -34.0130 O.2    56  ALA56      -0.2867
     35  CB        15.5590  -17.6660  -33.7730 C.3    56  ALA56       0.0290
     36  N         19.2240  -13.4480  -35.0030 N.3    58  LYS58      -0.1245
     37  CA        18.8280  -12.0580  -34.8120 C.3    58  LYS58       0.1561
     38  C         19.9630  -11.1410  -35.2080 C.2    58  LYS58       0.2260
     39  O         21.0840  -11.2880  -34.7170 O.2    58  LYS58      -0.2867
     40  CB        18.4200  -11.8010  -33.3540 C.3    58  LYS58       0.0271
     41  CG        18.0840  -10.3360  -33.0870 C.3    58  LYS58       0.0035
     42  CD        17.2500  -10.1350  -31.8240 C.3    58  LYS58       0.0206
     43  CE        18.0720  -10.1660  -30.5460 C.3    58  LYS58       0.1093
     44  NZ        17.2490   -9.7160  -29.3630 N.3    58  LYS58      -0.1314
     45  N         23.6310   -6.6760  -23.3770 N.3    76  GLU76      -0.1245
     46  CA        22.8230   -7.7790  -23.8930 C.3    76  GLU76       0.1567
     47  C         23.6830   -8.9690  -24.2420 C.2    76  GLU76       0.2260
     48  O         23.3250  -10.0990  -23.9550 O.2    76  GLU76      -0.2867
     49  CB        21.9730   -7.3690  -25.1110 C.3    76  GLU76       0.0388
     50  CG        21.1840   -8.5680  -25.7060 C.3    76  GLU76       0.1160
     51  CD        20.2400   -8.2150  -26.8740 C.2    76  GLU76       0.3649
     52  OE1       20.3680   -7.1210  -27.4650 O.co2  76  GLU76      -0.2457
     53  OE2       19.3630   -9.0510  -27.2090 O.co2  76  GLU76      -0.2457
     54  N         23.3890  -12.5930  -22.4450 N.3    80  LEU80      -0.1245
     55  CA        23.0740  -13.7680  -23.2490 C.3    80  LEU80       0.1561
     56  C         24.1740  -14.8070  -23.1950 C.2    80  LEU80       0.2260
     57  O         23.9030  -15.9930  -23.2870 O.2    80  LEU80      -0.2867
     58  CB        22.8380  -13.3750  -24.7000 C.3    80  LEU80       0.0270
     59  CG        21.5080  -12.6970  -25.0290 C.3    80  LEU80       0.0019
     60  CD1       21.5260  -12.2430  -26.4780 C.3    80  LEU80       0.0001
     61  CD2       20.3460  -13.6500  -24.7830 C.3    80  LEU80       0.0001
     62  N         16.2930  -17.8280  -22.9910 N.3    89  ILE89      -0.1245
     63  CA        16.9430  -17.7920  -24.2930 C.3    89  ILE89       0.1561
     64  C         18.4370  -17.5770  -24.0760 C.2    89  ILE89       0.2260
     65  O         18.8320  -16.6170  -23.4220 O.2    89  ILE89      -0.2867
     66  CB        16.3700  -16.6790  -25.1760 C.3    89  ILE89       0.0252
     67  CG1       14.9210  -17.0000  -25.5250 C.3    89  ILE89       0.0019
     68  CG2       17.1970  -16.5260  -26.4550 C.3    89  ILE89       0.0019
     69  CD1       14.7750  -18.0660  -26.5790 C.3    89  ILE89       0.0001
     70  N         22.6370  -18.5140  -26.0230 N.3    91  LEU91      -0.1245
     71  CA        23.2950  -18.4180  -27.3310 C.3    91  LEU91       0.1561
     72  C         23.8570  -19.7310  -27.8240 C.2    91  LEU91       0.2260
     73  O         24.6210  -20.3870  -27.1230 O.2    91  LEU91      -0.2867
     74  CB        24.4360  -17.4070  -27.2640 C.3    91  LEU91       0.0270
     75  CG        24.0550  -15.9410  -27.1770 C.3    91  LEU91       0.0019
     76  CD1       25.3110  -15.0960  -26.9560 C.3    91  LEU91       0.0001
     77  CD2       23.3150  -15.5180  -28.4470 C.3    91  LEU91       0.0001
     78  N         23.1350  -12.8720  -33.5380 N.3   109  LEU109     -0.1231
     79  CA        22.9750  -13.7790  -32.4130 C.3   109  LEU109      0.1693
     80  C         22.1570  -14.9820  -32.8620 C.2   109  LEU109      0.2592
     81  O         21.2200  -14.8400  -33.6360 O.2   109  LEU109     -0.2718
     82  CB        22.2260  -13.0530  -31.2870 C.3   109  LEU109      0.0284
     83  CG        22.7960  -11.6940  -30.8720 C.3   109  LEU109      0.0019
     84  CD1       21.8450  -10.9640  -29.9040 C.3   109  LEU109      0.0001
     85  CD2       24.1340  -11.9080  -30.2140 C.3   109  LEU109      0.0001
     86  N         22.4850  -16.1640  -32.3640 N.am  110  VAL110     -0.1966
     87  CA        21.7760  -17.3570  -32.8070 C.3   110  VAL110      0.1727
     88  C         21.2600  -18.1270  -31.5900 C.2   110  VAL110      0.2617
     89  O         22.0130  -18.3680  -30.6610 O.2   110  VAL110     -0.2715
     90  CB        22.6900  -18.2910  -33.6210 C.3   110  VAL110      0.0290
     91  CG1       21.9060  -19.4980  -34.1390 C.3   110  VAL110      0.0023
     92  CG2       23.3760  -17.5350  -34.8090 C.3   110  VAL110      0.0023
     93  N         19.9810  -18.4970  -31.5960 N.am  111  THR111     -0.1937
     94  CA        19.4270  -19.3450  -30.5310 C.3   111  THR111      0.2028
     95  C         18.5000  -20.4200  -31.1420 C.2   111  THR111      0.2642
     96  O         18.2490  -20.4120  -32.3430 O.2   111  THR111     -0.2714
     97  CB        18.6760  -18.4930  -29.4700 C.3   111  THR111      0.1808
     98  OG1       18.3680  -19.2920  -28.3160 O.3   111  THR111     -0.2208
     99  CG2       17.3800  -17.9280  -30.0530 C.3   111  THR111      0.0379
    100  N         18.0240  -21.3580  -30.3210 N.am  112  HIS112     -0.1959
    101  CA        17.1060  -22.4010  -30.7940 C.3   112  HIS112      0.1787
    102  C         15.8170  -21.7550  -31.2690 C.2   112  HIS112      0.2620
    103  O         15.3360  -20.7950  -30.6720 O.2   112  HIS112     -0.2715
    104  CB        16.7620  -23.4080  -29.6790 C.3   112  HIS112      0.0785
    105  CG        17.8490  -24.3930  -29.3810 C.ar  112  HIS112      0.0821
    106  ND1       18.7440  -24.2190  -28.3470 N.ar  112  HIS112     -0.2267
    107  CD2       18.1760  -25.5700  -29.9650 C.ar  112  HIS112      0.1154
    108  CE1       19.5830  -25.2380  -28.3160 C.ar  112  HIS112      0.1986
    109  NE2       19.2650  -26.0710  -29.2900 N.ar  112  HIS112     -0.2212
    110  N         15.2550  -22.2630  -32.3590 N.am  113  LEU113     -0.1963
    111  CA        14.0040  -21.6910  -32.8600 C.3   113  LEU113      0.1728
    112  C         12.8390  -22.2200  -32.0180 C.2   113  LEU113      0.2616
    113  O         12.7350  -23.4220  -31.7970 O.2   113  LEU113     -0.2715
    114  CB        13.8040  -22.0360  -34.3350 C.3   113  LEU113      0.0311
    115  CG        12.5860  -21.4110  -35.0420 C.3   113  LEU113      0.0022
    116  CD1       12.7170  -19.8790  -35.1530 C.3   113  LEU113      0.0001
    117  CD2       12.3650  -22.0340  -36.4020 C.3   113  LEU113      0.0001
    118  N         11.9740  -21.3400  -31.5290 N.am  114  MET114     -0.1963
    119  CA        10.8070  -21.8090  -30.7570 C.3   114  MET114      0.1736
    120  C          9.5590  -21.8770  -31.6330 C.2   114  MET114      0.2617
    121  O          8.8940  -22.9010  -31.6940 O.2   114  MET114     -0.2715
    122  CB        10.5660  -20.9510  -29.5120 C.3   114  MET114      0.0427
    123  CG        11.7540  -20.9700  -28.5310 C.3   114  MET114      0.0599
    124  SD        12.0780  -22.6290  -27.8560 S.3   114  MET114     -0.1393
    125  CE        10.6960  -22.7590  -26.6960 C.3   114  MET114      0.0692
    126  N          9.2430  -20.7910  -32.3220 N.am  115  GLY115     -0.1940
    127  CA         8.1710  -20.8460  -33.3030 C.3   115  GLY115      0.2014
    128  C          6.9540  -19.9900  -32.9960 C.2   115  GLY115      0.2639
    129  O          6.0550  -19.8730  -33.8210 O.2   115  GLY115     -0.2714
    130  N          6.9270  -19.3780  -31.8190 N.am  116  ALA116     -0.1963
    131  CA         5.8050  -18.5210  -31.4390 C.3   116  ALA116      0.1728
    132  C          6.1440  -17.7440  -30.1850 C.2   116  ALA116      0.2616
    133  O          7.1120  -18.0700  -29.4840 O.2   116  ALA116     -0.2715
    134  CB         4.5510  -19.3510  -31.2090 C.3   116  ALA116      0.0334
    135  N          5.3600  -16.7080  -29.9020 N.am  117  ASP117     -0.1971
    136  CA         5.4000  -16.1290  -28.5710 C.3   117  ASP117      0.1709
    137  C          4.0750  -16.4470  -27.8690 C.2   117  ASP117      0.2293
    138  O          3.1080  -16.8800  -28.5100 O.2   117  ASP117     -0.2864
    139  CB         5.7660  -14.6290  -28.5700 C.3   117  ASP117      0.1436
    140  CG         4.6830  -13.7400  -29.1630 C.2   117  ASP117      0.3671
    141  OD1        3.4940  -14.1060  -29.1420 O.co2 117  ASP117     -0.2456
    142  OD2        5.0320  -12.6430  -29.6470 O.co2 117  ASP117     -0.2456
    143  N          0.7240  -15.3570  -29.3700 N.3   120  ASN120     -0.1240
    144  CA         0.2220  -16.1830  -30.4800 C.3   120  ASN120      0.1653
    145  C         -0.4400  -17.4530  -29.9590 C.2   120  ASN120      0.2266
    146  O         -1.4510  -17.8910  -30.4840 O.2   120  ASN120     -0.2867
    147  CB         1.3570  -16.6130  -31.4340 C.3   120  ASN120      0.1155
    148  CG         2.2770  -15.4680  -31.8400 C.2   120  ASN120      0.2627
    149  OD1        3.4960  -15.6640  -32.0090 O.2   120  ASN120     -0.2716
    150  ND2        1.7080  -14.2750  -32.0150 N.am  120  ASN120     -0.0877
    151  N          8.8800  -17.0040  -25.4360 N.3   162  ALA162     -0.1245
    152  CA         8.8870  -17.8250  -26.6440 C.3   162  ALA162      0.1562
    153  C          8.3680  -19.2020  -26.2910 C.2   162  ALA162      0.2260
    154  O          8.7800  -19.7690  -25.2880 O.2   162  ALA162     -0.2867
    155  CB        10.3110  -17.9370  -27.1760 C.3   162  ALA162      0.0290
    156  N         12.6920  -14.3060  -22.9970 N.3   172  LEU172     -0.1231
    157  CA        13.3730  -13.5880  -24.0490 C.3   172  LEU172      0.1693
    158  C         13.4880  -12.1390  -23.5530 C.2   172  LEU172      0.2592
    159  O         12.6780  -11.7030  -22.7230 O.2   172  LEU172     -0.2718
    160  CB        12.4400  -13.6340  -25.2690 C.3   172  LEU172      0.0284
    161  CG        12.7540  -13.2950  -26.7150 C.3   172  LEU172      0.0019
    162  CD1       13.6230  -14.3560  -27.3240 C.3   172  LEU172      0.0001
    163  CD2       11.4340  -13.1990  -27.4680 C.3   172  LEU172      0.0001
    164  N         14.4990  -11.4260  -24.0430 N.am  173  ASP173     -0.1974
    165  CA        14.5520   -9.9550  -24.0250 C.3   173  ASP173      0.1709
    166  C         14.3230   -9.2540  -22.6900 C.2   173  ASP173      0.2293
    167  O         13.2700   -8.6490  -22.4790 O.2   173  ASP173     -0.2864
    168  CB        13.5900   -9.3740  -25.0730 C.3   173  ASP173      0.1436
    169  CG        14.0530   -9.6250  -26.5040 C.2   173  ASP173      0.3671
    170  OD1       15.2760   -9.5580  -26.7640 O.co2 173  ASP173     -0.2456
    171  OD2       13.1900   -9.8940  -27.3680 O.co2 173  ASP173     -0.2456
@<TRIPOS>BOND
     1     1     2    1
     2     2     3    1
     3     2     5    1
     4    27    26    2
     5     6     5    1
     6    26    25    1
     7     3     4    2
     8     3     8   am
     9     5     7    1
    10     8     9    1
    11    10    11    2
    12    10     9    1
    13    24    25    1
    14    25    28    1
    15   117   115    1
    16    28    29    1
    17    28    30    1
    18    38    37    1
    19    38    39    2
    20   116   115    1
    21   115   114    1
    22    36    37    1
    23    33    32    1
    24    33    34    2
    25    32    31    1
    26    32    35    1
    27    37    40    1
    28    92    90    1
    29   114   111    1
    30    91    90    1
    31   129   128    2
    32    81    80    2
    33    90    87    1
    34    78    79    1
    35    19    21   ar
    36    19    17   ar
    37    40    41    1
    38    21    22   ar
    39   127   128    1
    40   127   126    1
    41    12    13    1
    42    41    42    1
    43   128   130   am
    44    80    79    1
    45    80    86   am
    46   111   110    1
    47   111   112    1
    48    87    86    1
    49    87    88    1
    50    14    13    1
    51    14    15    2
    52    79    82    1
    53   110   102   am
    54    96    95    2
    55   126   120   am
    56    13    16    1
    57    16    17    1
    58    17    18   ar
    59    22    23    1
    60    22    20   ar
    61   112   113    2
    62   112   118   am
    63   150   148   am
    64   149   148    2
    65   148   147    1
    66    42    43    1
    67   130   131    1
    68   121   120    2
    69   120   119    1
    70    93    88   am
    71    93    94    1
    72    88    89    2
    73   118   119    1
    74   131   134    1
    75   131   132    1
    76   147   144    1
    77    82    83    1
    78   102   101    1
    79   102   103    2
    80    95    94    1
    81    95   100   am
    82    18    20   ar
    83    83    85    1
    84    83    84    1
    85   101   100    1
    86   101   104    1
    87   119   122    1
    88    43    44    1
    89    94    97    1
    90   146   145    2
    91   144   145    1
    92   144   143    1
    93   132   135   am
    94   132   133    2
    95    99    97    1
    96   107   105   ar
    97   107   109   ar
    98   135   136    1
    99   104   105    1
   100   142   140   ar
   101   122   123    1
   102    97    98    1
   103   105   106   ar
   104   109   108   ar
   105   140   141   ar
   106   140   139    1
   107   136   139    1
   108   136   137    1
   109   123   124    1
   110   138   137    2
   111    77    75    1
   112   106   108   ar
   113   124   125    1
   114    72    71    1
   115    72    73    2
   116   163   161    1
   117    52    51   ar
   118   171   169   ar
   119    71    74    1
   120    71    70    1
   121   162   161    1
   122    74    75    1
   123    53    51   ar
   124    75    76    1
   125   155   152    1
   126    51    50    1
   127   170   169   ar
   128   161   160    1
   129   152   153    1
   130   152   151    1
   131    69    67    1
   132   169   168    1
   133    60    59    1
   134    68    66    1
   135   153   154    2
   136    50    49    1
   137    67    66    1
   138   160   157    1
   139    66    63    1
   140    49    46    1
   141   168   165    1
   142    59    61    1
   143    59    58    1
   144    58    55    1
   145    63    64    1
   146    63    62    1
   147    47    48    2
   148    47    46    1
   149    64    65    2
   150   157   158    1
   151   157   156    1
   152   164   165    1
   153   164   158   am
   154   165   166    1
   155    46    45    1
   156   158   159    2
   157    57    56    2
   158    55    56    1
   159    55    54    1
   160   166   167    2
