@<TRIPOS>MOLECULE
tmp/3zyfD00.pdb
 93 89 0 0 0
SMALL
GASTEIGER

@<TRIPOS>ATOM
      1  N        -38.9910  -20.6600   33.3890 N.3    36  TYR36      -0.1227
      2  CA       -39.8870  -20.8370   34.5170 C.3    36  TYR36       0.1736
      3  C        -39.6480  -22.1960   35.1630 C.2    36  TYR36       0.2596
      4  O        -40.5240  -22.7300   35.8400 O.2    36  TYR36      -0.2718
      5  CB       -41.3370  -20.7410   34.0490 C.3    36  TYR36       0.0548
      6  CG       -41.6670  -21.7120   32.9410 C.ar   36  TYR36      -0.0200
      7  CD1      -41.4480  -21.3770   31.6100 C.ar   36  TYR36      -0.0009
      8  CD2      -42.1830  -22.9710   33.2240 C.ar   36  TYR36      -0.0009
      9  CE1      -41.7430  -22.2620   30.5920 C.ar   36  TYR36       0.0417
     10  CE2      -42.4810  -23.8640   32.2120 C.ar   36  TYR36       0.0417
     11  CZ       -42.2580  -23.5040   30.8990 C.ar   36  TYR36       0.1957
     12  OH       -42.5520  -24.3870   29.8870 O.3    36  TYR36      -0.2866
     13  N        -38.4670  -22.7660   34.9400 N.am   37  GLY37      -0.1943
     14  CA       -38.1420  -24.0560   35.5240 C.3    37  GLY37       0.1998
     15  C        -37.2660  -24.9530   34.6690 C.2    37  GLY37       0.2480
     16  O        -36.1560  -25.3020   35.0740 O.2    37  GLY37      -0.2729
     17  N        -37.7620  -25.3430   33.4820 N.am   38  PRO38      -0.2726
     18  CA       -37.0350  -26.2580   32.5930 C.3    38  PRO38       0.1402
     19  C        -35.6550  -25.7290   32.2060 C.2    38  PRO38       0.2269
     20  O        -35.3770  -24.5430   32.3780 O.2    38  PRO38      -0.2865
     21  CB       -37.9390  -26.3350   31.3590 C.3    38  PRO38       0.0296
     22  CG       -39.3010  -26.0160   31.8740 C.3    38  PRO38       0.0237
     23  CD       -39.0840  -24.9860   32.9400 C.3    38  PRO38       0.0939
     24  N        -46.7230  -24.1030   26.6250 N.3    50  HIS50      -0.1227
     25  CA       -47.0470  -24.4200   28.0100 C.3    50  HIS50       0.1737
     26  C        -48.4570  -23.9620   28.3770 C.2    50  HIS50       0.2438
     27  O        -48.8520  -22.8420   28.0600 O.2    50  HIS50      -0.2733
     28  CB       -46.0190  -23.7690   28.9400 C.3    50  HIS50       0.0758
     29  CG       -45.9780  -24.3620   30.3130 C.ar   50  HIS50       0.0818
     30  ND1      -45.7360  -25.6990   30.5410 N.ar   50  HIS50      -0.2268
     31  CD2      -46.1350  -23.7950   31.5330 C.ar   50  HIS50       0.1154
     32  CE1      -45.7520  -25.9320   31.8410 C.ar   50  HIS50       0.1986
     33  NE2      -45.9910  -24.7930   32.4650 N.ar   50  HIS50      -0.2212
     34  N        -49.2220  -24.8330   29.0480 N.am   51  PRO51      -0.2729
     35  CA       -50.5880  -24.4970   29.4600 C.3    51  PRO51       0.1401
     36  C        -50.6110  -23.5250   30.6360 C.2    51  PRO51       0.2269
     37  O        -49.6480  -23.4550   31.4000 O.2    51  PRO51      -0.2865
     38  CB       -51.1650  -25.8490   29.8860 C.3    51  PRO51       0.0296
     39  CG       -49.9800  -26.6370   30.3210 C.3    51  PRO51       0.0237
     40  CD       -48.8540  -26.2110   29.4170 C.3    51  PRO51       0.0939
     41  N        -51.5310  -22.7680   34.0860 N.3    53  GLN53      -0.1245
     42  CA       -51.8880  -23.4910   35.3000 C.3    53  GLN53       0.1566
     43  C        -52.0760  -22.5510   36.4880 C.2    53  GLN53       0.2260
     44  O        -51.9010  -22.9490   37.6400 O.2    53  GLN53      -0.2867
     45  CB       -50.8300  -24.5520   35.6090 C.3    53  GLN53       0.0367
     46  CG       -50.5940  -25.5180   34.4560 C.3    53  GLN53       0.0905
     47  CD       -49.6180  -26.6240   34.8010 C.2    53  GLN53       0.2608
     48  OE1      -48.5370  -26.3740   35.3360 O.2    53  GLN53      -0.2717
     49  NE2      -49.9980  -27.8600   34.4970 N.am   53  GLN53      -0.0878
     50  N        -51.3810  -18.6860   36.0320 N.3    55  LEU55      -0.1245
     51  CA       -50.4120  -17.6070   35.8710 C.3    55  LEU55       0.1561
     52  C        -50.9510  -16.2880   36.4140 C.2    55  LEU55       0.2260
     53  O        -52.1620  -16.0920   36.4930 O.2    55  LEU55      -0.2867
     54  CB       -50.0450  -17.4510   34.3940 C.3    55  LEU55       0.0270
     55  CG       -49.5020  -18.7090   33.7160 C.3    55  LEU55       0.0019
     56  CD1      -49.5670  -18.5810   32.2000 C.3    55  LEU55       0.0001
     57  CD2      -48.0810  -19.0070   34.1830 C.3    55  LEU55       0.0001
     58  N        -46.8460  -18.4980   29.7740 N.3    62  CYS62      -0.1235
     59  CA       -45.9410  -18.6980   30.8950 C.3    62  CYS62       0.1677
     60  C        -44.5320  -18.3190   30.4580 C.2    62  CYS62       0.2270
     61  O        -44.0710  -18.7400   29.3980 O.2    62  CYS62      -0.2867
     62  CB       -45.9820  -20.1560   31.3580 C.3    62  CYS62       0.0956
     63  SG       -44.9890  -20.5070   32.8290 S.3    62  CYS62      -0.0801
     64  N        -45.5820  -16.2040   35.8100 N.3   100  ASP100     -0.1225
     65  CA       -45.5090  -17.5600   36.3320 C.3   100  ASP100      0.1805
     66  C        -46.6390  -17.7900   37.3260 C.2   100  ASP100      0.2597
     67  O        -47.4010  -16.8730   37.6340 O.2   100  ASP100     -0.2718
     68  CB       -44.1580  -17.7970   37.0080 C.3   100  ASP100      0.1424
     69  CG       -43.7500  -19.2610   37.0080 C.2   100  ASP100      0.3668
     70  OD1      -44.6020  -20.1270   36.7190 O.co2 100  ASP100     -0.2456
     71  OD2      -42.5690  -19.5380   37.2990 O.co2 100  ASP100     -0.2456
     72  N        -46.7460  -19.0200   37.8170 N.am  101  VAL101     -0.1980
     73  CA       -47.7180  -19.3500   38.8520 C.3   101  VAL101      0.1595
     74  C        -47.2230  -18.8980   40.2220 C.2   101  VAL101      0.2287
     75  O        -46.0800  -19.1700   40.5960 O.2   101  VAL101     -0.2864
     76  CB       -48.0120  -20.8620   38.8910 C.3   101  VAL101      0.0276
     77  CG1      -48.6260  -21.2510   40.2210 C.3   101  VAL101      0.0022
     78  CG2      -48.9220  -21.2510   37.7340 C.3   101  VAL101      0.0022
     79  N        -44.2600  -20.2680   42.6770 N.3   104  THR104     -0.1218
     80  CA       -43.4180  -21.1940   41.9280 C.3   104  THR104      0.1862
     81  C        -42.1850  -20.5190   41.3320 C.2   104  THR104      0.2287
     82  O        -41.4160  -21.1490   40.6160 O.2   104  THR104     -0.2866
     83  CB       -44.2040  -21.9190   40.8100 C.3   104  THR104      0.1770
     84  OG1      -44.4690  -21.0150   39.7300 O.3   104  THR104     -0.2211
     85  CG2      -45.5160  -22.4730   41.3490 C.3   104  THR104      0.0375
     86  N        -37.7470  -21.8030   41.2510 N.3   107  ASN107     -0.1240
     87  CA       -36.8400  -22.4980   40.3390 C.3   107  ASN107      0.1653
     88  C        -36.6190  -21.7600   39.0200 C.2   107  ASN107      0.2266
     89  O        -36.1950  -22.3560   38.0300 O.2   107  ASN107     -0.2867
     90  CB       -37.3410  -23.9200   40.0620 C.3   107  ASN107      0.1155
     91  CG       -38.6840  -23.9350   39.3620 C.2   107  ASN107      0.2627
     92  OD1      -39.4250  -22.9580   39.4090 O.2   107  ASN107     -0.2716
     93  ND2      -39.0070  -25.0470   38.7130 N.am  107  ASN107     -0.0877
@<TRIPOS>BOND
     1    24    25    1
     2    25    26    1
     3    25    28    1
     4    27    26    2
     5    26    34   am
     6    28    29    1
     7    34    40    1
     8    34    35    1
     9    61    60    2
    10    40    39    1
    11    35    38    1
    12    35    36    1
    13    58    59    1
    14    38    39    1
    15    12    11    1
    16    29    30   ar
    17    29    31   ar
    18    60    59    1
    19    30    32   ar
    20     9    11   ar
    21     9     7   ar
    22    36    37    2
    23    59    62    1
    24    11    10   ar
    25    62    63    1
    26    21    22    1
    27    21    18    1
    28    31    33   ar
    29     7     6   ar
    30    32    33   ar
    31    22    23    1
    32    56    55    1
    33    19    20    2
    34    19    18    1
    35    10     8   ar
    36    18    17    1
    37    23    17    1
    38     6     8   ar
    39     6     5    1
    40     1     2    1
    41    17    15   am
    42    55    57    1
    43    55    54    1
    44     5     2    1
    45    41    42    1
    46    54    51    1
    47    46    47    1
    48    46    45    1
    49    49    47   am
    50     2     3    1
    51    15    16    2
    52    15    14    1
    53    47    48    2
    54    13     3   am
    55    13    14    1
    56     3     4    2
    57    42    45    1
    58    42    43    1
    59    64    65    1
    60    51    50    1
    61    51    52    1
    62    65    68    1
    63    65    66    1
    64    52    53    2
    65    43    44    2
    66    70    69   ar
    67    69    68    1
    68    69    71   ar
    69    66    67    2
    70    66    72   am
    71    78    76    1
    72    72    73    1
    73    89    88    2
    74    93    91   am
    75    73    76    1
    76    73    74    1
    77    76    77    1
    78    88    87    1
    79    91    92    2
    80    91    90    1
    81    84    83    1
    82    90    87    1
    83    74    75    2
    84    87    86    1
    85    82    81    2
    86    83    85    1
    87    83    80    1
    88    81    80    1
    89    80    79    1
