@<TRIPOS>MOLECULE
tmp/3zyhA00.pdb
 93 89 0 0 0
SMALL
GASTEIGER

@<TRIPOS>ATOM
      1  N          5.3180  -23.1860  -32.4130 N.3    36  TYR36      -0.1227
      2  CA         5.6100  -21.7580  -32.4900 C.3    36  TYR36       0.1736
      3  C          5.1330  -21.1620  -33.8200 C.2    36  TYR36       0.2596
      4  O          5.4360  -20.0150  -34.1280 O.2    36  TYR36      -0.2718
      5  CB         7.1140  -21.5300  -32.3210 C.3    36  TYR36       0.0548
      6  CG         7.9470  -22.3060  -33.3180 C.ar   36  TYR36      -0.0200
      7  CD1        8.3380  -23.6150  -33.0670 C.ar   36  TYR36      -0.0009
      8  CD2        8.3220  -21.7360  -34.5210 C.ar   36  TYR36      -0.0009
      9  CE1        9.0800  -24.3290  -33.9880 C.ar   36  TYR36       0.0417
     10  CE2        9.0560  -22.4420  -35.4520 C.ar   36  TYR36       0.0417
     11  CZ         9.4430  -23.7340  -35.1780 C.ar   36  TYR36       0.1957
     12  OH        10.1850  -24.4270  -36.1050 O.3    36  TYR36      -0.2866
     13  N          4.3890  -21.9280  -34.6130 N.am   37  GLY37      -0.1943
     14  CA         3.8190  -21.3960  -35.8370 C.3    37  GLY37       0.1998
     15  C          3.4560  -22.4620  -36.8390 C.2    37  GLY37       0.2480
     16  O          2.3440  -22.4710  -37.3610 O.2    37  GLY37      -0.2729
     17  N          4.3970  -23.3680  -37.1250 N.am   38  PRO38      -0.2726
     18  CA         4.1710  -24.4110  -38.1320 C.3    38  PRO38       0.1402
     19  C          3.0570  -25.3820  -37.7610 C.2    38  PRO38       0.2269
     20  O          2.6270  -25.4170  -36.6150 O.2    38  PRO38      -0.2865
     21  CB         5.5230  -25.1320  -38.1920 C.3    38  PRO38       0.0296
     22  CG         6.5110  -24.0740  -37.8100 C.3    38  PRO38       0.0237
     23  CD         5.8110  -23.2850  -36.7270 C.3    38  PRO38       0.0939
     24  N         15.4700  -25.3970  -35.6870 N.3    50  HIS50      -0.1227
     25  CA        15.0680  -24.0170  -35.9530 C.3    50  HIS50       0.1737
     26  C         16.0770  -23.0110  -35.3950 C.2    50  HIS50       0.2438
     27  O         16.4680  -23.1030  -34.2410 O.2    50  HIS50      -0.2733
     28  CB        13.6790  -23.7580  -35.3580 C.3    50  HIS50       0.0758
     29  CG        13.0690  -22.4580  -35.7890 C.ar   50  HIS50       0.0818
     30  ND1       12.6890  -22.2110  -37.0860 N.ar   50  HIS50      -0.2268
     31  CD2       12.7700  -21.3390  -35.0840 C.ar   50  HIS50       0.1154
     32  CE1       12.1810  -20.9910  -37.1680 C.ar   50  HIS50       0.1986
     33  NE2       12.2190  -20.4440  -35.9700 N.ar   50  HIS50      -0.2212
     34  N         16.5000  -22.0420  -36.2210 N.am   51  PRO51      -0.2729
     35  CA        17.4520  -21.0280  -35.7480 C.3    51  PRO51       0.1401
     36  C         16.8590  -20.0990  -34.6920 C.2    51  PRO51       0.2269
     37  O         15.6770  -19.7890  -34.7360 O.2    51  PRO51      -0.2865
     38  CB        17.7930  -20.2410  -37.0230 C.3    51  PRO51       0.0296
     39  CG        16.6440  -20.4870  -37.9490 C.3    51  PRO51       0.0237
     40  CD        16.1880  -21.8860  -37.6530 C.3    51  PRO51       0.0939
     41  N         16.0760  -16.7290  -33.4060 N.3    53  GLN53      -0.1245
     42  CA        15.8530  -15.4530  -34.0820 C.3    53  GLN53       0.1566
     43  C         15.4380  -14.3560  -33.0970 C.2    53  GLN53       0.2260
     44  O         14.6910  -13.4420  -33.4450 O.2    53  GLN53      -0.2867
     45  CB        14.7770  -15.6140  -35.1620 C.3    53  GLN53       0.0367
     46  CG        15.1470  -16.6060  -36.2560 C.3    53  GLN53       0.0905
     47  CD        14.0620  -16.7560  -37.3180 C.2    53  GLN53       0.2608
     48  OE1       12.8650  -16.7560  -37.0160 O.2    53  GLN53      -0.2717
     49  NE2       14.4810  -16.8790  -38.5680 N.am   53  GLN53      -0.0878
     50  N         14.9880  -15.4040  -29.3780 N.3    55  LEU55      -0.1245
     51  CA        14.2070  -16.0950  -28.3460 C.3    55  LEU55       0.1561
     52  C         14.3890  -15.4670  -26.9700 C.2    55  LEU55       0.2260
     53  O         15.4400  -14.9050  -26.6730 O.2    55  LEU55      -0.2867
     54  CB        14.6110  -17.5700  -28.2840 C.3    55  LEU55       0.0270
     55  CG        14.3910  -18.3640  -29.5730 C.3    55  LEU55       0.0019
     56  CD1       15.1280  -19.6910  -29.5230 C.3    55  LEU55       0.0001
     57  CD2       12.9010  -18.5590  -29.8380 C.3    55  LEU55       0.0001
     58  N         13.8240  -22.9220  -29.7560 N.3    62  CYS62      -0.1235
     59  CA        12.4980  -22.3910  -30.0120 C.3    62  CYS62       0.1677
     60  C         11.4760  -23.4880  -29.7350 C.2    62  CYS62       0.2270
     61  O         11.6160  -24.6060  -30.2130 O.2    62  CYS62      -0.2867
     62  CB        12.3830  -21.9350  -31.4660 C.3    62  CYS62       0.0956
     63  SG        10.8500  -21.0660  -31.8210 S.3    62  CYS62      -0.0801
     64  N          9.7910  -18.4210  -27.3040 N.3   100  ASP100     -0.1225
     65  CA         9.5780  -17.8910  -28.6510 C.3   100  ASP100      0.1805
     66  C         10.1420  -16.4710  -28.6970 C.2   100  ASP100      0.2597
     67  O         10.6330  -15.9540  -27.6920 O.2   100  ASP100     -0.2718
     68  CB         8.0820  -17.9080  -29.0130 C.3   100  ASP100      0.1424
     69  CG         7.8300  -18.0360  -30.5090 C.2   100  ASP100      0.3668
     70  OD1        8.8000  -17.9680  -31.2950 O.co2 100  ASP100     -0.2456
     71  OD2        6.6520  -18.2000  -30.9080 O.co2 100  ASP100     -0.2456
     72  N         10.0810  -15.8570  -29.8740 N.am  101  VAL101     -0.1980
     73  CA        10.5380  -14.4830  -30.0730 C.3   101  VAL101      0.1595
     74  C          9.4490  -13.5090  -29.6110 C.2   101  VAL101      0.2287
     75  O          8.2880  -13.6760  -29.9530 O.2   101  VAL101     -0.2864
     76  CB        10.8780  -14.2550  -31.5610 C.3   101  VAL101      0.0276
     77  CG1       11.3070  -12.8180  -31.8030 C.3   101  VAL101      0.0022
     78  CG2       11.9660  -15.2190  -32.0050 C.3   101  VAL101      0.0022
     79  N          5.8460  -12.5800  -31.3310 N.3   104  THR104     -0.1218
     80  CA         5.4850  -13.5920  -32.3100 C.3   104  THR104      0.1862
     81  C          4.6980  -14.7520  -31.7040 C.2   104  THR104      0.2287
     82  O          4.6010  -15.7970  -32.3160 O.2   104  THR104     -0.2866
     83  CB         6.7300  -14.1580  -33.0420 C.3   104  THR104      0.1770
     84  OG1        7.4610  -15.0540  -32.1880 O.3   104  THR104     -0.2211
     85  CG2        7.6400  -13.0340  -33.5070 C.3   104  THR104      0.0375
     86  N          0.7200  -16.7230  -33.2930 N.3   107  ASN107     -0.1240
     87  CA         0.4720  -17.8860  -34.1470 C.3   107  ASN107      0.1653
     88  C          0.8750  -19.2150  -33.5020 C.2   107  ASN107      0.2266
     89  O          0.9860  -20.2330  -34.1830 O.2   107  ASN107     -0.2867
     90  CB         1.2090  -17.7270  -35.4750 C.3   107  ASN107      0.1155
     91  CG         2.7040  -17.8150  -35.3150 C.2   107  ASN107      0.2627
     92  OD1        3.2180  -17.7210  -34.2110 O.2   107  ASN107     -0.2716
     93  ND2        3.4140  -17.9780  -36.4140 N.am  107  ASN107     -0.0877
@<TRIPOS>BOND
     1    49    47   am
     2    21    18    1
     3    21    22    1
     4    18    19    1
     5    18    17    1
     6    39    40    1
     7    39    38    1
     8    22    23    1
     9    19    20    2
    10    40    34    1
    11    16    15    2
    12    47    48    2
    13    47    46    1
    14    32    30   ar
    15    32    33   ar
    16    17    15   am
    17    17    23    1
    18    30    29   ar
    19    38    35    1
    20    15    14    1
    21    93    91   am
    22    46    45    1
    23    34    35    1
    24    34    26   am
    25    12    11    1
    26    33    31   ar
    27    25    24    1
    28    25    26    1
    29    25    28    1
    30    14    13    1
    31    29    28    1
    32    29    31   ar
    33    35    36    1
    34    90    91    1
    35    90    87    1
    36    10    11   ar
    37    10     8   ar
    38    26    27    2
    39    91    92    2
    40    11     9   ar
    41    45    42    1
    42    37    36    2
    43    13     3   am
    44     8     6   ar
    45    89    88    2
    46    87    88    1
    47    87    86    1
    48     4     3    2
    49    42    41    1
    50    42    43    1
    51     9     7   ar
    52     3     2    1
    53    85    83    1
    54    44    43    2
    55     6     7   ar
    56     6     5    1
    57    83    80    1
    58    83    84    1
    59     2     1    1
    60     2     5    1
    61    82    81    2
    62    80    81    1
    63    80    79    1
    64    78    76    1
    65    63    62    1
    66    77    76    1
    67    76    73    1
    68    62    59    1
    69    70    69   ar
    70    71    69   ar
    71    69    68    1
    72    61    60    2
    73    73    72    1
    74    73    74    1
    75    59    58    1
    76    59    60    1
    77    75    74    2
    78    72    66   am
    79    57    55    1
    80    55    56    1
    81    55    54    1
    82    50    51    1
    83    68    65    1
    84    66    65    1
    85    66    67    2
    86    65    64    1
    87    51    54    1
    88    51    52    1
    89    52    53    2
