@<TRIPOS>MOLECULE
tmp/3zyjB01.pdb
 94 94 0 0 0
SMALL
GASTEIGER

@<TRIPOS>ATOM
      1  N         34.3000   62.4820    8.5500 N.3     5  LYS5       -0.1245
      2  CA        35.0910   61.7280    7.5850 C.3     5  LYS5        0.1561
      3  C         36.5190   61.5620    8.0930 C.2     5  LYS5        0.2260
      4  O         37.1240   62.5260    8.5710 O.2     5  LYS5       -0.2867
      5  CB        35.0850   62.4370    6.2220 C.3     5  LYS5        0.0271
      6  CG        35.5890   63.8620    6.2390 C.3     5  LYS5        0.0035
      7  CD        35.6080   64.5230    4.8760 C.3     5  LYS5        0.0206
      8  CE        36.4760   65.7550    5.0270 C.3     5  LYS5        0.1093
      9  NZ        36.3010   66.7290    3.9810 N.3     5  LYS5       -0.1314
     10  N         40.2730   55.8270    0.3350 N.3    15  VAL15      -0.1231
     11  CA        39.2080   56.8430    0.3590 C.3    15  VAL15       0.1692
     12  C         38.8800   57.2670    1.8100 C.2    15  VAL15       0.2592
     13  O         39.7540   57.1800    2.6760 O.2    15  VAL15      -0.2718
     14  CB        37.9380   56.4650   -0.4680 C.3    15  VAL15       0.0266
     15  CG1       37.5360   57.6020   -1.4020 C.3    15  VAL15       0.0020
     16  CG2       38.1150   55.1610   -1.2470 C.3    15  VAL15       0.0020
     17  N         37.6420   57.7430    2.0670 N.am   16  TRP16      -0.1976
     18  CA        37.1900   58.1750    3.3900 C.3    16  TRP16       0.1640
     19  C         36.1240   57.2480    3.9660 C.2    16  TRP16       0.2290
     20  O         35.2820   56.7380    3.2240 O.2    16  TRP16      -0.2864
     21  CB        36.6530   59.6160    3.3440 C.3    16  TRP16       0.0576
     22  CG        37.7120   60.6790    3.3660 C.ar   16  TRP16       0.0006
     23  CD1       38.6070   60.9240    4.3650 C.ar   16  TRP16       0.0946
     24  CD2       37.9220   61.6970    2.3800 C.ar   16  TRP16       0.0152
     25  NE1       39.3960   62.0020    4.0410 N.ar   16  TRP16      -0.2442
     26  CE2       38.9940   62.5010    2.8290 C.ar   16  TRP16       0.0810
     27  CE3       37.3210   62.0000    1.1460 C.ar   16  TRP16       0.0012
     28  CZ2       39.4780   63.5860    2.0890 C.ar   16  TRP16       0.0191
     29  CZ3       37.8030   63.0730    0.4120 C.ar   16  TRP16       0.0001
     30  CH2       38.8660   63.8550    0.8850 C.ar   16  TRP16       0.0015
     31  N         32.9140   57.1260    6.2830 N.3    18  TYR18      -0.1241
     32  CA        31.8580   57.9860    6.8170 C.3    18  TYR18       0.1605
     33  C         31.1710   57.3850    8.0390 C.2    18  TYR18       0.2264
     34  O         30.7950   56.2110    8.0240 O.2    18  TYR18      -0.2867
     35  CB        30.8450   58.3600    5.7220 C.3    18  TYR18       0.0534
     36  CG        31.4460   59.1610    4.5850 C.ar   18  TYR18      -0.0201
     37  CD1       31.6640   60.5300    4.7090 C.ar   18  TYR18      -0.0009
     38  CD2       31.7910   58.5510    3.3830 C.ar   18  TYR18      -0.0009
     39  CE1       32.2160   61.2730    3.6660 C.ar   18  TYR18       0.0417
     40  CE2       32.3430   59.2840    2.3320 C.ar   18  TYR18       0.0417
     41  CZ        32.5550   60.6450    2.4790 C.ar   18  TYR18       0.1957
     42  OH        33.0990   61.3750    1.4490 O.3    18  TYR18      -0.2866
     43  N         26.0270   70.9960    6.5010 N.3   284  CYS284     -0.1221
     44  CA        25.7530   69.6850    5.9110 C.3   284  CYS284      0.1808
     45  C         26.9600   68.9230    5.3770 C.2   284  CYS284      0.2601
     46  O         27.7890   69.4810    4.6550 O.2   284  CYS284     -0.2717
     47  CB        24.6450   69.7770    4.8640 C.3   284  CYS284      0.0970
     48  SG        23.2280   70.7970    5.3540 S.3   284  CYS284     -0.0800
     49  N         27.0350   67.6330    5.7390 N.am  285  GLU285     -0.1965
     50  CA        28.0520   66.6700    5.3090 C.3   285  GLU285      0.1733
     51  C         27.3570   65.3650    4.8950 C.2   285  GLU285      0.2616
     52  O         26.1310   65.2950    4.9840 O.2   285  GLU285     -0.2715
     53  CB        29.1220   66.4550    6.3920 C.3   285  GLU285      0.0429
     54  CG        30.1090   67.6080    6.4660 C.3   285  GLU285      0.1163
     55  CD        31.4410   67.3140    7.1260 C.2   285  GLU285      0.3649
     56  OE1       32.1390   66.3770    6.6750 O.co2 285  GLU285     -0.2457
     57  OE2       31.8110   68.0580    8.0620 O.co2 285  GLU285     -0.2457
     58  N         28.1190   64.3530    4.4100 N.am  286  HIS286     -0.1959
     59  CA        27.5990   63.0640    3.9090 C.3   286  HIS286      0.1787
     60  C         26.7350   63.2640    2.6400 C.2   286  HIS286      0.2620
     61  O         25.8160   62.4770    2.3880 O.2   286  HIS286     -0.2715
     62  CB        26.8140   62.2780    4.9930 C.3   286  HIS286      0.0785
     63  CG        27.5900   61.9390    6.2260 C.ar  286  HIS286      0.0821
     64  ND1       28.7570   61.2030    6.1650 N.ar  286  HIS286     -0.2267
     65  CD2       27.2950   62.1820    7.5240 C.ar  286  HIS286      0.1154
     66  CE1       29.1590   61.0640    7.4170 C.ar  286  HIS286      0.1986
     67  NE2       28.3070   61.6290    8.2700 N.ar  286  HIS286     -0.2212
     68  N         27.0460   64.3210    1.8490 N.am  287  ASN287     -0.1972
     69  CA        26.3550   64.7250    0.6160 C.3   287  ASN287      0.1688
     70  C         24.8710   65.0730    0.8320 C.2   287  ASN287      0.2292
     71  O         24.0180   64.7410    0.0030 O.2   287  ASN287     -0.2864
     72  CB        26.5730   63.7150   -0.5250 C.3   287  ASN287      0.1181
     73  CG        28.0140   63.5760   -0.9400 C.2   287  ASN287      0.2629
     74  OD1       28.6750   62.5750   -0.6470 O.2   287  ASN287     -0.2716
     75  ND2       28.5380   64.5800   -1.6270 N.am  287  ASN287     -0.0877
     76  N         23.5790   63.1190   -6.1560 N.3   300  TYR300     -0.1241
     77  CA        23.8250   62.1040   -5.1290 C.3   300  TYR300      0.1605
     78  C         22.4760   61.4890   -4.7210 C.2   300  TYR300      0.2264
     79  O         22.0950   61.5140   -3.5470 O.2   300  TYR300     -0.2867
     80  CB        24.5780   62.7040   -3.9240 C.3   300  TYR300      0.0534
     81  CG        26.0330   62.9980   -4.2090 C.ar  300  TYR300     -0.0201
     82  CD1       27.0160   62.0390   -3.9830 C.ar  300  TYR300     -0.0009
     83  CD2       26.4300   64.2350   -4.7090 C.ar  300  TYR300     -0.0009
     84  CE1       28.3580   62.3000   -4.2540 C.ar  300  TYR300      0.0417
     85  CE2       27.7690   64.5080   -4.9840 C.ar  300  TYR300      0.0417
     86  CZ        28.7300   63.5360   -4.7580 C.ar  300  TYR300      0.1957
     87  OH        30.0520   63.8000   -5.0230 O.3   300  TYR300     -0.2866
     88  N         26.2420   58.5510   -5.1900 N.3   323  PRO323     -0.2116
     89  CA        25.9390   59.1700   -6.4980 C.3   323  PRO323      0.1372
     90  C         24.8570   58.4850   -7.3320 C.2   323  PRO323      0.2244
     91  O         24.6620   57.2720   -7.2270 O.2   323  PRO323     -0.2868
     92  CB        27.2920   59.1690   -7.2160 C.3   323  PRO323      0.0268
     93  CG        28.3030   59.0890   -6.1290 C.3   323  PRO323      0.0207
     94  CD        27.6790   58.2200   -5.0870 C.3   323  PRO323      0.0892
@<TRIPOS>BOND
     1    90    91    2
     2    90    89    1
     3    92    89    1
     4    92    93    1
     5    89    88    1
     6    76    77    1
     7    93    94    1
     8    88    94    1
     9    77    78    1
    10    77    80    1
    11    87    86    1
    12    85    86   ar
    13    85    83   ar
    14    86    84   ar
    15    78    79    2
    16    83    81   ar
    17    84    82   ar
    18    81    82   ar
    19    81    80    1
    20    75    73   am
    21    15    14    1
    22    16    14    1
    23    73    74    2
    24    73    72    1
    25    72    69    1
    26    14    11    1
    27    71    70    2
    28    10    11    1
    29    11    12    1
    30    29    30   ar
    31    29    27   ar
    32    69    70    1
    33    69    68    1
    34    30    28   ar
    35    27    24   ar
    36    42    41    1
    37    12    17   am
    38    12    13    2
    39    68    60   am
    40    17    18    1
    41    28    26   ar
    42    40    41   ar
    43    40    38   ar
    44    24    26   ar
    45    24    22   ar
    46    61    60    2
    47    41    39   ar
    48    60    59    1
    49    26    25   ar
    50    20    19    2
    51    21    22    1
    52    21    18    1
    53    22    23   ar
    54    38    36   ar
    55    18    19    1
    56    39    37   ar
    57    59    58    1
    58    59    62    1
    59     9     8    1
    60    25    23   ar
    61    58    51   am
    62    36    37   ar
    63    36    35    1
    64    46    45    2
    65    47    48    1
    66    47    44    1
    67     7     8    1
    68     7     6    1
    69    51    52    2
    70    51    50    1
    71    62    63    1
    72    50    49    1
    73    50    53    1
    74    45    49   am
    75    45    44    1
    76    35    32    1
    77    44    43    1
    78    64    63   ar
    79    64    66   ar
    80     5     6    1
    81     5     2    1
    82    63    65   ar
    83    31    32    1
    84    53    54    1
    85    54    55    1
    86    56    55   ar
    87    32    33    1
    88    55    57   ar
    89    66    67   ar
    90    65    67   ar
    91     2     3    1
    92     2     1    1
    93    34    33    2
    94     3     4    2
