@<TRIPOS>MOLECULE
tmp/3zynB00.pdb
 99 97 0 0 0
SMALL
GASTEIGER

@<TRIPOS>ATOM
      1  N         42.5590   48.8690   78.9930 N.3   254  VAL254     -0.1231
      2  CA        42.3440   48.3090   77.6660 C.3   254  VAL254      0.1692
      3  C         42.4560   46.7910   77.6960 C.2   254  VAL254      0.2592
      4  O         43.4490   46.2460   78.1790 O.2   254  VAL254     -0.2718
      5  CB        43.3640   48.8690   76.6520 C.3   254  VAL254      0.0266
      6  CG1       43.2470   48.1520   75.3140 C.3   254  VAL254      0.0020
      7  CG2       43.1580   50.3650   76.4650 C.3   254  VAL254      0.0020
      8  N         41.4360   46.1190   77.1720 N.am  255  HIS255     -0.1962
      9  CA        41.4360   44.6620   77.0710 C.3   255  HIS255      0.1787
     10  C         41.7570   44.2640   75.6650 C.2   255  HIS255      0.2620
     11  O         41.0510   44.6510   74.7330 O.2   255  HIS255     -0.2715
     12  CB        40.0820   44.0950   77.4510 C.3   255  HIS255      0.0785
     13  CG        39.5580   44.5910   78.7740 C.ar  255  HIS255      0.0821
     14  ND1       38.4750   45.3900   78.8720 N.ar  255  HIS255     -0.2267
     15  CD2       40.0050   44.3710   80.0730 C.ar  255  HIS255      0.1154
     16  CE1       38.2450   45.6700   80.1670 C.ar  255  HIS255      0.1986
     17  NE2       39.1820   45.0460   80.9010 N.ar  255  HIS255     -0.2212
     18  N         42.8250   43.4870   75.5000 N.am  256  LEU256     -0.1963
     19  CA        43.3020   43.0680   74.1800 C.3   256  LEU256      0.1728
     20  C         43.3510   41.5510   73.9960 C.2   256  LEU256      0.2616
     21  O         43.6940   41.0660   72.9130 O.2   256  LEU256     -0.2715
     22  CB        44.6970   43.6400   73.9470 C.3   256  LEU256      0.0311
     23  CG        44.7790   45.1630   73.9700 C.3   256  LEU256      0.0022
     24  CD1       46.2250   45.6130   73.8580 C.3   256  LEU256      0.0001
     25  CD2       43.9380   45.7650   72.8560 C.3   256  LEU256      0.0001
     26  N         42.9990   40.8120   75.0460 N.am  257  ASN257     -0.1972
     27  CA        43.1540   39.3560   75.0640 C.3   257  ASN257      0.1688
     28  C         42.2280   38.6230   74.0930 C.2   257  ASN257      0.2292
     29  O         41.1860   39.1450   73.6960 O.2   257  ASN257     -0.2864
     30  CB        42.9880   38.8030   76.4910 C.3   257  ASN257      0.1181
     31  CG        41.8870   39.4950   77.2770 C.2   257  ASN257      0.2629
     32  OD1       40.9930   40.1170   76.7100 O.2   257  ASN257     -0.2716
     33  ND2       41.9630   39.3990   78.5990 N.am  257  ASN257     -0.0877
     34  N         53.4100   51.1710   74.5220 N.3   273  TRP273     -0.1227
     35  CA        52.2050   51.7150   75.1410 C.3   273  TRP273      0.1737
     36  C         51.7980   50.8820   76.3260 C.2   273  TRP273      0.2595
     37  O         51.4110   51.4190   77.3640 O.2   273  TRP273     -0.2718
     38  CB        51.0650   51.7910   74.1300 C.3   273  TRP273      0.0564
     39  CG        49.8700   52.5420   74.6490 C.ar  273  TRP273      0.0003
     40  CD1       49.6270   53.9060   74.5700 C.ar  273  TRP273      0.0946
     41  CD2       48.7190   51.9930   75.3620 C.ar  273  TRP273      0.0152
     42  NE1       48.4360   54.2280   75.1630 N.ar  273  TRP273     -0.2442
     43  CE2       47.8410   53.1280   75.6580 C.ar  273  TRP273      0.0810
     44  CE3       48.3390   50.7240   75.7680 C.ar  273  TRP273      0.0012
     45  CZ2       46.6440   52.9740   76.3340 C.ar  273  TRP273      0.0191
     46  CZ3       47.1240   50.5790   76.4500 C.ar  273  TRP273      0.0001
     47  CH2       46.2990   51.6810   76.7240 C.ar  273  TRP273      0.0015
     48  N         51.8890   49.5620   76.1810 N.am  274  LEU274     -0.1980
     49  CA        51.5740   48.6460   77.2720 C.3   274  LEU274      0.1596
     50  C         52.5200   48.8300   78.4640 C.2   274  LEU274      0.2287
     51  O         52.0880   48.7730   79.6160 O.2   274  LEU274     -0.2864
     52  CB        51.6240   47.1880   76.7930 C.3   274  LEU274      0.0297
     53  CG        50.5240   46.6560   75.8710 C.3   274  LEU274      0.0022
     54  CD1       50.5660   45.1380   75.8590 C.3   274  LEU274      0.0001
     55  CD2       49.1470   47.1380   76.2880 C.3   274  LEU274      0.0001
     56  N         50.3510   50.2480   81.4570 N.3   278  VAL278     -0.1245
     57  CA        50.1610   49.1810   82.4460 C.3   278  VAL278      0.1561
     58  C         51.4880   48.4620   82.7160 C.2   278  VAL278      0.2260
     59  O         51.7100   47.3500   82.2350 O.2   278  VAL278     -0.2867
     60  CB        49.0690   48.1810   82.0060 C.3   278  VAL278      0.0252
     61  CG1       47.6970   48.8280   82.1130 C.3   278  VAL278      0.0019
     62  CG2       49.3160   47.6890   80.5890 C.3   278  VAL278      0.0019
     63  N         51.7710   44.8130   84.4370 N.3   281  ASN281     -0.1240
     64  CA        51.5550   43.6620   83.5530 C.3   281  ASN281      0.1653
     65  C         52.8700   43.1880   82.9500 C.2   281  ASN281      0.2266
     66  O         53.3680   43.7760   82.0030 O.2   281  ASN281     -0.2867
     67  CB        50.5470   43.9950   82.4470 C.3   281  ASN281      0.1155
     68  CG        49.1200   43.7940   82.8990 C.2   281  ASN281      0.2627
     69  OD1       48.7740   44.1420   84.0250 O.2   281  ASN281     -0.2716
     70  ND2       48.2840   43.2250   82.0290 N.am  281  ASN281     -0.0877
     71  N         51.3340   39.1820   80.7210 N.3   284  CYS284     -0.1221
     72  CA        49.8870   38.9620   80.6740 C.3   284  CYS284      0.1808
     73  C         49.1360   40.2380   80.2560 C.2   284  CYS284      0.2601
     74  O         49.5540   41.3280   80.6360 O.2   284  CYS284     -0.2717
     75  CB        49.3960   38.5090   82.0490 C.3   284  CYS284      0.0970
     76  SG        48.7470   36.8250   82.0890 S.3   284  CYS284     -0.0800
     77  N         48.0290   40.1380   79.5070 N.am  285  CYS285     -0.1956
     78  CA        47.4180   38.8800   79.0560 C.3   285  CYS285      0.1843
     79  C         47.0740   38.8860   77.5600 C.2   285  CYS285      0.2625
     80  O         46.2290   38.1070   77.1250 O.2   285  CYS285     -0.2714
     81  CB        46.1440   38.6080   79.8600 C.3   285  CYS285      0.0997
     82  SG        46.2860   39.0270   81.6090 S.3   285  CYS285     -0.0797
     83  N         47.7290   39.7480   76.7830 N.am  286  ALA286     -0.1977
     84  CA        47.5370   39.7950   75.3390 C.3   286  ALA286      0.1597
     85  C         48.7130   39.1140   74.6500 C.2   286  ALA286      0.2287
     86  O         49.8230   39.6550   74.6060 O.2   286  ALA286     -0.2864
     87  CB        47.4160   41.2300   74.8770 C.3   286  ALA286      0.0319
     88  N         53.8180   37.7960   75.7840 N.3   298  TYR298     -0.1241
     89  CA        53.0320   38.9900   76.0530 C.3   298  TYR298      0.1605
     90  C         53.5360   40.1340   75.1720 C.2   298  TYR298      0.2264
     91  O         54.7340   40.4250   75.1480 O.2   298  TYR298     -0.2867
     92  CB        53.1240   39.3330   77.5410 C.3   298  TYR298      0.0534
     93  CG        52.6390   40.7090   77.9170 C.ar  298  TYR298     -0.0201
     94  CD1       51.3310   41.0950   77.6830 C.ar  298  TYR298     -0.0009
     95  CD2       53.4910   41.6140   78.5370 C.ar  298  TYR298     -0.0009
     96  CE1       50.8890   42.3530   78.0410 C.ar  298  TYR298      0.0417
     97  CE2       53.0600   42.8700   78.9020 C.ar  298  TYR298      0.0417
     98  CZ        51.7610   43.2360   78.6530 C.ar  298  TYR298      0.1957
     99  OH        51.3410   44.4920   79.0140 O.3   298  TYR298     -0.2866
@<TRIPOS>BOND
     1    25    23    1
     2    21    20    2
     3    29    28    2
     4    24    23    1
     5    22    23    1
     6    22    19    1
     7    20    19    1
     8    20    26   am
     9    28    27    1
    10    38    39    1
    11    38    35    1
    12    19    18    1
    13    34    35    1
    14    40    39   ar
    15    40    42   ar
    16    86    85    2
    17    39    41   ar
    18    85    84    1
    19    11    10    2
    20    87    84    1
    21    26    27    1
    22    27    30    1
    23    35    36    1
    24    91    90    2
    25    42    43   ar
    26    90    89    1
    27     6     5    1
    28    84    83    1
    29    41    43   ar
    30    41    44   ar
    31    18    10   am
    32    43    45   ar
    33    10     9    1
    34    44    46   ar
    35    88    89    1
    36    54    53    1
    37    53    55    1
    38    53    52    1
    39    89    92    1
    40    48    36   am
    41    48    49    1
    42    36    37    2
    43    45    47   ar
    44    46    47   ar
    45     7     5    1
    46    30    31    1
    47     5     2    1
    48    32    31    2
    49    83    79   am
    50    52    49    1
    51     9     8    1
    52     9    12    1
    53    80    79    2
    54     8     3   am
    55    49    50    1
    56    31    33   am
    57    12    13    1
    58    92    93    1
    59    79    78    1
    60     2     3    1
    61     2     1    1
    62    94    93   ar
    63    94    96   ar
    64     3     4    2
    65    93    95   ar
    66    96    98   ar
    67    50    51    2
    68    95    97   ar
    69    98    97   ar
    70    98    99    1
    71    13    14   ar
    72    13    15   ar
    73    14    16   ar
    74    78    77    1
    75    78    81    1
    76    77    73   am
    77    81    82    1
    78    15    17   ar
    79    16    17   ar
    80    73    74    2
    81    73    72    1
    82    62    60    1
    83    72    71    1
    84    72    75    1
    85    56    57    1
    86    66    65    2
    87    60    61    1
    88    60    57    1
    89    70    68   am
    90    75    76    1
    91    59    58    2
    92    57    58    1
    93    67    68    1
    94    67    64    1
    95    68    69    2
    96    65    64    1
    97    64    63    1
