@<TRIPOS>MOLECULE
tmp/3zypA00.pdb
 93 92 0 0 0
SMALL
GASTEIGER

@<TRIPOS>ATOM
      1  N         -2.3880   49.3410   22.9720 N.3    35  HIS35      -0.1241
      2  CA        -2.8430   50.5800   22.3920 C.3    35  HIS35       0.1621
      3  C         -4.2550   50.3250   21.8570 C.2    35  HIS35       0.2264
      4  O         -5.2360   50.7150   22.4910 O.2    35  HIS35      -0.2867
      5  CB        -1.8890   51.0620   21.3060 C.3    35  HIS35       0.0745
      6  CG        -2.3530   52.3160   20.6410 C.ar   35  HIS35       0.0817
      7  ND1       -2.7780   52.3450   19.3320 N.ar   35  HIS35      -0.2268
      8  CD2       -2.5420   53.5660   21.1310 C.ar   35  HIS35       0.1154
      9  CE1       -3.1680   53.5740   19.0290 C.ar   35  HIS35       0.1986
     10  NE2       -3.0420   54.3270   20.1060 N.ar   35  HIS35      -0.2212
     11  N          3.0140   51.3660   17.2290 N.3    71  TRP71      -0.1241
     12  CA         2.8000   51.9720   18.5350 C.3    71  TRP71       0.1605
     13  C          3.6360   51.2110   19.5440 C.2    71  TRP71       0.2264
     14  O          3.5180   49.9910   19.6600 O.2    71  TRP71      -0.2867
     15  CB         1.3180   51.9760   18.8690 C.3    71  TRP71       0.0550
     16  CG         0.5250   53.0380   18.1110 C.ar   71  TRP71       0.0003
     17  CD1       -0.0150   52.9410   16.8410 C.ar   71  TRP71       0.0946
     18  CD2        0.1740   54.3390   18.5910 C.ar   71  TRP71       0.0152
     19  NE1       -0.6960   54.0990   16.5190 N.ar   71  TRP71      -0.2442
     20  CE2       -0.5910   54.9740   17.5750 C.ar   71  TRP71       0.0810
     21  CE3        0.4180   55.0260   19.7890 C.ar   71  TRP71       0.0012
     22  CZ2       -1.1120   56.2680   17.7310 C.ar   71  TRP71       0.0191
     23  CZ3       -0.0930   56.3030   19.9370 C.ar   71  TRP71       0.0001
     24  CH2       -0.8420   56.9120   18.9100 C.ar   71  TRP71       0.0015
     25  N         15.4680   62.7680   19.6970 N.3   130  VAL130     -0.1231
     26  CA        14.6090   62.8110   20.8790 C.3   130  VAL130      0.1692
     27  C         14.7300   61.5200   21.6720 C.2   130  VAL130      0.2592
     28  O         15.2050   60.4980   21.1650 O.2   130  VAL130     -0.2718
     29  CB        13.1010   63.0470   20.5150 C.3   130  VAL130      0.0266
     30  CG1       12.8970   64.4090   19.8540 C.3   130  VAL130      0.0020
     31  CG2       12.5730   61.9390   19.6250 C.3   130  VAL130      0.0020
     32  N         14.2770   61.5980   22.9190 N.am  131  THR131     -0.1953
     33  CA        14.0940   60.4460   23.7820 C.3   131  THR131      0.1897
     34  C         12.8190   59.6990   23.3890 C.2   131  THR131      0.2313
     35  O         11.9450   60.2440   22.7130 O.2   131  THR131     -0.2863
     36  CB        13.9930   60.8870   25.2580 C.3   131  THR131      0.1794
     37  OG1       13.2670   59.9120   26.0160 O.3   131  THR131     -0.2208
     38  CG2       13.2670   62.2100   25.3680 C.3   131  THR131      0.0378
     39  N          9.6590   58.5150   25.1440 N.3   133  PRO133     -0.2102
     40  CA         8.9570   58.5470   26.4370 C.3   133  PRO133      0.1504
     41  C          8.5370   57.1450   26.8680 C.2   133  PRO133      0.2576
     42  O          8.2970   56.2830   26.0160 O.2   133  PRO133     -0.2718
     43  CB         7.7120   59.3920   26.1410 C.3   133  PRO133      0.0282
     44  CG         8.1290   60.2680   25.0200 C.3   133  PRO133      0.0208
     45  CD         8.9950   59.3800   24.1520 C.3   133  PRO133      0.0893
     46  N          8.4620   56.9440   28.1830 N.am  134  THR134     -0.1953
     47  CA         8.1350   55.6510   28.7790 C.3   134  THR134      0.1897
     48  C          6.7110   55.6080   29.3090 C.2   134  THR134      0.2313
     49  O          6.0550   56.6350   29.4720 O.2   134  THR134     -0.2863
     50  CB         9.0640   55.3370   29.9520 C.3   134  THR134      0.1794
     51  OG1        8.8940   56.3560   30.9540 O.3   134  THR134     -0.2208
     52  CG2       10.5040   55.2920   29.4750 C.3   134  THR134      0.0378
     53  N          3.7500   54.5970   28.2310 N.3   136  ALA136     -0.1231
     54  CA         2.5840   54.8540   27.3970 C.3   136  ALA136      0.1694
     55  C          2.9450   54.5700   25.9520 C.2   136  ALA136      0.2592
     56  O          4.0930   54.7550   25.5440 O.2   136  ALA136     -0.2718
     57  CB         2.1080   56.3000   27.5490 C.3   136  ALA136      0.0304
     58  N          1.9680   54.1240   25.1760 N.am  137  PHE137     -0.1962
     59  CA         2.2460   53.8500   23.7660 C.3   137  PHE137      0.1771
     60  C          2.4650   55.1380   22.9850 C.2   137  PHE137      0.2619
     61  O          1.6860   56.0990   23.0800 O.2   137  PHE137     -0.2715
     62  CB         1.1250   53.0340   23.1240 C.3   137  PHE137      0.0574
     63  CG         1.1660   51.5710   23.4800 C.ar  137  PHE137     -0.0200
     64  CD1        0.5100   51.0990   24.6180 C.ar  137  PHE137     -0.0042
     65  CD2        1.8690   50.6630   22.6780 C.ar  137  PHE137     -0.0042
     66  CE1        0.5510   49.7380   24.9530 C.ar  137  PHE137     -0.0003
     67  CE2        1.9270   49.3140   22.9960 C.ar  137  PHE137     -0.0003
     68  CZ         1.2470   48.8360   24.1480 C.ar  137  PHE137     -0.0000
     69  N          3.5480   55.1250   22.2200 N.am  138  GLN138     -0.1977
     70  CA         3.9880   56.2520   21.3810 C.3   138  GLN138      0.1601
     71  C          3.8570   55.8290   19.9280 C.2   138  GLN138      0.2287
     72  O          4.1770   54.7000   19.5900 O.2   138  GLN138     -0.2864
     73  CB         5.4740   56.5500   21.6150 C.3   138  GLN138      0.0394
     74  CG         5.9130   56.6270   23.0710 C.3   138  GLN138      0.0908
     75  CD         5.3190   57.8050   23.7720 C.2   138  GLN138      0.2608
     76  OE1        5.3980   58.9250   23.2800 O.2   138  GLN138     -0.2717
     77  NE2        4.7040   57.5680   24.9320 N.am  138  GLN138     -0.0878
     78  N          7.8030   60.8420   15.4340 N.3   154  LEU154     -0.1231
     79  CA         7.2910   60.3750   16.7160 C.3   154  LEU154      0.1693
     80  C          6.0530   61.2070   17.0380 C.2   154  LEU154      0.2592
     81  O          6.1230   62.4420   17.0730 O.2   154  LEU154     -0.2718
     82  CB         8.3550   60.4800   17.8100 C.3   154  LEU154      0.0284
     83  CG         7.9790   59.9760   19.2040 C.3   154  LEU154      0.0019
     84  CD1        7.6490   58.4830   19.2320 C.3   154  LEU154      0.0001
     85  CD2        9.1590   60.2600   20.1080 C.3   154  LEU154      0.0001
     86  N          4.9210   60.5390   17.2590 N.am  155  ASN155     -0.1974
     87  CA         3.6180   61.1900   17.4700 C.3   155  ASN155      0.1688
     88  C          3.2520   62.1730   16.3390 C.2   155  ASN155      0.2292
     89  O          2.5550   63.1680   16.5620 O.2   155  ASN155     -0.2864
     90  CB         3.5210   61.8700   18.8560 C.3   155  ASN155      0.1181
     91  CG         3.4980   60.8730   20.0310 C.2   155  ASN155      0.2629
     92  OD1        3.5210   59.6510   19.8520 O.2   155  ASN155     -0.2716
     93  ND2        3.4450   61.4140   21.2380 N.am  155  ASN155     -0.0877
@<TRIPOS>BOND
     1    78    79    1
     2    88    89    2
     3    88    87    1
     4    19    17   ar
     5    19    20   ar
     6    79    80    1
     7    79    82    1
     8    17    16   ar
     9    80    81    2
    10    80    86   am
    11    11    12    1
    12    86    87    1
    13    87    90    1
    14    20    22   ar
    15    20    18   ar
    16    22    24   ar
    17    82    83    1
    18    16    18   ar
    19    16    15    1
    20    12    15    1
    21    12    13    1
    22    18    21   ar
    23    90    91    1
    24    24    23   ar
    25     9     7   ar
    26     9    10   ar
    27    83    84    1
    28    83    85    1
    29     7     6   ar
    30    13    14    2
    31    72    71    2
    32    31    29    1
    33    25    26    1
    34    21    23   ar
    35    92    91    2
    36    30    29    1
    37    71    70    1
    38    91    93   am
    39    10     8   ar
    40    29    26    1
    41     6     8   ar
    42     6     5    1
    43    26    27    1
    44    28    27    2
    45     5     2    1
    46    70    73    1
    47    70    69    1
    48    73    74    1
    49    27    32   am
    50     3     2    1
    51     3     4    2
    52    69    60   am
    53     2     1    1
    54    65    67   ar
    55    65    63   ar
    56    35    34    2
    57    32    33    1
    58    60    61    2
    59    60    59    1
    60    67    68   ar
    61    74    75    1
    62    62    63    1
    63    62    59    1
    64    76    75    2
    65    34    33    1
    66    63    64   ar
    67    59    58    1
    68    75    77   am
    69    33    36    1
    70    68    66   ar
    71    45    44    1
    72    45    39    1
    73    64    66   ar
    74    44    43    1
    75    39    40    1
    76    58    55   am
    77    36    38    1
    78    36    37    1
    79    56    55    2
    80    55    54    1
    81    42    41    2
    82    43    40    1
    83    40    41    1
    84    41    46   am
    85    54    57    1
    86    54    53    1
    87    46    47    1
    88    47    48    1
    89    47    50    1
    90    48    49    2
    91    52    50    1
    92    50    51    1
