@<TRIPOS>MOLECULE
tmp/3zyrA00.pdb
 158 151 0 0 0
SMALL
GASTEIGER

@<TRIPOS>ATOM
      1  N         24.5700   14.4400   52.0570 N.3    46  ARG46      -0.1231
      2  CA        25.9860   14.7390   52.1060 C.3    46  ARG46       0.1694
      3  C         26.4200   15.5670   53.3430 C.2    46  ARG46       0.2592
      4  O         25.5930   16.2730   53.9480 O.2    46  ARG46      -0.2718
      5  CB        26.3990   15.4790   50.8260 C.3    46  ARG46       0.0321
      6  CG        25.8780   16.9040   50.7730 C.3    46  ARG46       0.0489
      7  CD        26.1550   17.5670   49.4370 C.3    46  ARG46       0.2205
      8  NE        27.5450   18.0170   49.2780 N.pl3  46  ARG46      -0.0865
      9  CZ        28.1140   19.0310   49.9280 C.cat  46  ARG46       0.5346
     10  NH1       27.4450   19.7560   50.8090 N.pl3  46  ARG46       0.1354
     11  NH2       29.3780   19.3460   49.6700 N.pl3  46  ARG46       0.1354
     12  N         27.7190   15.4790   53.6740 N.am   47  SER47      -0.1952
     13  CA        28.4200   16.4100   54.5550 C.3    47  SER47       0.1924
     14  C         27.7670   16.5730   55.9360 C.2    47  SER47       0.2314
     15  O         27.1690   17.6050   56.2870 O.2    47  SER47      -0.2863
     16  CB        28.5950   17.7920   53.8640 C.3    47  SER47       0.2116
     17  OG        29.7280   18.4340   54.4390 O.3    47  SER47      -0.2180
     18  N         23.3900    4.7130   47.1860 N.3    83  LEU83      -0.1231
     19  CA        24.6150    4.8580   46.3890 C.3    83  LEU83       0.1693
     20  C         25.3480    3.5340   46.1590 C.2    83  LEU83       0.2593
     21  O         25.3160    2.6240   47.0190 O.2    83  LEU83      -0.2718
     22  CB        25.5420    5.8420   47.0620 C.3    83  LEU83       0.0284
     23  CG        25.0530    7.2470   47.3030 C.3    83  LEU83       0.0019
     24  CD1       26.2160    8.0690   47.8330 C.3    83  LEU83       0.0001
     25  CD2       24.4340    7.9540   46.0550 C.3    83  LEU83       0.0001
     26  N         25.9910    3.4130   44.9880 N.am   84  SER84      -0.1938
     27  CA        26.9390    2.3280   44.7560 C.3    84  SER84       0.2055
     28  C         28.1700    2.3560   45.6770 C.2    84  SER84       0.2643
     29  O         28.7260    1.3020   46.0190 O.2    84  SER84      -0.2714
     30  CB        27.3690    2.3210   43.2900 C.3    84  SER84       0.2130
     31  OG        26.2280    2.0890   42.4530 O.3    84  SER84      -0.2179
     32  N         28.6040    3.5630   46.0580 N.am   85  ASN85      -0.1971
     33  CA        29.7640    3.7550   46.9090 C.3    85  ASN85       0.1688
     34  C         29.3800    4.5550   48.1550 C.2    85  ASN85       0.2292
     35  O         29.7190    5.7260   48.2980 O.2    85  ASN85      -0.2864
     36  CB        30.8400    4.4880   46.1120 C.3    85  ASN85       0.1181
     37  CG        31.1800    3.7780   44.7980 C.2    85  ASN85       0.2629
     38  OD1       30.8880    4.2790   43.6770 O.2    85  ASN85      -0.2716
     39  ND2       31.8130    2.6440   44.9130 N.am   85  ASN85      -0.0877
     40  N         29.1320    6.0700   52.0150 N.3    87  ALA87      -0.1231
     41  CA        30.2120    6.5880   52.8620 C.3    87  ALA87       0.1694
     42  C         29.6520    7.3340   54.0710 C.2    87  ALA87       0.2592
     43  O         28.5140    7.7440   54.0020 O.2    87  ALA87      -0.2718
     44  CB        31.1330    7.5270   52.0160 C.3    87  ALA87       0.0304
     45  N         30.4210    7.4960   55.1540 N.am   88  ASP88      -0.1974
     46  CA        31.8340    7.1330   55.2610 C.3    88  ASP88       0.1709
     47  C         32.1300    6.0500   56.2800 C.2    88  ASP88       0.2293
     48  O         33.1130    5.3360   56.1250 O.2    88  ASP88      -0.2864
     49  CB        32.7020    8.3490   55.6050 C.3    88  ASP88       0.1436
     50  CG        33.1160    9.0890   54.3550 C.2    88  ASP88       0.3671
     51  OD1       34.1360    8.6650   53.7760 O.co2  88  ASP88      -0.2456
     52  OD2       32.3410   10.0200   53.9160 O.co2  88  ASP88      -0.2456
     53  N         35.7830   20.4860   60.3010 N.3   104  GLY104     -0.1225
     54  CA        36.3030   19.7760   59.1520 C.3   104  GLY104      0.1811
     55  C         36.3110   18.2600   59.2460 C.2   104  GLY104      0.2280
     56  O         36.9690   17.5970   58.4560 O.2   104  GLY104     -0.2866
     57  N         33.9430   15.9640   58.7650 N.3   106  ALA106     -0.1231
     58  CA        33.0070   15.1730   57.9320 C.3   106  ALA106      0.1694
     59  C         33.7890   14.2690   56.9850 C.2   106  ALA106      0.2593
     60  O         35.0070   14.1880   57.0380 O.2   106  ALA106     -0.2718
     61  CB        32.0280   16.0850   57.1890 C.3   106  ALA106      0.0304
     62  N         33.0760   13.5390   56.1630 N.am  107  GLY107     -0.1942
     63  CA        33.7190   12.6200   55.2390 C.3   107  GLY107      0.2014
     64  C         34.5700   11.5700   55.9160 C.2   107  GLY107      0.2639
     65  O         34.1910   11.0020   56.9640 O.2   107  GLY107     -0.2714
     66  N         35.7260   11.2900   55.3250 N.am  108  GLY108     -0.1939
     67  CA        36.5810   10.2080   55.7970 C.3   108  GLY108      0.2014
     68  C         37.2400   10.4100   57.1490 C.2   108  GLY108      0.2638
     69  O         37.8810    9.4870   57.6700 O.2   108  GLY108     -0.2714
     70  N         37.0560   11.5700   57.7980 N.am  109  LEU109     -0.1977
     71  CA        37.5690   11.7360   59.1570 C.3   109  LEU109      0.1596
     72  C         36.5710   11.2660   60.2470 C.2   109  LEU109      0.2287
     73  O         36.9020   11.3040   61.4440 O.2   109  LEU109     -0.2864
     74  CB        38.0080   13.1730   59.4020 C.3   109  LEU109      0.0297
     75  CG        39.1670   13.5710   58.4700 C.3   109  LEU109      0.0022
     76  CD1       39.5560   15.0500   58.7470 C.3   109  LEU109      0.0001
     77  CD2       40.4020   12.6100   58.5670 C.3   109  LEU109      0.0001
     78  N         41.1770   18.0440   59.8810 N.3   115  PRO115     -0.2116
     79  CA        42.0460   17.7260   58.7310 C.3   115  PRO115      0.1372
     80  C         43.5500   17.9750   58.9560 C.2   115  PRO115      0.2244
     81  O         44.3890   17.2520   58.4250 O.2   115  PRO115     -0.2868
     82  CB        41.5130   18.6370   57.6250 C.3   115  PRO115      0.0268
     83  CG        40.1250   18.9500   57.9770 C.3   115  PRO115      0.0207
     84  CD        39.9710   18.7920   59.4630 C.3   115  PRO115      0.0892
     85  N         34.3850    3.4580   52.8830 N.3   134  PHE134     -0.1241
     86  CA        34.8110    4.2910   51.7490 C.3   134  PHE134      0.1605
     87  C         36.2930    4.5010   51.8380 C.2   134  PHE134      0.2264
     88  O         36.8200    5.0210   52.8330 O.2   134  PHE134     -0.2867
     89  CB        34.0090    5.5970   51.7420 C.3   134  PHE134      0.0534
     90  CG        34.2440    6.4500   50.5180 C.ar  134  PHE134     -0.0203
     91  CD1       35.3830    7.2420   50.4210 C.ar  134  PHE134     -0.0042
     92  CD2       33.3630    6.3710   49.4340 C.ar  134  PHE134     -0.0042
     93  CE1       35.6150    7.9790   49.2850 C.ar  134  PHE134     -0.0003
     94  CE2       33.5930    7.0780   48.3230 C.ar  134  PHE134     -0.0003
     95  CZ        34.7270    7.8520   48.2230 C.ar  134  PHE134     -0.0000
     96  N         38.4650    5.2210   48.8310 N.3   136  ALA136     -0.1245
     97  CA        39.0820    5.7800   47.6290 C.3   136  ALA136      0.1562
     98  C         40.4500    6.3400   47.9690 C.2   136  ALA136      0.2260
     99  O         40.5900    7.2280   48.8270 O.2   136  ALA136     -0.2867
    100  CB        38.1920    6.8050   46.9850 C.3   136  ALA136      0.0290
    101  N         42.5090    8.2140   46.4550 N.3   138  ASN138     -0.1225
    102  CA        42.7930    9.5860   46.0940 C.3   138  ASN138      0.1785
    103  C         42.2220   10.6320   47.0750 C.2   138  ASN138      0.2598
    104  O         42.6200   11.7950   47.0570 O.2   138  ASN138     -0.2718
    105  CB        42.3620    9.8710   44.6280 C.3   138  ASN138      0.1169
    106  CG        40.8920    9.6360   44.3600 C.2   138  ASN138      0.2627
    107  OD1       40.1220    9.2660   45.2530 O.2   138  ASN138     -0.2716
    108  ND2       40.4860    9.8290   43.0990 N.am  138  ASN138     -0.0877
    109  N         41.2780   10.2430   47.9300 N.am  139  SER139     -0.1938
    110  CA        40.8090   11.1180   49.0150 C.3   139  SER139      0.2055
    111  C         41.0920   10.5950   50.4160 C.2   139  SER139      0.2643
    112  O         41.4410   11.3810   51.3040 O.2   139  SER139     -0.2714
    113  CB        39.3070   11.4130   48.8660 C.3   139  SER139      0.2130
    114  OG        38.5010   10.2330   48.8780 O.3   139  SER139     -0.2179
    115  N         40.8810    9.2940   50.6190 N.am  140  ASN140     -0.1971
    116  CA        41.1130    8.6560   51.8940 C.3   140  ASN140      0.1688
    117  C         42.5400    8.0600   51.8360 C.2   140  ASN140      0.2292
    118  O         42.7360    6.8420   51.7450 O.2   140  ASN140     -0.2864
    119  CB        40.0480    7.5630   52.1740 C.3   140  ASN140      0.1181
    120  CG        38.7040    8.1330   52.6090 C.2   140  ASN140      0.2629
    121  OD1       38.1670    7.7430   53.6530 O.2   140  ASN140     -0.2716
    122  ND2       38.1620    9.0930   51.8220 N.am  140  ASN140     -0.0877
    123  N         44.9420    7.6510   53.6620 N.3   142  TRP142     -0.1241
    124  CA        45.4110    6.9560   54.8810 C.3   142  TRP142      0.1605
    125  C         44.8280    5.5310   54.9850 C.2   142  TRP142      0.2264
    126  O         45.1990    4.8030   55.9370 O.2   142  TRP142     -0.2867
    127  CB        44.9670    7.7130   56.1420 C.3   142  TRP142      0.0550
    128  CG        43.5100    8.0460   56.0910 C.ar  142  TRP142      0.0003
    129  CD1       42.4420    7.2030   56.3660 C.ar  142  TRP142      0.0946
    130  CD2       42.9260    9.2780   55.6160 C.ar  142  TRP142      0.0152
    131  NE1       41.2730    7.8390   56.1090 N.ar  142  TRP142     -0.2442
    132  CE2       41.5210    9.1130   55.6580 C.ar  142  TRP142      0.0810
    133  CE3       43.4580   10.4880   55.1410 C.ar  142  TRP142      0.0012
    134  CZ2       40.6330   10.1340   55.2840 C.ar  142  TRP142      0.0191
    135  CZ3       42.5660   11.5040   54.7810 C.ar  142  TRP142      0.0001
    136  CH2       41.1930   11.3170   54.8390 C.ar  142  TRP142      0.0015
    137  N         30.6550   12.4390   53.6300 N.3   222  GLY222     -0.1210
    138  CA        31.2660   13.5490   52.8540 C.3   222  GLY222      0.1956
    139  C         30.4410   13.7910   51.5970 C.2   222  GLY222      0.2612
    140  O         29.2420   14.0430   51.6850 O.2   222  GLY222     -0.2717
    141  N         31.0470   13.6500   50.4210 N.am  223  GLU223     -0.1965
    142  CA        30.2910   13.7830   49.1820 C.3   223  GLU223      0.1733
    143  C         29.4040   12.5500   48.9070 C.2   223  GLU223      0.2616
    144  O         28.3680   12.6590   48.2470 O.2   223  GLU223     -0.2715
    145  CB        31.2040   14.0800   47.9960 C.3   223  GLU223      0.0429
    146  CG        31.8340   15.4460   48.0650 C.3   223  GLU223      0.1163
    147  CD        30.8180   16.5960   47.8820 C.2   223  GLU223      0.3649
    148  OE1       29.6260   16.3710   47.6250 O.co2 223  GLU223     -0.2457
    149  OE2       31.2190   17.7570   48.0180 O.co2 223  GLU223     -0.2457
    150  N         29.8200   11.3840   49.4250 N.am  224  GLN224     -0.1977
    151  CA        29.0110   10.1760   49.3880 C.3   224  GLN224      0.1601
    152  C         28.4670    9.9240   50.8040 C.2   224  GLN224      0.2287
    153  O         28.9550   10.5340   51.7710 O.2   224  GLN224     -0.2864
    154  CB        29.8350    8.9940   48.8940 C.3   224  GLN224      0.0394
    155  CG        29.9700    8.9180   47.3790 C.3   224  GLN224      0.0908
    156  CD        30.9200    9.9260   46.8040 C.2   224  GLN224      0.2608
    157  OE1       32.1130    9.9400   47.1260 O.2   224  GLN224     -0.2717
    158  NE2       30.3730   10.8660   45.9850 N.am  224  GLN224     -0.0878
@<TRIPOS>BOND
     1    31    30    1
     2   108   106   am
     3    30    27    1
     4    38    37    2
     5   106   105    1
     6   106   107    2
     7   105   102    1
     8    27    26    1
     9    27    28    1
    10    37    39   am
    11    37    36    1
    12    26    20   am
    13    28    29    2
    14    28    32   am
    15   158   156   am
    16    25    23    1
    17    32    33    1
    18   102   101    1
    19   102   103    1
    20    36    33    1
    21    20    19    1
    22    20    21    2
    23    19    22    1
    24    19    18    1
    25   156   157    2
    26   156   155    1
    27    33    34    1
    28   100    97    1
    29   104   103    2
    30    22    23    1
    31   103   109   am
    32    23    24    1
    33   155   154    1
    34   148   147   ar
    35    97    98    1
    36    97    96    1
    37   147   149   ar
    38   147   146    1
    39   109   110    1
    40    98    99    2
    41   145   146    1
    42   145   142    1
    43    34    35    2
    44    95    94   ar
    45    95    93   ar
    46   144   143    2
    47    94    92   ar
    48   113   114    1
    49   113   110    1
    50   154   151    1
    51   143   142    1
    52   143   150   am
    53   110   111    1
    54   142   141    1
    55     8     7    1
    56     8     9    2
    57    93    91   ar
    58   151   150    1
    59   151   152    1
    60    92    90   ar
    61     7     6    1
    62    11     9    1
    63     9    10    1
    64   111   115   am
    65   111   112    2
    66    91    90   ar
    67   141   139   am
    68    90    89    1
    69   115   116    1
    70     6     5    1
    71   152   153    2
    72     5     2    1
    73   139   140    2
    74   139   138    1
    75    89    86    1
    76   118   117    2
    77    86    87    1
    78    86    85    1
    79   122   120   am
    80   117   116    1
    81    87    88    2
    82   116   119    1
    83    40    41    1
    84    44    41    1
    85     1     2    1
    86     2     3    1
    87   119   120    1
    88   120   121    2
    89   138   137    1
    90    41    42    1
    91     3    12   am
    92     3     4    2
    93   123   124    1
    94    12    13    1
    95    51    50   ar
    96    16    17    1
    97    16    13    1
    98    52    50   ar
    99    43    42    2
   100    42    45   am
   101    50    49    1
   102    13    14    1
   103   135   136   ar
   104   135   133   ar
   105   136   134   ar
   106   124   125    1
   107   124   127    1
   108   125   126    2
   109   133   130   ar
   110    45    46    1
   111    63    64    1
   112    63    62    1
   113    46    49    1
   114    46    47    1
   115   134   132   ar
   116    66    67    1
   117    66    64   am
   118   130   132   ar
   119   130   128   ar
   120   132   131   ar
   121    67    68    1
   122    64    65    2
   123    14    15    2
   124   128   127    1
   125   128   129   ar
   126   131   129   ar
   127    48    47    2
   128    62    59   am
   129    59    60    2
   130    59    58    1
   131    68    69    2
   132    68    70   am
   133    61    58    1
   134    82    83    1
   135    82    79    1
   136    70    71    1
   137    58    57    1
   138    83    84    1
   139    81    80    2
   140    56    55    2
   141    75    77    1
   142    75    76    1
   143    75    74    1
   144    79    80    1
   145    79    78    1
   146    54    55    1
   147    54    53    1
   148    71    74    1
   149    71    72    1
   150    84    78    1
   151    72    73    2
