@<TRIPOS>MOLECULE
tmp/3zyrB00.pdb
 158 151 0 0 0
SMALL
GASTEIGER

@<TRIPOS>ATOM
      1  N         26.8300   20.2720  115.1830 N.3    46  ARG46      -0.1231
      2  CA        25.4290   20.5630  115.0920 C.3    46  ARG46       0.1694
      3  C         25.0090   21.1820  113.7440 C.2    46  ARG46       0.2592
      4  O         25.8210   21.7650  113.0060 O.2    46  ARG46      -0.2718
      5  CB        25.0470   21.5060  116.2450 C.3    46  ARG46       0.0321
      6  CG        25.6130   22.8870  116.0530 C.3    46  ARG46       0.0489
      7  CD        25.4890   23.7050  117.3340 C.3    46  ARG46       0.2205
      8  NE        24.1140   23.7940  117.8310 N.pl3  46  ARG46      -0.0865
      9  CZ        23.1270   24.5280  117.2940 C.cat  46  ARG46       0.5346
     10  NH1       23.3110   25.2630  116.1980 N.pl3  46  ARG46       0.1354
     11  NH2       21.9380   24.5520  117.9040 N.pl3  46  ARG46       0.1354
     12  N         23.7210   21.0150  113.4390 N.am   47  SER47      -0.1952
     13  CA        22.9870   21.7640  112.4190 C.3    47  SER47       0.1924
     14  C         23.6400   21.7060  111.0410 C.2    47  SER47       0.2314
     15  O         24.2330   22.6720  110.5490 O.2    47  SER47      -0.2863
     16  CB        22.7660   23.1980  112.8910 C.3    47  SER47       0.2116
     17  OG        21.6810   23.7850  112.2020 O.3    47  SER47      -0.2180
     18  N         27.7450   11.6010  121.9530 N.3    83  LEU83      -0.1231
     19  CA        26.5020   11.8070  122.6610 C.3    83  LEU83       0.1693
     20  C         25.7510   10.5430  123.0130 C.2    83  LEU83       0.2593
     21  O         25.8280    9.5170  122.2980 O.2    83  LEU83      -0.2718
     22  CB        25.5720   12.7260  121.8530 C.3    83  LEU83       0.0284
     23  CG        26.1770   14.0370  121.4350 C.3    83  LEU83       0.0019
     24  CD1       25.1940   14.8100  120.6010 C.3    83  LEU83       0.0001
     25  CD2       26.5600   14.8250  122.7120 C.3    83  LEU83       0.0001
     26  N         24.9800   10.6340  124.1060 N.am   84  SER84      -0.1938
     27  CA        24.0400    9.6000  124.5110 C.3    84  SER84       0.2055
     28  C         22.8460    9.4570  123.5570 C.2    84  SER84       0.2643
     29  O         22.2760    8.3560  123.3590 O.2    84  SER84      -0.2714
     30  CB        23.4840    9.9240  125.9060 C.3    84  SER84       0.2130
     31  OG        24.5070    9.7040  126.8400 O.3    84  SER84      -0.2179
     32  N         22.4870   10.5840  122.9590 N.am   85  ASN85      -0.1971
     33  CA        21.3260   10.6890  122.0600 C.3    85  ASN85       0.1688
     34  C         21.7770   11.2720  120.7230 C.2    85  ASN85       0.2292
     35  O         21.4930   12.4380  120.3920 O.2    85  ASN85      -0.2864
     36  CB        20.2580   11.5870  122.7010 C.3    85  ASN85       0.1181
     37  CG        19.7920   11.0730  124.0540 C.2    85  ASN85       0.2629
     38  OD1       19.9670   11.7670  125.0950 O.2    85  ASN85      -0.2716
     39  ND2       19.1810    9.8970  124.0640 N.am   85  ASN85      -0.0877
     40  N         22.2320   12.0840  116.7110 N.3    87  ALA87      -0.1231
     41  CA        21.1840   12.4860  115.7850 C.3    87  ALA87       0.1694
     42  C         21.7650   12.9830  114.4680 C.2    87  ALA87       0.2592
     43  O         22.9120   13.4770  114.4670 O.2    87  ALA87      -0.2718
     44  CB        20.3000   13.6300  116.4400 C.3    87  ALA87       0.0304
     45  N         21.0340   12.9140  113.3520 N.am   88  ASP88      -0.1974
     46  CA        19.6160   12.5380  113.2640 C.3    88  ASP88       0.1709
     47  C         19.3660   11.2450  112.4790 C.2    88  ASP88       0.2293
     48  O         18.3960   10.5320  112.7710 O.2    88  ASP88      -0.2864
     49  CB        18.7730   13.6690  112.7010 C.3    88  ASP88       0.1436
     50  CG        18.3450   14.6130  113.7700 C.2    88  ASP88       0.3671
     51  OD1       17.3070   14.3280  114.4060 O.co2  88  ASP88      -0.2456
     52  OD2       19.0930   15.5760  114.0500 O.co2  88  ASP88      -0.2456
     53  N         15.3650   24.5890  105.7750 N.3   104  GLY104     -0.1225
     54  CA        14.8720   24.1490  107.0780 C.3   104  GLY104      0.1811
     55  C         14.9520   22.6410  107.3030 C.2   104  GLY104      0.2280
     56  O         14.3910   22.1290  108.2880 O.2   104  GLY104     -0.2866
     57  N         17.3090   20.5230  108.2090 N.3   106  ALA106     -0.1231
     58  CA        18.2640   19.9110  109.1500 C.3   106  ALA106      0.1694
     59  C         17.5210   19.1760  110.2530 C.2   106  ALA106      0.2593
     60  O         16.3010   19.0790  110.2260 O.2   106  ALA106     -0.2718
     61  CB        19.2270   20.9680  109.7430 C.3   106  ALA106      0.0304
     62  N         18.2530   18.6500  111.2270 N.am  107  GLY107     -0.1942
     63  CA        17.6450   17.8660  112.2870 C.3   107  GLY107      0.2014
     64  C         16.8500   16.6780  111.7900 C.2   107  GLY107      0.2639
     65  O         17.2700   15.9540  110.8590 O.2   107  GLY107     -0.2714
     66  N         15.6890   16.4980  112.4000 N.am  108  GLY108     -0.1939
     67  CA        14.8350   15.3290  112.1620 C.3   108  GLY108      0.2014
     68  C         14.1840   15.2190  110.8010 C.2   108  GLY108      0.2638
     69  O         13.5730   14.2220  110.4970 O.2   108  GLY108     -0.2714
     70  N         14.3070   16.2580  109.9850 N.am  109  LEU109     -0.1977
     71  CA        13.8410   16.1990  108.5940 C.3   109  LEU109      0.1596
     72  C         14.8500   15.5640  107.6470 C.2   109  LEU109      0.2287
     73  O         14.5130   15.3490  106.4690 O.2   109  LEU109     -0.2864
     74  CB        13.4180   17.5800  108.1100 C.3   109  LEU109      0.0297
     75  CG        12.1970   18.0680  108.8760 C.3   109  LEU109      0.0022
     76  CD1       11.7510   19.4650  108.3640 C.3   109  LEU109      0.0001
     77  CD2       10.9860   17.1190  108.8790 C.3   109  LEU109      0.0001
     78  N         10.0840   22.1190  106.4840 N.3   115  PRO115     -0.2116
     79  CA         9.1790   22.0100  107.6270 C.3   115  PRO115      0.1372
     80  C          7.7020   22.2980  107.3140 C.2   115  PRO115      0.2244
     81  O          6.7990   21.7030  107.9200 O.2   115  PRO115     -0.2868
     82  CB         9.7080   23.0810  108.5900 C.3   115  PRO115      0.0268
     83  CG        11.1230   23.1910  108.2860 C.3   115  PRO115      0.0207
     84  CD        11.2640   22.9490  106.7980 C.3   115  PRO115      0.0892
     85  N         17.1330    9.2590  116.3030 N.3   134  PHE134     -0.1241
     86  CA        16.7070   10.2910  117.2690 C.3   134  PHE134      0.1605
     87  C         15.2170   10.4740  117.1430 C.2   134  PHE134      0.2264
     88  O         14.6830   10.8010  116.0890 O.2   134  PHE134     -0.2867
     89  CB        17.4640   11.5900  117.0520 C.3   134  PHE134      0.0534
     90  CG        17.1890   12.6300  118.1160 C.ar  134  PHE134     -0.0203
     91  CD1       16.0580   13.4180  118.0110 C.ar  134  PHE134     -0.0042
     92  CD2       18.0370   12.8030  119.2000 C.ar  134  PHE134     -0.0042
     93  CE1       15.7790   14.3910  118.9740 C.ar  134  PHE134     -0.0003
     94  CE2       17.7440   13.7650  120.1760 C.ar  134  PHE134     -0.0003
     95  CZ        16.6150   14.5340  120.0550 C.ar  134  PHE134     -0.0000
     96  N         12.9970   11.7510  119.9780 N.3   136  ALA136     -0.1245
     97  CA        12.3680   12.5190  121.0630 C.3   136  ALA136      0.1562
     98  C         10.9730   12.9910  120.6240 C.2   136  ALA136      0.2260
     99  O         10.8180   13.6210  119.5810 O.2   136  ALA136     -0.2867
    100  CB        13.2450   13.7150  121.4760 C.3   136  ALA136      0.0290
    101  N          8.8800   15.1340  121.7330 N.3   138  ASN138     -0.1225
    102  CA         8.5520   16.5510  121.7740 C.3   138  ASN138      0.1785
    103  C          9.1090   17.3910  120.6270 C.2   138  ASN138      0.2598
    104  O          8.6860   18.5160  120.4350 O.2   138  ASN138     -0.2718
    105  CB         8.9010   17.1660  123.1670 C.3   138  ASN138      0.1169
    106  CG        10.3620   17.0190  123.5360 C.2   138  ASN138      0.2627
    107  OD1       11.1580   16.4820  122.7600 O.2   138  ASN138     -0.2716
    108  ND2       10.7240   17.4840  124.7410 N.am  138  ASN138     -0.0877
    109  N         10.0350   16.8320  119.8370 N.am  139  SER139     -0.1938
    110  CA        10.5410   17.4800  118.6180 C.3   139  SER139      0.2055
    111  C         10.2820   16.6590  117.3600 C.2   139  SER139      0.2643
    112  O          9.8730   17.2170  116.3250 O.2   139  SER139     -0.2714
    113  CB        12.0350   17.7900  118.7150 C.3   139  SER139      0.2130
    114  OG        12.8180   16.6850  119.0550 O.3   139  SER139     -0.2179
    115  N         10.5700   15.3600  117.4220 N.am  140  ASN140     -0.1971
    116  CA        10.3260   14.4610  116.2850 C.3   140  ASN140      0.1688
    117  C          8.9410   13.8560  116.5150 C.2   140  ASN140      0.2292
    118  O          8.8080   12.6720  116.8090 O.2   140  ASN140     -0.2864
    119  CB        11.4010   13.3610  116.1560 C.3   140  ASN140      0.1181
    120  CG        12.7590   13.8760  115.6660 C.2   140  ASN140      0.2629
    121  OD1       13.3320   13.3320  114.7280 O.2   140  ASN140     -0.2716
    122  ND2       13.2890   14.8890  116.3040 N.am  140  ASN140     -0.0877
    123  N          6.4560   13.0770  114.8000 N.3   142  TRP142     -0.1241
    124  CA         6.0020   12.0740  113.8130 C.3   142  TRP142      0.1605
    125  C          6.5970   10.6750  114.0270 C.2   142  TRP142      0.2264
    126  O          6.1390    9.7090  113.3620 O.2   142  TRP142     -0.2867
    127  CB         6.3770   12.5530  112.3950 C.3   142  TRP142      0.0550
    128  CG         7.7890   12.9000  112.3240 C.ar  142  TRP142      0.0003
    129  CD1        8.8500   12.0200  112.1930 C.ar  142  TRP142      0.0946
    130  CD2        8.3670   14.1880  112.5320 C.ar  142  TRP142      0.0152
    131  NE1       10.0390   12.7040  112.2750 N.ar  142  TRP142     -0.2442
    132  CE2        9.7710   14.0340  112.4840 C.ar  142  TRP142      0.0810
    133  CE3        7.8390   15.4620  112.7500 C.ar  142  TRP142      0.0012
    134  CZ2       10.6470   15.1150  112.6150 C.ar  142  TRP142      0.0191
    135  CZ3        8.6950   16.5210  112.8660 C.ar  142  TRP142      0.0001
    136  CH2       10.0890   16.3510  112.7950 C.ar  142  TRP142      0.0015
    137  N         20.7980   18.0960  113.9880 N.3   222  GLY222     -0.1210
    138  CA        20.1390   19.3000  114.4970 C.3   222  GLY222      0.1956
    139  C         20.9470   19.7880  115.6900 C.2   222  GLY222      0.2612
    140  O         22.1470   20.0090  115.5740 O.2   222  GLY222     -0.2717
    141  N         20.2980   19.9330  116.8380 N.am  223  GLU223     -0.1965
    142  CA        21.0250   20.2360  118.1080 C.3   223  GLU223      0.1733
    143  C         21.8550   19.0660  118.6240 C.2   223  GLU223      0.2616
    144  O         22.8320   19.2850  119.3490 O.2   223  GLU223     -0.2715
    145  CB        20.0600   20.7920  119.1950 C.3   223  GLU223      0.0429
    146  CG        19.3910   22.0630  118.7220 C.3   223  GLU223      0.1163
    147  CD        18.5690   22.7950  119.7710 C.2   223  GLU223      0.3649
    148  OE1       18.8080   22.6290  120.9610 O.co2 223  GLU223     -0.2457
    149  OE2       17.6370   23.4930  119.3680 O.co2 223  GLU223     -0.2457
    150  N         21.5060   17.8230  118.2280 N.am  224  GLN224     -0.1977
    151  CA        22.3230   16.6590  118.5410 C.3   224  GLN224      0.1601
    152  C         22.9120   16.1970  117.2280 C.2   224  GLN224      0.2287
    153  O         22.4380   16.5930  116.1440 O.2   224  GLN224     -0.2864
    154  CB        21.5040   15.5440  119.2210 C.3   224  GLN224      0.0394
    155  CG        21.3330   15.7490  120.7450 C.3   224  GLN224      0.0908
    156  CD        20.3220   16.8650  121.1100 C.2   224  GLN224      0.2608
    157  OE1       19.1380   16.7790  120.7570 O.2   224  GLN224     -0.2717
    158  NE2       20.7870   17.9160  121.8560 N.am  224  GLN224     -0.0878
@<TRIPOS>BOND
     1    53    54    1
     2    73    72    2
     3    78    84    1
     4    78    79    1
     5    84    83    1
     6    54    55    1
     7    55    56    2
     8    80    79    1
     9    80    81    2
    10    79    82    1
    11    72    71    1
    12    74    71    1
    13    74    75    1
    14    57    58    1
    15    83    82    1
    16    76    75    1
    17    71    70    1
    18    75    77    1
    19    58    61    1
    20    58    59    1
    21    70    68   am
    22    60    59    2
    23    59    62   am
    24    69    68    2
    25    15    14    2
    26    68    67    1
    27    65    64    2
    28    14    13    1
    29    62    63    1
    30    64    63    1
    31    64    66   am
    32    67    66    1
    33   129   131   ar
    34   129   128   ar
    35    17    16    1
    36   131   132   ar
    37   128   127    1
    38   128   130   ar
    39   127   124    1
    40    13    16    1
    41    13    12    1
    42    47    48    2
    43    47    46    1
    44   132   130   ar
    45   132   134   ar
    46   130   133   ar
    47   134   136   ar
    48    49    46    1
    49    49    50    1
    50   133   135   ar
    51   136   135   ar
    52     4     3    2
    53    46    45    1
    54    45    42   am
    55   126   125    2
    56    12     3   am
    57     3     2    1
    58    50    52   ar
    59    50    51   ar
    60   124   125    1
    61   124   123    1
    62   137   138    1
    63    43    42    2
    64    42    41    1
    65   138   139    1
    66   121   120    2
    67     2     1    1
    68     2     5    1
    69   140   139    2
    70   120   119    1
    71   120   122   am
    72   139   141   am
    73    41    44    1
    74    41    40    1
    75     6     5    1
    76     6     7    1
    77    88    87    2
    78   153   152    2
    79   119   116    1
    80    10     9    1
    81   116   117    1
    82   116   115    1
    83    85    86    1
    84   112   111    2
    85   117   118    2
    86   141   142    1
    87    89    86    1
    88    89    90    1
    89    87    86    1
    90   152   151    1
    91     9     8    2
    92     9    11    1
    93     7     8    1
    94   111   115   am
    95   111   110    1
    96    91    90   ar
    97    91    93   ar
    98   142   143    1
    99   142   145    1
   100    90    92   ar
   101   150   151    1
   102   150   143   am
   103   151   154    1
   104   110   113    1
   105   110   109    1
   106   143   144    2
   107   113   114    1
   108   146   145    1
   109   146   147    1
   110    93    95   ar
   111    92    94   ar
   112   154   155    1
   113   149   147   ar
   114    99    98    2
   115   147   148   ar
   116   109   103   am
   117    96    97    1
   118    95    94   ar
   119    35    34    2
   120   104   103    2
   121    24    23    1
   122    98    97    1
   123   103   102    1
   124    34    33    1
   125   155   156    1
   126   157   156    2
   127    97   100    1
   128   156   158   am
   129    23    22    1
   130    23    25    1
   131   101   102    1
   132   102   105    1
   133    22    19    1
   134    18    19    1
   135    33    36    1
   136    33    32    1
   137    21    20    2
   138    19    20    1
   139    36    37    1
   140   107   106    2
   141    32    28   am
   142    20    26   am
   143   105   106    1
   144    29    28    2
   145   106   108   am
   146    28    27    1
   147    37    39   am
   148    37    38    2
   149    26    27    1
   150    27    30    1
   151    30    31    1
