@<TRIPOS>MOLECULE
tmp/3zyuA00.pdb
 141 139 0 0 0
SMALL
GASTEIGER

@<TRIPOS>ATOM
      1  N         -5.5090   -1.8590   24.0640 N.3    40  TRP40      -0.1228
      2  CA        -4.1450   -1.3120   24.0200 C.3    40  TRP40       0.1722
      3  C         -3.1340   -2.0470   23.1050 C.2    40  TRP40       0.2437
      4  O         -2.3920   -1.3800   22.3880 O.2    40  TRP40      -0.2733
      5  CB        -3.5870   -1.0600   25.4350 C.3    40  TRP40       0.0563
      6  CG        -3.5460   -2.2530   26.3030 C.ar   40  TRP40       0.0003
      7  CD1       -4.5950   -2.8330   26.9510 C.ar   40  TRP40       0.0946
      8  CD2       -2.3950   -3.0370   26.6180 C.ar   40  TRP40       0.0152
      9  NE1       -4.1710   -3.9380   27.6400 N.ar   40  TRP40      -0.2442
     10  CE2       -2.8220   -4.0850   27.4540 C.ar   40  TRP40       0.0810
     11  CE3       -1.0430   -2.9580   26.2690 C.ar   40  TRP40       0.0012
     12  CZ2       -1.9450   -5.0440   27.9570 C.ar   40  TRP40       0.0191
     13  CZ3       -0.1700   -3.9130   26.7680 C.ar   40  TRP40       0.0001
     14  CH2       -0.6250   -4.9430   27.6040 C.ar   40  TRP40       0.0015
     15  N         -3.1330   -3.4010   23.0680 N.am   41  PRO41      -0.2718
     16  CA        -2.1770   -4.0330   22.1430 C.3    41  PRO41       0.1535
     17  C         -2.5210   -3.8540   20.6570 C.2    41  PRO41       0.2598
     18  O         -1.6790   -4.1180   19.7930 O.2    41  PRO41      -0.2715
     19  CB        -2.2470   -5.5220   22.5230 C.3    41  PRO41       0.0310
     20  CG        -2.9320   -5.5640   23.8380 C.3    41  PRO41       0.0237
     21  CD        -3.8840   -4.4190   23.8170 C.3    41  PRO41       0.0939
     22  N         -3.7450   -3.4060   20.3830 N.am   42  PHE42      -0.1974
     23  CA        -4.2580   -3.2380   19.0230 C.3    42  PHE42       0.1639
     24  C         -4.2320   -1.7790   18.5420 C.2    42  PHE42       0.2290
     25  O         -4.6870   -1.4830   17.4360 O.2    42  PHE42      -0.2864
     26  CB        -5.6920   -3.7730   18.9470 C.3    42  PHE42       0.0560
     27  CG        -5.8220   -5.2130   19.3490 C.ar   42  PHE42      -0.0200
     28  CD1       -6.0620   -5.5620   20.6690 C.ar   42  PHE42      -0.0042
     29  CD2       -5.7040   -6.2190   18.4040 C.ar   42  PHE42      -0.0042
     30  CE1       -6.1760   -6.8940   21.0450 C.ar   42  PHE42      -0.0003
     31  CE2       -5.8240   -7.5530   18.7680 C.ar   42  PHE42      -0.0003
     32  CZ        -6.0560   -7.8900   20.0930 C.ar   42  PHE42      -0.0000
     33  N         -1.6680    0.1690   17.8320 N.3    44  GLN44      -0.1231
     34  CA        -0.5270    0.5190   16.9920 C.3    44  GLN44       0.1683
     35  C         -0.0540   -0.7350   16.2710 C.2    44  GLN44       0.2434
     36  O         -0.3950   -1.8440   16.6870 O.2    44  GLN44      -0.2733
     37  CB         0.6110    1.1090   17.8380 C.3    44  GLN44       0.0380
     38  CG         1.1530    0.1940   18.9370 C.3    44  GLN44       0.0905
     39  CD         0.2150    0.0680   20.1230 C.2    44  GLN44       0.2608
     40  OE1       -0.1960    1.0670   20.7110 O.2    44  GLN44      -0.2717
     41  NE2       -0.1240   -1.1650   20.4830 N.am   44  GLN44      -0.0878
     42  N          0.7310   -0.5740   15.1920 N.am   45  PRO45      -0.2718
     43  CA         1.2580   -1.7520   14.5110 C.3    45  PRO45       0.1535
     44  C          2.0300   -2.6780   15.4530 C.2    45  PRO45       0.2598
     45  O          2.6700   -2.2140   16.4000 O.2    45  PRO45      -0.2715
     46  CB         2.1990   -1.1550   13.4610 C.3    45  PRO45       0.0310
     47  CG         1.6510    0.1850   13.1860 C.3    45  PRO45       0.0237
     48  CD         1.0780    0.6700   14.4800 C.3    45  PRO45       0.0939
     49  N          1.9540   -3.9770   15.1930 N.am   46  VAL46      -0.1964
     50  CA         2.7550   -4.9460   15.9290 C.3    46  VAL46       0.1727
     51  C          4.2280   -4.6370   15.6890 C.2    46  VAL46       0.2616
     52  O          4.7030   -4.6910   14.5540 O.2    46  VAL46      -0.2715
     53  CB         2.4370   -6.3900   15.4860 C.3    46  VAL46       0.0290
     54  CG1        3.4250   -7.3750   16.0890 C.3    46  VAL46       0.0023
     55  CG2        1.0130   -6.7580   15.8690 C.3    46  VAL46       0.0023
     56  N          4.9370   -4.2760   16.7540 N.am   47  ASP47      -0.1971
     57  CA         6.3770   -4.0560   16.6730 C.3    47  ASP47       0.1709
     58  C          7.0740   -5.3800   16.9670 C.2    47  ASP47       0.2293
     59  O          7.3180   -5.7320   18.1260 O.2    47  ASP47      -0.2864
     60  CB         6.8260   -2.9560   17.6400 C.3    47  ASP47       0.1436
     61  CG         8.2670   -2.5340   17.4170 C.2    47  ASP47       0.3671
     62  OD1        9.0800   -3.3760   16.9880 O.co2  47  ASP47      -0.2456
     63  OD2        8.5880   -1.3540   17.6740 O.co2  47  ASP47      -0.2456
     64  N          8.8330   -6.6690   20.4480 N.3    51  LEU51      -0.1245
     65  CA         8.1970   -7.8630   21.0130 C.3    51  LEU51       0.1561
     66  C          9.0260   -9.1380   20.7900 C.2    51  LEU51       0.2260
     67  O          8.6760  -10.2010   21.3050 O.2    51  LEU51      -0.2867
     68  CB         6.7910   -8.0410   20.4290 C.3    51  LEU51       0.0270
     69  CG         5.7840   -6.9340   20.7630 C.3    51  LEU51       0.0019
     70  CD1        4.4760   -7.1480   20.0100 C.3    51  LEU51       0.0001
     71  CD2        5.5280   -6.8450   22.2680 C.3    51  LEU51       0.0001
     72  N          9.5100  -10.9910   17.9950 N.3    53  LEU53      -0.1245
     73  CA         8.7430  -11.9630   17.2200 C.3    53  LEU53       0.1561
     74  C          9.2730  -11.9870   15.7830 C.2    53  LEU53       0.2260
     75  O          8.6490  -11.4290   14.8790 O.2    53  LEU53      -0.2867
     76  CB         7.2550  -11.5940   17.2350 C.3    53  LEU53       0.0270
     77  CG         6.5960  -11.4770   18.6120 C.3    53  LEU53       0.0019
     78  CD1        5.1750  -10.9460   18.4780 C.3    53  LEU53       0.0001
     79  CD2        6.6040  -12.8180   19.3360 C.3    53  LEU53       0.0001
     80  N          6.8280  -12.9480   12.9260 N.3    56  TYR56      -0.1241
     81  CA         5.5140  -12.3090   12.7920 C.3    56  TYR56       0.1605
     82  C          5.2400  -11.8900   11.3480 C.2    56  TYR56       0.2264
     83  O          4.2140  -12.2490   10.7810 O.2    56  TYR56      -0.2867
     84  CB         5.3380  -11.1000   13.7240 C.3    56  TYR56       0.0534
     85  CG         3.9400  -10.5260   13.6150 C.ar   56  TYR56      -0.0201
     86  CD1        2.8770  -11.0950   14.3090 C.ar   56  TYR56      -0.0009
     87  CD2        3.6720   -9.4430   12.7800 C.ar   56  TYR56      -0.0009
     88  CE1        1.5940  -10.5930   14.1890 C.ar   56  TYR56       0.0417
     89  CE2        2.3880   -8.9330   12.6530 C.ar   56  TYR56       0.0417
     90  CZ         1.3560   -9.5120   13.3580 C.ar   56  TYR56       0.1957
     91  OH         0.0840   -9.0130   13.2340 O.3    56  TYR56      -0.2866
     92  N         -4.6090  -11.6580   14.1100 N.3    95  CYS95      -0.1235
     93  CA        -4.3850  -12.0700   15.4940 C.3    95  CYS95       0.1677
     94  C         -4.6840  -13.5590   15.6620 C.2    95  CYS95       0.2270
     95  O         -3.8990  -14.2970   16.2530 O.2    95  CYS95      -0.2867
     96  CB        -5.2580  -11.2450   16.4360 C.3    95  CYS95       0.0956
     97  SG        -4.9730  -11.5630   18.1790 S.3    95  CYS95      -0.0801
     98  N         -1.8500  -15.6980   13.6800 N.3    98  TYR98      -0.1227
     99  CA        -0.5170  -15.7630   14.2680 C.3    98  TYR98       0.1736
    100  C         -0.5000  -16.5130   15.6000 C.2    98  TYR98       0.2595
    101  O          0.4390  -17.2570   15.8910 O.2    98  TYR98      -0.2718
    102  CB         0.0770  -14.3620   14.4610 C.3    98  TYR98       0.0548
    103  CG         1.4780  -14.4330   15.0200 C.ar   98  TYR98      -0.0200
    104  CD1        2.5430  -14.8190   14.2150 C.ar   98  TYR98      -0.0009
    105  CD2        1.7300  -14.1690   16.3620 C.ar   98  TYR98      -0.0009
    106  CE1        3.8250  -14.9140   14.7230 C.ar   98  TYR98       0.0417
    107  CE2        3.0130  -14.2620   16.8820 C.ar   98  TYR98       0.0417
    108  CZ         4.0550  -14.6340   16.0570 C.ar   98  TYR98       0.1957
    109  OH         5.3300  -14.7340   16.5560 O.3    98  TYR98      -0.2866
    110  N         -1.5470  -16.3090   16.3920 N.am   99  ASN99      -0.1974
    111  CA        -1.6250  -16.8550   17.7410 C.3    99  ASN99       0.1688
    112  C         -2.4810  -18.1220   17.7750 C.2    99  ASN99       0.2292
    113  O         -2.9650  -18.5750   16.7390 O.2    99  ASN99      -0.2864
    114  CB        -2.1370  -15.7620   18.6830 C.3    99  ASN99       0.1181
    115  CG        -1.2480  -14.5250   18.6540 C.2    99  ASN99       0.2629
    116  OD1       -0.1750  -14.5090   19.2540 O.2    99  ASN99      -0.2716
    117  ND2       -1.6770  -13.4940   17.9280 N.am   99  ASN99      -0.0877
    118  N         -3.9330  -15.4270   25.4840 N.3   104  ASP104     -0.1225
    119  CA        -4.3900  -14.1680   26.0780 C.3   104  ASP104      0.1805
    120  C         -4.7940  -13.1350   25.0240 C.2   104  ASP104      0.2597
    121  O         -5.8690  -12.5480   25.1100 O.2   104  ASP104     -0.2718
    122  CB        -3.3050  -13.5620   26.9750 C.3   104  ASP104      0.1424
    123  CG        -3.0310  -14.3900   28.2150 C.2   104  ASP104      0.3668
    124  OD1       -3.9780  -14.9930   28.7710 O.co2 104  ASP104     -0.2456
    125  OD2       -1.8610  -14.4210   28.6440 O.co2 104  ASP104     -0.2456
    126  N         -3.9390  -12.9140   24.0280 N.am  105  ILE105     -0.1980
    127  CA        -4.2130  -11.8940   23.0110 C.3   105  ILE105      0.1595
    128  C         -5.4260  -12.2630   22.1510 C.2   105  ILE105      0.2287
    129  O         -6.1660  -11.3830   21.6950 O.2   105  ILE105     -0.2864
    130  CB        -2.9620  -11.6140   22.1260 C.3   105  ILE105      0.0276
    131  CG1       -3.0980  -10.2820   21.3750 C.3   105  ILE105      0.0022
    132  CG2       -2.6940  -12.7670   21.1620 C.3   105  ILE105      0.0022
    133  CD1       -3.1040   -9.0610   22.2850 C.3   105  ILE105      0.0001
    134  N         -8.5050  -11.4790   24.1110 N.3   108  MET108     -0.1245
    135  CA        -8.6560  -10.0300   24.0790 C.3   108  MET108      0.1570
    136  C         -9.2560   -9.5870   22.7470 C.2   108  MET108      0.2261
    137  O        -10.2070   -8.8050   22.7200 O.2   108  MET108     -0.2867
    138  CB        -7.3120   -9.3560   24.3280 C.3   108  MET108      0.0387
    139  CG        -6.8390   -9.5360   25.7590 C.3   108  MET108      0.0595
    140  SD        -5.1490   -8.9900   26.0430 S.3   108  MET108     -0.1393
    141  CE        -5.3700   -7.2080   26.0010 C.3   108  MET108      0.0692
@<TRIPOS>BOND
     1    83    82    2
     2    82    81    1
     3    89    87   ar
     4    89    90   ar
     5    87    85   ar
     6    81    80    1
     7    81    84    1
     8    47    46    1
     9    47    48    1
    10    91    90    1
    11    90    88   ar
    12    46    43    1
    13    85    84    1
    14    85    86   ar
    15    98    99    1
    16    92    93    1
    17    88    86   ar
    18   104   106   ar
    19   104   103   ar
    20    99   102    1
    21    99   100    1
    22   102   103    1
    23    48    42    1
    24    43    42    1
    25    43    44    1
    26    52    51    2
    27   106   108   ar
    28    75    74    2
    29   103   105   ar
    30    42    35   am
    31    49    44   am
    32    49    50    1
    33    44    45    2
    34    53    55    1
    35    53    50    1
    36    53    54    1
    37    93    94    1
    38    93    96    1
    39   100   101    2
    40   100   110   am
    41    94    95    2
    42    51    50    1
    43    51    56   am
    44    74    73    1
    45   108   109    1
    46   108   107   ar
    47    35    36    2
    48    35    34    1
    49   105   107   ar
    50   110   111    1
    51    96    97    1
    52    57    56    1
    53    57    58    1
    54    57    60    1
    55   113   112    2
    56    58    59    2
    57    62    61   ar
    58    34    33    1
    59    34    37    1
    60    73    76    1
    61    73    72    1
    62    76    77    1
    63    61    60    1
    64    61    63   ar
    65    25    24    2
    66   111   112    1
    67   111   114    1
    68    37    38    1
    69   117   115   am
    70    29    31   ar
    71    29    27   ar
    72    78    77    1
    73    24    23    1
    74    77    79    1
    75   115   114    1
    76   115   116    2
    77    31    32   ar
    78    38    39    1
    79    26    23    1
    80    26    27    1
    81    23    22    1
    82    27    28   ar
    83    18    17    2
    84    70    69    1
    85    32    30   ar
    86    39    41   am
    87    39    40    2
    88    22    17   am
    89    68    69    1
    90    68    65    1
    91    64    65    1
    92    17    16    1
    93    28    30   ar
    94    69    71    1
    95    66    65    1
    96    66    67    2
    97   132   130    1
    98   131   130    1
    99   131   133    1
   100   129   128    2
   101   130   127    1
   102    16    19    1
   103    16    15    1
   104   128   127    1
   105     4     3    2
   106    19    20    1
   107   137   136    2
   108   136   135    1
   109   127   126    1
   110    15     3   am
   111    15    21    1
   112     3     2    1
   113    21    20    1
   114     2     1    1
   115     2     5    1
   116   126   120   am
   117   135   134    1
   118   135   138    1
   119   138   139    1
   120   120   121    2
   121   120   119    1
   122     5     6    1
   123   118   119    1
   124   139   140    1
   125   141   140    1
   126   119   122    1
   127    11     8   ar
   128    11    13   ar
   129     6     8   ar
   130     6     7   ar
   131     8    10   ar
   132    13    14   ar
   133     7     9   ar
   134   122   123    1
   135    10     9   ar
   136    10    12   ar
   137    14    12   ar
   138   123   125   ar
   139   123   124   ar
