@<TRIPOS>MOLECULE
tmp/3zyxA01.pdb
 201 193 0 0 0
SMALL
GASTEIGER

@<TRIPOS>ATOM
      1  N         57.4140  150.7310   17.8500 N.3    56  GLY56      -0.1210
      2  CA        57.9730  150.8470   19.2000 C.3    56  GLY56       0.1956
      3  C         59.2780  151.6220   19.2440 C.2    56  GLY56       0.2613
      4  O         60.1550  151.4320   18.3830 O.2    56  GLY56      -0.2717
      5  N         59.4270  152.4680   20.2610 N.am   57  SER57      -0.1938
      6  CA        60.5100  153.4540   20.3020 C.3    57  SER57       0.2055
      7  C         61.1080  153.7140   21.6980 C.2    57  SER57       0.2643
      8  O         62.3330  153.6540   21.8780 O.2    57  SER57      -0.2714
      9  CB        59.9950  154.7770   19.7310 C.3    57  SER57       0.2130
     10  OG        61.0820  155.6020   19.3670 O.3    57  SER57      -0.2179
     11  N         60.2440  154.0380   22.6660 N.am   58  TYR58      -0.1973
     12  CA        60.6520  154.4080   24.0120 C.3    58  TYR58       0.1639
     13  C         61.1010  153.2320   24.8790 C.2    58  TYR58       0.2290
     14  O         60.4960  152.1700   24.8540 O.2    58  TYR58      -0.2864
     15  CB        59.5430  155.2450   24.7210 C.3    58  TYR58       0.0560
     16  CG        59.1620  156.4330   23.8620 C.ar   58  TYR58      -0.0198
     17  CD1       59.9930  157.5480   23.7850 C.ar   58  TYR58      -0.0009
     18  CD2       57.9960  156.4150   23.0810 C.ar   58  TYR58      -0.0009
     19  CE1       59.6870  158.6110   22.9350 C.ar   58  TYR58       0.0417
     20  CE2       57.6840  157.4650   22.2200 C.ar   58  TYR58       0.0417
     21  CZ        58.5330  158.5600   22.1530 C.ar   58  TYR58       0.1957
     22  OH        58.2260  159.6240   21.3240 O.3    58  TYR58      -0.2866
     23  N         55.6830  171.1850   30.0330 N.3    86  LEU86      -0.1245
     24  CA        54.7050  170.3160   29.3900 C.3    86  LEU86       0.1561
     25  C         53.4600  171.1550   29.1990 C.2    86  LEU86       0.2260
     26  O         53.3710  172.2400   29.7650 O.2    86  LEU86      -0.2867
     27  CB        54.3840  169.1010   30.2760 C.3    86  LEU86       0.0270
     28  CG        55.5200  168.0720   30.4750 C.3    86  LEU86       0.0019
     29  CD1       56.6920  168.6610   31.3180 C.3    86  LEU86       0.0001
     30  CD2       55.0090  166.7630   31.0830 C.3    86  LEU86       0.0001
     31  N         55.7830  166.0330   36.5630 N.3   100  PRO100     -0.2102
     32  CA        55.2520  164.9770   35.6890 C.3   100  PRO100      0.1504
     33  C         53.7970  165.1720   35.2350 C.2   100  PRO100      0.2575
     34  O         53.4510  164.8090   34.0890 O.2   100  PRO100     -0.2718
     35  CB        55.3690  163.7080   36.5470 C.3   100  PRO100      0.0282
     36  CG        56.2400  164.0780   37.7320 C.3   100  PRO100      0.0208
     37  CD        56.0920  165.5530   37.9230 C.3   100  PRO100      0.0893
     38  N         52.9480  165.7160   36.1150 N.am  101  PHE101     -0.1977
     39  CA        51.4890  165.7240   35.8760 C.3   101  PHE101      0.1639
     40  C         50.8000  167.0630   36.1340 C.2   101  PHE101      0.2290
     41  O         51.2430  167.8410   36.9890 O.2   101  PHE101     -0.2864
     42  CB        50.8070  164.6100   36.6720 C.3   101  PHE101      0.0560
     43  CG        51.5820  163.3440   36.6930 C.ar  101  PHE101     -0.0200
     44  CD1       51.7550  162.6010   35.5230 C.ar  101  PHE101     -0.0042
     45  CD2       52.1790  162.9030   37.8690 C.ar  101  PHE101     -0.0042
     46  CE1       52.4950  161.4270   35.5270 C.ar  101  PHE101     -0.0003
     47  CE2       52.9310  161.7360   37.8830 C.ar  101  PHE101     -0.0003
     48  CZ        53.0860  160.9940   36.7070 C.ar  101  PHE101     -0.0000
     49  N         44.1250  158.7170   29.6590 N.3   166  PHE166     -0.1241
     50  CA        45.1510  157.8000   30.1800 C.3   166  PHE166      0.1605
     51  C         44.9390  156.3840   29.6360 C.2   166  PHE166      0.2264
     52  O         45.8650  155.7610   29.1370 O.2   166  PHE166     -0.2867
     53  CB        45.1240  157.8260   31.7190 C.3   166  PHE166      0.0534
     54  CG        46.0470  156.8240   32.3790 C.ar  166  PHE166     -0.0203
     55  CD1       47.4210  157.0900   32.4910 C.ar  166  PHE166     -0.0042
     56  CD2       45.5310  155.6390   32.9260 C.ar  166  PHE166     -0.0042
     57  CE1       48.2850  156.1820   33.1180 C.ar  166  PHE166     -0.0003
     58  CE2       46.3680  154.7110   33.5620 C.ar  166  PHE166     -0.0003
     59  CZ        47.7600  154.9720   33.6460 C.ar  166  PHE166     -0.0000
     60  N         45.6470  156.2810   25.7780 N.3   169  LEU169     -0.1231
     61  CA        47.0670  156.3960   25.4310 C.3   169  LEU169      0.1693
     62  C         47.8670  155.1470   25.8520 C.2   169  LEU169      0.2592
     63  O         48.7900  154.7210   25.1400 O.2   169  LEU169     -0.2718
     64  CB        47.6510  157.6750   26.0510 C.3   169  LEU169      0.0284
     65  CG        49.1260  158.0620   25.8580 C.3   169  LEU169      0.0019
     66  CD1       49.4360  158.4400   24.3930 C.3   169  LEU169      0.0001
     67  CD2       49.4520  159.2260   26.7780 C.3   169  LEU169      0.0001
     68  N         47.5100  154.5480   26.9920 N.am  170  CYS170     -0.1970
     69  CA        48.2100  153.3380   27.4560 C.3   170  CYS170      0.1712
     70  C         47.9740  152.1060   26.5950 C.2   170  CYS170      0.2296
     71  O         48.9030  151.3170   26.4210 O.2   170  CYS170     -0.2864
     72  CB        47.8480  153.0000   28.9100 C.3   170  CYS170      0.0983
     73  SG        48.5840  154.1460   30.1230 S.3   170  CYS170     -0.0798
     74  N         54.3300  154.2500   34.3840 N.3   196  ILE196     -0.1231
     75  CA        53.8600  154.0140   33.0160 C.3   196  ILE196      0.1692
     76  C         53.6480  155.3400   32.2960 C.2   196  ILE196      0.2591
     77  O         53.9230  155.4620   31.1020 O.2   196  ILE196     -0.2718
     78  CB        52.5880  153.0760   32.9570 C.3   196  ILE196      0.0266
     79  CG1       52.4730  152.3790   31.5910 C.3   196  ILE196      0.0019
     80  CG2       51.2890  153.8580   33.3230 C.3   196  ILE196      0.0020
     81  CD1       51.2990  151.3570   31.5020 C.3   196  ILE196      0.0001
     82  N         53.2120  156.3500   33.0460 N.am  197  ALA197     -0.1980
     83  CA        52.8430  157.6390   32.4650 C.3   197  ALA197      0.1597
     84  C         54.0070  158.6190   32.3470 C.2   197  ALA197      0.2287
     85  O         53.8680  159.6650   31.6990 O.2   197  ALA197     -0.2864
     86  CB        51.7080  158.2650   33.2680 C.3   197  ALA197      0.0319
     87  N         57.8500  160.4290   31.6270 N.3   199  THR199     -0.1218
     88  CA        59.0260  160.5100   30.7780 C.3   199  THR199      0.1862
     89  C         60.3070  160.3350   31.6180 C.2   199  THR199      0.2287
     90  O         60.8790  159.2360   31.6430 O.2   199  THR199     -0.2866
     91  CB        58.9760  161.7670   29.8940 C.3   199  THR199      0.1770
     92  OG1       57.8270  161.6500   29.0360 O.3   199  THR199     -0.2211
     93  CG2       60.2390  161.8980   29.0230 C.3   199  THR199      0.0375
     94  N         58.8340  156.4530   29.0790 N.3   204  GLN204     -0.1245
     95  CA        59.1390  157.2960   27.9200 C.3   204  GLN204      0.1566
     96  C         60.4700  158.0850   28.0430 C.2   204  GLN204      0.2260
     97  O         60.6970  159.0560   27.3020 O.2   204  GLN204     -0.2867
     98  CB        57.9800  158.2860   27.6690 C.3   204  GLN204      0.0367
     99  CG        56.7180  157.6890   27.0170 C.3   204  GLN204      0.0905
    100  CD        55.9860  156.7390   27.9520 C.2   204  GLN204      0.2608
    101  OE1       55.9980  155.5290   27.7510 O.2   204  GLN204     -0.2717
    102  NE2       55.3710  157.2870   28.9960 N.am  204  GLN204     -0.0878
    103  N         50.8840  156.3440   14.1030 N.3   294  LYS294     -0.1245
    104  CA        51.9910  157.1180   14.6550 C.3   294  LYS294      0.1561
    105  C         52.3780  158.1700   13.6400 C.2   294  LYS294      0.2260
    106  O         52.6520  157.8350   12.4990 O.2   294  LYS294     -0.2867
    107  CB        53.1850  156.2100   14.9810 C.3   294  LYS294      0.0271
    108  CG        54.3220  156.9420   15.6640 C.3   294  LYS294      0.0035
    109  CD        55.3870  155.9830   16.2130 C.3   294  LYS294      0.0206
    110  CE        56.3360  156.7180   17.1520 C.3   294  LYS294      0.1093
    111  NZ        57.3200  155.8250   17.8270 N.3   294  LYS294     -0.1314
    112  N         56.0460  168.1850   24.7870 N.3   312  THR312     -0.1203
    113  CA        55.0710  167.2810   25.3810 C.3   312  THR312      0.1994
    114  C         53.7290  167.9890   25.5190 C.2   312  THR312      0.2621
    115  O         53.6340  169.0340   26.1680 O.2   312  THR312     -0.2717
    116  CB        55.5090  166.8540   26.7620 C.3   312  THR312      0.1784
    117  OG1       56.7440  166.1590   26.6640 O.3   312  THR312     -0.2211
    118  CG2       54.4510  165.9560   27.4060 C.3   312  THR312      0.0376
    119  N         52.7060  167.4210   24.8930 N.am  313  MET313     -0.1919
    120  CA        51.3490  167.9450   24.9830 C.3   313  MET313      0.1952
    121  C         50.4070  166.8080   25.3610 C.2   313  MET313      0.2658
    122  O         50.5280  165.6940   24.8360 O.2   313  MET313     -0.2711
    123  CB        50.9010  168.5750   23.6410 C.2   313  MET313      0.0110
    124  CG        51.6800  169.8060   23.2060 C.2   313  MET313      0.0285
    125  SD        51.3070  170.4350   21.5310 S.3   313  MET313     -0.1125
    126  CE        52.7430  169.8570   20.5920 C.3   313  MET313      0.0742
    127  N         49.4840  167.1080   26.2720 N.am  314  ILE314     -0.1974
    128  CA        48.4000  166.2270   26.6540 C.3   314  ILE314      0.1596
    129  C         47.1170  166.9090   26.2290 C.2   314  ILE314      0.2287
    130  O         46.7130  167.9240   26.8000 O.2   314  ILE314     -0.2864
    131  CB        48.3730  165.9800   28.1580 C.3   314  ILE314      0.0276
    132  CG1       49.6540  165.2850   28.6000 C.3   314  ILE314      0.0022
    133  CG2       47.1670  165.1340   28.5390 C.3   314  ILE314      0.0022
    134  CD1       49.8090  165.2320   30.1240 C.3   314  ILE314      0.0001
    135  N         48.2620  162.8940   22.5210 N.3   324  ALA324     -0.1231
    136  CA        49.5580  163.1050   23.2020 C.3   324  ALA324      0.1694
    137  C         50.7150  163.2410   22.2190 C.2   324  ALA324      0.2593
    138  O         50.7630  162.5390   21.1990 O.2   324  ALA324     -0.2718
    139  CB        49.8540  161.9960   24.1870 C.3   324  ALA324      0.0304
    140  N         51.6360  164.1450   22.5320 N.am  325  THR325     -0.1939
    141  CA        52.8270  164.3470   21.7140 C.3   325  THR325      0.2028
    142  C         54.0880  164.3110   22.5730 C.2   325  THR325      0.2642
    143  O         54.0240  164.5910   23.7700 O.2   325  THR325     -0.2714
    144  CB        52.8010  165.7140   20.9720 C.3   325  THR325      0.1808
    145  OG1       52.8850  166.7840   21.9250 O.3   325  THR325     -0.2208
    146  CG2       51.5370  165.8660   20.1220 C.3   325  THR325      0.0379
    147  N         55.2170  163.9520   21.9520 N.am  326  LEU326     -0.1977
    148  CA        56.5530  164.1490   22.5410 C.3   326  LEU326      0.1596
    149  C         57.4680  164.8000   21.5000 C.2   326  LEU326      0.2287
    150  O         57.2600  164.6370   20.2920 O.2   326  LEU326     -0.2864
    151  CB        57.1680  162.8290   23.0590 C.3   326  LEU326      0.0297
    152  CG        56.5060  162.1230   24.2510 C.3   326  LEU326      0.0022
    153  CD1       56.9870  160.6800   24.4230 C.3   326  LEU326      0.0001
    154  CD2       56.7400  162.9200   25.5310 C.3   326  LEU326      0.0001
    155  N         56.3370  164.1420   17.5160 N.3   339  MET339     -0.1245
    156  CA        55.6730  162.8370   17.4130 C.3   339  MET339      0.1570
    157  C         54.3110  162.8940   18.1040 C.2   339  MET339      0.2261
    158  O         54.2080  163.3710   19.2410 O.2   339  MET339     -0.2867
    159  CB        56.5280  161.7720   18.1200 C.3   339  MET339      0.0387
    160  CG        56.0640  160.3270   17.9990 C.3   339  MET339      0.0595
    161  SD        54.5400  159.8760   18.8930 S.3   339  MET339     -0.1393
    162  CE        55.0530  160.0150   20.6130 C.3   339  MET339      0.0692
    163  N         50.3450  160.4740   18.4570 N.3   341  PHE341     -0.1241
    164  CA        49.5600  159.2590   18.2110 C.3   341  PHE341      0.1605
    165  C         48.1040  159.6220   17.9380 C.2   341  PHE341      0.2264
    166  O         47.5140  160.4020   18.6930 O.2   341  PHE341     -0.2867
    167  CB        49.5730  158.3440   19.4480 C.3   341  PHE341      0.0534
    168  CG        50.9020  157.7260   19.7470 C.ar  341  PHE341     -0.0203
    169  CD1       51.5520  156.9420   18.8050 C.ar  341  PHE341     -0.0042
    170  CD2       51.5070  157.9200   20.9840 C.ar  341  PHE341     -0.0042
    171  CE1       52.8020  156.3540   19.0870 C.ar  341  PHE341     -0.0003
    172  CE2       52.7640  157.3320   21.2760 C.ar  341  PHE341     -0.0003
    173  CZ        53.4090  156.5520   20.3230 C.ar  341  PHE341     -0.0000
    174  N         49.5110  149.1500   20.3290 N.3   396  TYR396     -0.1241
    175  CA        50.8480  148.6010   20.6360 C.3   396  TYR396      0.1605
    176  C         50.7890  147.1150   20.8320 C.2   396  TYR396      0.2264
    177  O         51.7180  146.3870   20.4730 O.2   396  TYR396     -0.2867
    178  CB        51.4160  149.2090   21.9310 C.3   396  TYR396      0.0534
    179  CG        51.0790  150.6580   22.1170 C.ar  396  TYR396     -0.0201
    180  CD1       51.3310  151.5830   21.1000 C.ar  396  TYR396     -0.0009
    181  CD2       50.5300  151.1250   23.3140 C.ar  396  TYR396     -0.0009
    182  CE1       51.0410  152.9190   21.2690 C.ar  396  TYR396      0.0417
    183  CE2       50.2350  152.4670   23.4810 C.ar  396  TYR396      0.0417
    184  CZ        50.4960  153.3520   22.4550 C.ar  396  TYR396      0.1957
    185  OH        50.1900  154.6870   22.5780 O.3   396  TYR396     -0.2866
    186  N         53.5410  144.0630   26.5600 N.3   432  GLY432     -0.1210
    187  CA        53.0660  145.0810   25.6090 C.3   432  GLY432      0.1956
    188  C         54.1990  145.8870   24.9700 C.2   432  GLY432      0.2611
    189  O         54.0060  146.5180   23.9430 O.2   432  GLY432     -0.2717
    190  N         55.3830  145.8030   25.5720 N.am  433  TYR433     -0.1976
    191  CA        56.5570  146.6160   25.2530 C.3   433  TYR433      0.1639
    192  C         57.7230  145.7790   24.6870 C.2   433  TYR433      0.2290
    193  O         57.7130  144.5410   24.7390 O.2   433  TYR433     -0.2864
    194  CB        57.0540  147.2880   26.5430 C.3   433  TYR433      0.0560
    195  CG        56.1530  148.3770   27.0890 C.ar  433  TYR433     -0.0198
    196  CD1       54.9360  148.0650   27.7220 C.ar  433  TYR433     -0.0009
    197  CD2       56.5170  149.7260   26.9830 C.ar  433  TYR433     -0.0009
    198  CE1       54.1150  149.0700   28.2200 C.ar  433  TYR433      0.0417
    199  CE2       55.7120  150.7200   27.4870 C.ar  433  TYR433      0.0417
    200  CZ        54.5130  150.3820   28.1070 C.ar  433  TYR433      0.1957
    201  OH        53.7020  151.3730   28.5900 O.3   433  TYR433     -0.2866
@<TRIPOS>BOND
     1   106   105    2
     2   105   104    1
     3   103   104    1
     4   104   107    1
     5   107   108    1
     6   108   109    1
     7   109   110    1
     8   110   111    1
     9   156   155    1
    10   156   157    1
    11   156   159    1
    12     1     2    1
    13   165   164    1
    14   165   166    2
    15   160   159    1
    16   160   161    1
    17   157   158    2
    18   164   163    1
    19   164   167    1
    20     4     3    2
    21   169   171   ar
    22   169   168   ar
    23   161   162    1
    24   171   173   ar
    25     2     3    1
    26     3     5   am
    27    10     9    1
    28   167   168    1
    29     9     6    1
    30   168   170   ar
    31   146   144    1
    32     5     6    1
    33   150   149    2
    34     6     7    1
    35   173   172   ar
    36   174   175    1
    37   177   176    2
    38   126   125    1
    39   175   176    1
    40   175   178    1
    41   144   141    1
    42   144   145    1
    43   170   172   ar
    44   180   182   ar
    45   180   179   ar
    46   138   137    2
    47   182   184   ar
    48    22    21    1
    49   149   148    1
    50   125   124    1
    51     7     8    2
    52     7    11   am
    53   141   140    1
    54   141   142    1
    55   178   179    1
    56   147   148    1
    57   147   142   am
    58   179   181   ar
    59    21    20   ar
    60    21    19   ar
    61   137   140   am
    62   137   136    1
    63    20    18   ar
    64   184   185    1
    65   184   183   ar
    66   135   136    1
    67   148   151    1
    68   142   143    2
    69    11    12    1
    70    19    17   ar
    71   151   152    1
    72    18    16   ar
    73   136   139    1
    74   124   123    2
    75   181   183   ar
    76   123   120    1
    77    17    16   ar
    78    16    15    1
    79   189   188    2
    80    12    15    1
    81    12    13    1
    82   152   153    1
    83   152   154    1
    84    66    65    1
    85   192   193    2
    86   192   191    1
    87   112   113    1
    88   122   121    2
    89    14    13    2
    90   119   120    1
    91   119   114   am
    92   188   190   am
    93   188   187    1
    94   120   121    1
    95    63    62    2
    96   191   190    1
    97   191   194    1
    98   121   127   am
    99   113   114    1
   100   113   116    1
   101    61    60    1
   102    61    62    1
   103    61    64    1
   104   114   115    2
   105   187   186    1
   106    62    68   am
   107    65    64    1
   108    65    67    1
   109   129   128    1
   110   129   130    2
   111   127   128    1
   112    71    70    2
   113   194   195    1
   114    70    69    1
   115   128   131    1
   116   117   116    1
   117   116   118    1
   118   197   195   ar
   119   197   199   ar
   120    68    69    1
   121    99    98    1
   122    99   100    1
   123   195   196   ar
   124    97    96    2
   125    69    72    1
   126   199   200   ar
   127    98    95    1
   128   196   198   ar
   129   101   100    2
   130    95    96    1
   131    95    94    1
   132   100   102   am
   133   200   198   ar
   134   200   201    1
   135   131   133    1
   136   131   132    1
   137   132   134    1
   138    72    73    1
   139    93    91    1
   140    92    91    1
   141    52    51    2
   142    25    24    1
   143    25    26    2
   144    24    23    1
   145    24    27    1
   146    51    50    1
   147    49    50    1
   148    91    88    1
   149    50    53    1
   150    27    28    1
   151    28    30    1
   152    28    29    1
   153    88    89    1
   154    88    87    1
   155    77    76    2
   156    81    79    1
   157    79    78    1
   158    89    90    2
   159    85    84    2
   160    53    54    1
   161    76    75    1
   162    76    82   am
   163    84    83    1
   164    54    55   ar
   165    54    56   ar
   166    83    82    1
   167    83    86    1
   168    55    57   ar
   169    56    58   ar
   170    78    75    1
   171    78    80    1
   172    75    74    1
   173    57    59   ar
   174    58    59   ar
   175    34    33    2
   176    33    32    1
   177    33    38   am
   178    44    46   ar
   179    44    43   ar
   180    46    48   ar
   181    32    35    1
   182    32    31    1
   183    39    38    1
   184    39    40    1
   185    39    42    1
   186    40    41    2
   187    35    36    1
   188    31    37    1
   189    42    43    1
   190    43    45   ar
   191    48    47   ar
   192    36    37    1
   193    45    47   ar
