@<TRIPOS>MOLECULE
tmp/3zyzA03.pdb
 84 85 0 0 0
SMALL
GASTEIGER

@<TRIPOS>ATOM
      1  N         12.2750    6.0440   -1.8310 N.3   447  GLU447     -0.1231
      2  CA        12.3900    7.1190   -2.8280 C.3   447  GLU447      0.1699
      3  C         12.0350    8.4640   -2.2210 C.2   447  GLU447      0.2593
      4  O         11.2160    9.2070   -2.7630 O.2   447  GLU447     -0.2718
      5  CB        11.5280    6.8410   -4.0650 C.3   447  GLU447      0.0402
      6  CG        11.8100    5.4980   -4.7140 C.3   447  GLU447      0.1161
      7  CD        11.1240    5.3270   -6.0480 C.2   447  GLU447      0.3649
      8  OE1       10.8460    6.3480   -6.7140 O.co2 447  GLU447     -0.2457
      9  OE2       10.8720    4.1590   -6.4370 O.co2 447  GLU447     -0.2457
     10  N         12.6260    8.7490   -1.0650 N.am  448  GLY448     -0.1942
     11  CA        12.3840   10.0030   -0.3610 C.3   448  GLY448      0.2014
     12  C         11.0720   10.1170    0.3960 C.2   448  GLY448      0.2638
     13  O         10.8320   11.1380    1.0430 O.2   448  GLY448     -0.2714
     14  N         10.2130    9.1010    0.3110 N.am  449  ASN449     -0.1972
     15  CA         8.9490    9.1000    1.0750 C.3   449  ASN449      0.1688
     16  C          9.0880    8.3270    2.3900 C.2   449  ASN449      0.2292
     17  O          9.2320    7.1090    2.3780 O.2   449  ASN449     -0.2864
     18  CB         7.7840    8.5240    0.2560 C.3   449  ASN449      0.1181
     19  CG         7.4430    9.3640   -0.9580 C.2   449  ASN449      0.2629
     20  OD1        6.5300   10.1800   -0.9220 O.2   449  ASN449     -0.2716
     21  ND2        8.1660    9.1540   -2.0410 N.am  449  ASN449     -0.0877
     22  N          4.9530   12.2420    0.3790 N.3   454  ASN454     -0.1225
     23  CA         5.3110   13.6380    0.1830 C.3   454  ASN454      0.1785
     24  C          4.2760   14.4420   -0.5780 C.2   454  ASN454      0.2597
     25  O          4.1050   15.6270   -0.3210 O.2   454  ASN454     -0.2718
     26  CB         6.6440   13.7350   -0.5650 C.3   454  ASN454      0.1169
     27  CG         7.8170   13.3410    0.2920 C.2   454  ASN454      0.2627
     28  OD1        7.7510   13.4140    1.5110 O.2   454  ASN454     -0.2716
     29  ND2        8.9040   12.9240   -0.3400 N.am  454  ASN454     -0.0877
     30  N          3.6100   13.8130   -1.5410 N.am  455  ASN455     -0.1974
     31  CA         2.5940   14.5040   -2.3440 C.3   455  ASN455      0.1688
     32  C          1.6380   13.5530   -3.0140 C.2   455  ASN455      0.2292
     33  O          1.7270   12.3370   -2.8370 O.2   455  ASN455     -0.2864
     34  CB         3.2480   15.3860   -3.4080 C.3   455  ASN455      0.1181
     35  CG         4.2370   14.6300   -4.2530 C.2   455  ASN455      0.2629
     36  OD1        3.8750   13.7070   -4.9900 O.2   455  ASN455     -0.2716
     37  ND2        5.4990   15.0070   -4.1480 N.am  455  ASN455     -0.0877
     38  N          1.1930   13.1790   -6.3490 N.3   457  ASP457     -0.1225
     39  CA         1.5420   12.9850   -7.7570 C.3   457  ASP457      0.1790
     40  C          1.9570   11.5430   -8.0430 C.2   457  ASP457      0.2440
     41  O          2.4500   10.8480   -7.1410 O.2   457  ASP457     -0.2733
     42  CB         2.6550   13.9430   -8.1810 C.3   457  ASP457      0.1423
     43  CG         2.2730   15.4060   -7.9950 C.2   457  ASP457      0.3668
     44  OD1        1.0770   15.7520   -8.0860 O.co2 457  ASP457     -0.2456
     45  OD2        3.1760   16.2150   -7.7430 O.co2 457  ASP457     -0.2456
     46  N          1.7660   11.0780   -9.2950 N.am  458  PRO458     -0.2718
     47  CA         2.2840    9.7610   -9.5930 C.3   458  PRO458      0.1535
     48  C          3.7860    9.7110   -9.3400 C.2   458  PRO458      0.2599
     49  O          4.5000   10.6940   -9.5670 O.2   458  PRO458     -0.2715
     50  CB         2.0000    9.6010  -11.0920 C.3   458  PRO458      0.0310
     51  CG         0.8740   10.4530  -11.3550 C.3   458  PRO458      0.0237
     52  CD         1.0580   11.6510  -10.4560 C.3   458  PRO458      0.0939
     53  N          4.2370    8.5610   -8.8560 N.am  459  TRP459     -0.1960
     54  CA         5.6380    8.2900   -8.6750 C.3   459  TRP459      0.1771
     55  C          6.2750    8.1030  -10.0510 C.2   459  TRP459      0.2620
     56  O          5.5660    7.9620  -11.0690 O.2   459  TRP459     -0.2715
     57  CB         5.8020    7.0000   -7.8830 C.3   459  TRP459      0.0590
     58  CG         5.6720    7.1500   -6.4040 C.ar  459  TRP459      0.0006
     59  CD1        4.7650    7.9250   -5.7160 C.ar  459  TRP459      0.0946
     60  CD2        6.4490    6.4670   -5.4100 C.ar  459  TRP459      0.0152
     61  NE1        4.9500    7.7790   -4.3560 N.ar  459  TRP459     -0.2442
     62  CE2        5.9720    6.8880   -4.1420 C.ar  459  TRP459      0.0810
     63  CE3        7.5030    5.5410   -5.4680 C.ar  459  TRP459      0.0012
     64  CZ2        6.5210    6.4180   -2.9430 C.ar  459  TRP459      0.0191
     65  CZ3        8.0570    5.0830   -4.2740 C.ar  459  TRP459      0.0001
     66  CH2        7.5580    5.5210   -3.0280 C.ar  459  TRP459      0.0015
     67  N          7.6070    8.1170  -10.0720 N.am  460  HIS460     -0.1959
     68  CA         8.3820    7.7070  -11.2480 C.3   460  HIS460      0.1787
     69  C          8.1250    8.5330  -12.4910 C.2   460  HIS460      0.2620
     70  O          8.1220    7.9830  -13.6090 O.2   460  HIS460     -0.2715
     71  CB         8.1430    6.2280  -11.5860 C.3   460  HIS460      0.0785
     72  CG         8.5430    5.2790  -10.5000 C.ar  460  HIS460      0.0821
     73  ND1        9.5800    5.5350   -9.6300 N.ar  460  HIS460     -0.2267
     74  CD2        8.0750    4.0520  -10.1790 C.ar  460  HIS460      0.1154
     75  CE1        9.7170    4.5140   -8.8030 C.ar  460  HIS460      0.1986
     76  NE2        8.8170    3.6000   -9.1140 N.ar  460  HIS460     -0.2212
     77  N          7.9360    9.8440  -12.3030 N.am  461  ASN461     -0.1972
     78  CA         7.6860   10.7580  -13.4140 C.3   461  ASN461      0.1688
     79  C          6.4230   10.3400  -14.1780 C.2   461  ASN461      0.2292
     80  O          6.3080   10.5460  -15.3970 O.2   461  ASN461     -0.2864
     81  CB         8.9050   10.8020  -14.3480 C.3   461  ASN461      0.1181
     82  CG         9.0290   12.1160  -15.0880 C.2   461  ASN461      0.2629
     83  OD1        8.5360   13.1500  -14.6290 O.2   461  ASN461     -0.2716
     84  ND2        9.7000   12.0860  -16.2370 N.am  461  ASN461     -0.0877
@<TRIPOS>BOND
     1    84    82   am
     2    80    79    2
     3    82    83    2
     4    82    81    1
     5    81    78    1
     6    79    78    1
     7    70    69    2
     8    78    77    1
     9    69    77   am
    10    69    68    1
    11    71    68    1
    12    71    72    1
    13    51    50    1
    14    51    52    1
    15    68    67    1
    16    50    47    1
    17    56    55    2
    18    72    74   ar
    19    72    73   ar
    20    52    46    1
    21    74    76   ar
    22    67    55   am
    23    55    54    1
    24    73    75   ar
    25    47    48    1
    26    47    46    1
    27    49    48    2
    28    48    53   am
    29    46    40   am
    30    76    75   ar
    31    53    54    1
    32    54    57    1
    33    42    43    1
    34    42    39    1
    35    44    43   ar
    36    40    39    1
    37    40    41    2
    38    43    45   ar
    39    57    58    1
    40    39    38    1
    41     8     7   ar
    42     9     7   ar
    43    58    59   ar
    44    58    60   ar
    45     7     6    1
    46    59    61   ar
    47    63    60   ar
    48    63    65   ar
    49    60    62   ar
    50    36    35    2
    51     6     5    1
    52    61    62   ar
    53    65    66   ar
    54    35    37   am
    55    35    34    1
    56    62    64   ar
    57     5     2    1
    58    34    31    1
    59    66    64   ar
    60    32    33    2
    61    32    31    1
    62     2     3    1
    63     2     1    1
    64     4     3    2
    65    31    30    1
    66     3    10   am
    67    21    19   am
    68    30    24   am
    69    10    11    1
    70    19    20    2
    71    19    18    1
    72    24    25    2
    73    24    23    1
    74    26    23    1
    75    26    27    1
    76    11    12    1
    77    29    27   am
    78    23    22    1
    79    18    15    1
    80    27    28    2
    81    14    12   am
    82    14    15    1
    83    12    13    2
    84    15    16    1
    85    17    16    2
