@<TRIPOS>MOLECULE
tmp/3zz5A00.pdb
 157 155 0 0 0
SMALL
GASTEIGER

@<TRIPOS>ATOM
      1  N        -13.9200   15.9010  -12.7790 N.3    23  TYR23      -0.1227
      2  CA       -14.3340   15.7520  -14.1880 C.3    23  TYR23       0.1736
      3  C        -15.6630   15.0600  -14.4190 C.2    23  TYR23       0.2596
      4  O        -16.1350   14.9230  -15.5630 O.2    23  TYR23      -0.2718
      5  CB       -13.1930   15.1790  -15.0400 C.3    23  TYR23       0.0548
      6  CG       -12.1560   16.2840  -15.3260 C.ar   23  TYR23      -0.0200
      7  CD1      -11.2440   16.7010  -14.3450 C.ar   23  TYR23      -0.0009
      8  CD2      -12.1300   16.9250  -16.5340 C.ar   23  TYR23      -0.0009
      9  CE1      -10.3130   17.7250  -14.5940 C.ar   23  TYR23       0.0417
     10  CE2      -11.2030   17.9360  -16.8020 C.ar   23  TYR23       0.0417
     11  CZ       -10.3040   18.3340  -15.8260 C.ar   23  TYR23       0.1957
     12  OH        -9.4130   19.3620  -16.0990 O.3    23  TYR23      -0.2866
     13  N        -16.2780   14.6310  -13.3350 N.am   24  GLY24      -0.1942
     14  CA       -17.5980   14.0310  -13.4450 C.3    24  GLY24       0.2014
     15  C        -17.7850   12.8250  -12.5510 C.2    24  GLY24       0.2639
     16  O        -17.0080   12.5660  -11.6460 O.2    24  GLY24      -0.2714
     17  N        -18.8520   12.0880  -12.8260 N.am   25  GLU25      -0.1963
     18  CA       -19.1970   10.9230  -12.0310 C.3    25  GLU25       0.1733
     19  C        -18.9770    9.6760  -12.8820 C.2    25  GLU25       0.2616
     20  O        -19.4020    9.6410  -14.0110 O.2    25  GLU25      -0.2715
     21  CB       -20.6620   11.0330  -11.5880 C.3    25  GLU25       0.0429
     22  CG       -21.0550    9.9210  -10.6550 C.3    25  GLU25       0.1163
     23  CD       -22.5110    9.9310  -10.3050 C.2    25  GLU25       0.3649
     24  OE1      -23.3500   10.0230  -11.2110 O.co2  25  GLU25      -0.2457
     25  OE2      -22.8290    9.8260   -9.1130 O.co2  25  GLU25      -0.2457
     26  N        -18.3240    8.6620  -12.3260 N.am   26  PHE26      -0.1974
     27  CA       -17.8910    7.4930  -13.0810 C.3    26  PHE26       0.1639
     28  C        -18.2270    6.2020  -12.3830 C.2    26  PHE26       0.2290
     29  O        -18.2590    6.1330  -11.1560 O.2    26  PHE26      -0.2864
     30  CB       -16.3800    7.5280  -13.3200 C.3    26  PHE26       0.0560
     31  CG       -15.9650    8.6510  -14.2380 C.ar   26  PHE26      -0.0200
     32  CD1      -16.1190    8.5440  -15.5990 C.ar   26  PHE26      -0.0042
     33  CD2      -15.5590    9.8530  -13.7180 C.ar   26  PHE26      -0.0042
     34  CE1      -15.8140    9.5520  -16.4070 C.ar   26  PHE26      -0.0003
     35  CE2      -15.2650   10.8630  -14.5550 C.ar   26  PHE26      -0.0003
     36  CZ       -15.3790   10.7040  -15.8980 C.ar   26  PHE26      -0.0000
     37  N         -9.4430    7.1930  -18.7300 N.3    40  ARG40      -0.1231
     38  CA        -8.3330    8.1510  -18.4130 C.3    40  ARG40       0.1694
     39  C         -8.9100    9.4950  -18.1330 C.2    40  ARG40       0.2592
     40  O         -8.5640   10.1410  -17.1430 O.2    40  ARG40      -0.2718
     41  CB        -7.2240    8.2870  -19.4760 C.3    40  ARG40       0.0321
     42  CG        -5.9510    9.0520  -18.8890 C.3    40  ARG40       0.0489
     43  CD        -4.8430    9.3410  -19.9230 C.3    40  ARG40       0.2205
     44  NE        -5.4020    9.7390  -21.2240 N.pl3  40  ARG40      -0.0865
     45  CZ        -5.9280   10.9340  -21.4840 C.cat  40  ARG40       0.5346
     46  NH1       -5.9520   11.8660  -20.5260 N.pl3  40  ARG40       0.1354
     47  NH2       -6.4290   11.1990  -22.7000 N.pl3  40  ARG40       0.1354
     48  N         -9.8240    9.8810  -19.0090 N.am   41  HIS41      -0.1976
     49  CA       -10.5370   11.1610  -18.9200 C.3    41  HIS41       0.1656
     50  C        -11.3480   11.4310  -17.6310 C.2    41  HIS41       0.2291
     51  O        -12.0950   12.4310  -17.5330 O.2    41  HIS41      -0.2864
     52  CB       -11.4000   11.3440  -20.1570 C.3    41  HIS41       0.0771
     53  CG       -12.3780   10.2410  -20.3680 C.ar   41  HIS41       0.0820
     54  ND1      -13.6460   10.2590  -19.8230 N.ar   41  HIS41      -0.2267
     55  CD2      -12.2740    9.0780  -21.0590 C.ar   41  HIS41       0.1154
     56  CE1      -14.2890    9.1630  -20.1880 C.ar   41  HIS41       0.1986
     57  NE2      -13.4840    8.4370  -20.9540 N.ar   41  HIS41      -0.2212
     58  N         -5.9690    4.7120  -22.7190 N.3    72  GLU72      -0.1245
     59  CA        -7.1050    5.4670  -22.1850 C.3    72  GLU72       0.1567
     60  C         -7.5680    4.9400  -20.8510 C.2    72  GLU72       0.2260
     61  O         -8.7580    4.8450  -20.6270 O.2    72  GLU72      -0.2867
     62  CB        -8.2670    5.4300  -23.1600 C.3    72  GLU72       0.0388
     63  CG        -9.4950    6.2610  -22.7260 C.3    72  GLU72       0.1160
     64  CD        -9.2610    7.7260  -22.9050 C.2    72  GLU72       0.3649
     65  OE1       -8.9760    8.1310  -24.0400 O.co2  72  GLU72      -0.2457
     66  OE2       -9.3390    8.4700  -21.9100 O.co2  72  GLU72      -0.2457
     67  N         -9.5430    8.8040  -30.7570 N.3   128  LEU128     -0.1231
     68  CA       -10.4720    9.0280  -29.6410 C.3   128  LEU128      0.1693
     69  C        -10.6150   10.5020  -29.2390 C.2   128  LEU128      0.2592
     70  O        -10.0510   10.9630  -28.2160 O.2   128  LEU128     -0.2718
     71  CB       -10.1030    8.1600  -28.4300 C.3   128  LEU128      0.0284
     72  CG       -11.1800    7.5270  -27.5350 C.3   128  LEU128      0.0019
     73  CD1      -10.5000    6.7980  -26.3910 C.3   128  LEU128      0.0001
     74  CD2      -12.1680    8.5490  -26.9900 C.3   128  LEU128      0.0001
     75  N        -11.4200   11.2090  -30.0440 N.am  129  GLY129     -0.1957
     76  CA       -11.6050   12.6540  -29.9330 C.3   129  GLY129      0.1869
     77  C        -10.2500   13.3290  -30.0460 C.2   129  GLY129      0.2309
     78  O         -9.7410   13.8970  -29.0600 O.2   129  GLY129     -0.2863
     79  N        -24.7330    4.6320  -27.3580 N.3   143  THR143     -0.1203
     80  CA       -24.2570    5.0040  -26.0210 C.3   143  THR143      0.1994
     81  C        -24.5240    6.4740  -25.7290 C.2   143  THR143      0.2618
     82  O        -24.7880    7.2490  -26.6480 O.2   143  THR143     -0.2717
     83  CB       -22.7590    4.6250  -25.7750 C.3   143  THR143      0.1784
     84  OG1      -22.0000    4.7920  -26.9940 O.3   143  THR143     -0.2211
     85  CG2      -22.6540    3.1740  -25.2500 C.3   143  THR143      0.0376
     86  N        -24.5160    6.8270  -24.4390 N.am  144  ARG144     -0.1965
     87  CA       -24.7750    8.2010  -23.9600 C.3   144  ARG144      0.1729
     88  C        -23.7430    8.6080  -22.8980 C.2   144  ARG144      0.2616
     89  O        -23.1800    7.7460  -22.1950 O.2   144  ARG144     -0.2715
     90  CB       -26.2070    8.3260  -23.3980 C.3   144  ARG144      0.0348
     91  CG       -27.2710    8.9210  -24.3460 C.3   144  ARG144      0.0492
     92  CD       -27.6700    7.9170  -25.4450 C.3   144  ARG144      0.2205
     93  NE       -29.0890    7.9500  -25.8410 N.pl3 144  ARG144     -0.0865
     94  CZ       -29.5540    7.5980  -27.0450 C.cat 144  ARG144      0.5346
     95  NH1      -28.7130    7.2000  -27.9960 N.pl3 144  ARG144      0.1354
     96  NH2      -30.8630    7.6500  -27.3120 N.pl3 144  ARG144      0.1354
     97  N        -23.4890    9.9150  -22.7980 N.am  145  ALA145     -0.1963
     98  CA       -22.6280   10.4690  -21.7710 C.3   145  ALA145      0.1728
     99  C        -23.1620   10.0550  -20.3960 C.2   145  ALA145      0.2617
    100  O        -24.3450    9.7730  -20.2670 O.2   145  ALA145     -0.2715
    101  CB       -22.5840   11.9650  -21.8960 C.3   145  ALA145      0.0334
    102  N        -22.2980   10.0170  -19.3790 N.am  146  GLY146     -0.1940
    103  CA       -22.6510    9.4670  -18.0510 C.3   146  GLY146      0.2014
    104  C        -22.2660    7.9910  -17.9200 C.2   146  GLY146      0.2639
    105  O        -22.1400    7.4660  -16.8170 O.2   146  GLY146     -0.2714
    106  N        -22.0410    7.3420  -19.0650 N.am  147  GLN147     -0.1963
    107  CA       -21.7050    5.9250  -19.1350 C.3   147  GLN147      0.1733
    108  C        -20.1990    5.4980  -19.0180 C.2   147  GLN147      0.2616
    109  O        -19.8890    4.2980  -18.8600 O.2   147  GLN147     -0.2715
    110  CB       -22.3760    5.3310  -20.3600 C.3   147  GLN147      0.0408
    111  CG       -23.9080    5.3930  -20.2430 C.3   147  GLN147      0.0908
    112  CD       -24.5730    5.1370  -21.5540 C.2   147  GLN147      0.2608
    113  OE1      -23.9450    5.2890  -22.5800 O.2   147  GLN147     -0.2717
    114  NE2      -25.8570    4.7670  -21.5390 N.am  147  GLN147     -0.0878
    115  N        -19.2720    6.4530  -19.0440 N.am  148  CYS148     -0.1968
    116  CA       -17.8610    6.1160  -18.9740 C.3   148  CYS148      0.1712
    117  C        -17.3740    5.5190  -17.6750 C.2   148  CYS148      0.2296
    118  O        -17.7360    5.9340  -16.5880 O.2   148  CYS148     -0.2864
    119  CB       -16.9850    7.3160  -19.3630 C.3   148  CYS148      0.0983
    120  SG       -16.9150    7.4190  -21.1270 S.3   148  CYS148     -0.0798
    121  N        -15.6150    1.0840  -20.3900 N.3   162  HIS162     -0.1226
    122  CA       -16.1980    1.8960  -21.4590 C.3   162  HIS162      0.1752
    123  C        -15.5880    3.3120  -21.4890 C.2   162  HIS162      0.2596
    124  O        -15.6090    3.9890  -20.4820 O.2   162  HIS162     -0.2718
    125  CB       -17.6860    2.0260  -21.2510 C.3   162  HIS162      0.0759
    126  CG       -18.3330    2.9120  -22.2540 C.ar  162  HIS162      0.0818
    127  ND1      -18.6520    2.4910  -23.5240 N.ar  162  HIS162     -0.2268
    128  CD2      -18.6820    4.2160  -22.1920 C.ar  162  HIS162      0.1154
    129  CE1      -19.2050    3.4890  -24.1910 C.ar  162  HIS162      0.1986
    130  NE2      -19.2480    4.5410  -23.3940 N.ar  162  HIS162     -0.2212
    131  N        -15.0790    3.7540  -22.6460 N.am  163  VAL163     -0.1966
    132  CA       -14.3450    5.0230  -22.7040 C.3   163  VAL163      0.1727
    133  C        -14.8700    6.0310  -23.7140 C.2   163  VAL163      0.2617
    134  O        -14.6880    7.2370  -23.5580 O.2   163  VAL163     -0.2715
    135  CB       -12.8280    4.8260  -22.9900 C.3   163  VAL163      0.0290
    136  CG1      -12.1950    4.0520  -21.8750 C.3   163  VAL163      0.0023
    137  CG2      -12.5900    4.1580  -24.3290 C.3   163  VAL163      0.0023
    138  N        -15.5100    5.5550  -24.7570 N.am  164  GLY164     -0.1940
    139  CA       -15.8300    6.4360  -25.8530 C.3   164  GLY164      0.2014
    140  C        -17.1040    6.0480  -26.5090 C.2   164  GLY164      0.2639
    141  O        -17.6390    4.9900  -26.2420 O.2   164  GLY164     -0.2714
    142  N        -17.5950    6.9190  -27.3850 N.am  165  GLY165     -0.1939
    143  CA       -18.8270    6.6690  -28.1060 C.3   165  GLY165      0.2014
    144  C        -19.1220    7.7830  -29.0920 C.2   165  GLY165      0.2639
    145  O        -18.6480    8.9310  -28.9520 O.2   165  GLY165     -0.2714
    146  N        -19.8930    7.3980  -30.1060 N.am  166  ASN166     -0.1958
    147  CA       -20.5760    8.2910  -31.0330 C.3   166  ASN166      0.1819
    148  C        -21.8720    7.5660  -31.4580 C.2   166  ASN166      0.2621
    149  O        -21.8280    6.4140  -31.9260 O.2   166  ASN166     -0.2715
    150  CB       -19.6610    8.5870  -32.2300 C.3   166  ASN166      0.1195
    151  CG       -19.1600    7.3210  -32.9240 C.2   166  ASN166      0.2630
    152  OD1      -19.9550    6.5230  -33.4170 O.2   166  ASN166     -0.2716
    153  ND2      -17.8330    7.1410  -32.9790 N.am  166  ASN166     -0.0877
    154  N        -23.0170    8.1920  -31.2030 N.am  167  GLY167     -0.1954
    155  CA       -24.2980    7.7660  -31.7690 C.3   167  GLY167      0.1869
    156  C        -24.7970    6.3450  -31.5760 C.2   167  GLY167      0.2309
    157  O        -25.6820    6.1040  -30.7270 O.2   167  GLY167     -0.2863
@<TRIPOS>BOND
     1   152   151    2
     2   153   151   am
     3   151   150    1
     4   150   147    1
     5   149   148    2
     6   155   156    1
     7   155   154    1
     8   156   157    2
     9   148   154   am
    10   148   147    1
    11   147   146    1
    12    67    68    1
    13   146   144   am
    14    77    76    1
    15    77    78    2
    16    75    76    1
    17    75    69   am
    18    68    69    1
    19    68    71    1
    20    69    70    2
    21   144   145    2
    22   144   143    1
    23    71    72    1
    24   143   142    1
    25    95    94    1
    26    72    74    1
    27    72    73    1
    28   142   140   am
    29    79    80    1
    30    96    94    1
    31    94    93    2
    32    84    83    1
    33    82    81    2
    34   140   141    2
    35   140   139    1
    36    80    83    1
    37    80    81    1
    38   139   138    1
    39    93    92    1
    40    83    85    1
    41    81    86   am
    42    92    91    1
    43   138   133   am
    44    86    87    1
    45    91    90    1
    46   137   135    1
    47   129   127   ar
    48   129   130   ar
    49    65    64   ar
    50    87    90    1
    51    87    88    1
    52   133   134    2
    53   133   132    1
    54   127   126   ar
    55   130   128   ar
    56    62    63    1
    57    62    59    1
    58   135   132    1
    59   135   136    1
    60    64    63    1
    61    64    66   ar
    62    88    97   am
    63    88    89    2
    64    97    98    1
    65    58    59    1
    66   132   131    1
    67    47    45    1
    68   131   123   am
    69   113   112    2
    70   126   128   ar
    71   126   125    1
    72    59    60    1
    73   101    98    1
    74    98    99    1
    75   112   114   am
    76   112   111    1
    77   123   122    1
    78   123   124    2
    79    45    44    2
    80    45    46    1
    81   122   125    1
    82   122   121    1
    83    44    43    1
    84   120   119    1
    85    55    57   ar
    86    55    53   ar
    87    57    56   ar
    88    60    61    2
    89    99   100    2
    90    99   102   am
    91    53    52    1
    92    53    54   ar
    93   110   111    1
    94   110   107    1
    95    56    54   ar
    96    52    49    1
    97    43    42    1
    98    41    42    1
    99    41    38    1
   100   102   103    1
   101   119   116    1
   102   107   106    1
   103   107   108    1
   104   106   104   am
   105   115   108   am
   106   115   116    1
   107   108   109    2
   108    48    49    1
   109    48    39   am
   110   116   117    1
   111    49    50    1
   112    37    38    1
   113    38    39    1
   114    39    40    2
   115   103   104    1
   116   104   105    2
   117   117   118    2
   118    50    51    2
   119    10     8   ar
   120    10    11   ar
   121     8     6   ar
   122    34    36   ar
   123    34    32   ar
   124    12    11    1
   125    36    35   ar
   126    11     9   ar
   127    32    31   ar
   128     4     3    2
   129     6     5    1
   130     6     7   ar
   131     5     2    1
   132     9     7   ar
   133    35    33   ar
   134     3     2    1
   135     3    13   am
   136    31    33   ar
   137    31    30    1
   138     2     1    1
   139    20    19    2
   140    14    13    1
   141    14    15    1
   142    30    27    1
   143    27    28    1
   144    27    26    1
   145    19    26   am
   146    19    18    1
   147    17    15   am
   148    17    18    1
   149    15    16    2
   150    28    29    2
   151    18    21    1
   152    21    22    1
   153    24    23   ar
   154    22    23    1
   155    23    25   ar
