@<TRIPOS>MOLECULE
tmp/3zz6A00.pdb
 186 183 0 0 0
SMALL
GASTEIGER

@<TRIPOS>ATOM
      1  N        -13.8820   15.9970  -12.9580 N.3    23  TYR23      -0.1227
      2  CA       -14.1930   15.9020  -14.4060 C.3    23  TYR23       0.1736
      3  C        -15.5470   15.2410  -14.6870 C.2    23  TYR23       0.2596
      4  O        -16.0230   15.1860  -15.8160 O.2    23  TYR23      -0.2718
      5  CB       -13.0210   15.2730  -15.1780 C.3    23  TYR23       0.0548
      6  CG       -11.9550   16.3480  -15.4480 C.ar   23  TYR23      -0.0200
      7  CD1      -11.0040   16.7010  -14.4880 C.ar   23  TYR23      -0.0009
      8  CD2      -11.9740   17.0750  -16.6030 C.ar   23  TYR23      -0.0009
      9  CE1      -10.0910   17.7300  -14.7150 C.ar   23  TYR23       0.0417
     10  CE2      -11.0440   18.1380  -16.8220 C.ar   23  TYR23       0.0417
     11  CZ       -10.1030   18.4360  -15.8840 C.ar   23  TYR23       0.1957
     12  OH        -9.1740   19.5020  -16.1550 O.3    23  TYR23      -0.2866
     13  N        -16.1790   14.8100  -13.6170 N.am   24  GLY24      -0.1942
     14  CA       -17.4990   14.2010  -13.6960 C.3    24  GLY24       0.2014
     15  C        -17.6900   13.0270  -12.7530 C.2    24  GLY24       0.2639
     16  O        -16.8960   12.7590  -11.8530 O.2    24  GLY24      -0.2714
     17  N        -18.7790   12.3050  -13.0020 N.am   25  GLU25      -0.1963
     18  CA       -19.1210   11.1330  -12.2040 C.3    25  GLU25       0.1733
     19  C        -18.8300    9.8650  -12.9880 C.2    25  GLU25       0.2616
     20  O        -19.1650    9.7760  -14.1880 O.2    25  GLU25      -0.2715
     21  CB       -20.6150   11.1960  -11.8790 C.3    25  GLU25       0.0429
     22  CG       -20.9370   10.5970  -10.5440 C.3    25  GLU25       0.1163
     23  CD       -22.4320   10.3450  -10.3810 C.2    25  GLU25       0.3649
     24  OE1      -23.2520   10.5680  -11.3240 O.co2  25  GLU25      -0.2457
     25  OE2      -22.7620    9.8990   -9.2840 O.co2  25  GLU25      -0.2457
     26  N        -18.2410    8.8640  -12.3460 N.am   26  PHE26      -0.1974
     27  CA       -17.8560    7.6600  -13.1100 C.3    26  PHE26       0.1639
     28  C        -18.1430    6.3750  -12.3590 C.2    26  PHE26       0.2290
     29  O        -18.1070    6.3340  -11.1030 O.2    26  PHE26      -0.2864
     30  CB       -16.3370    7.6840  -13.5050 C.3    26  PHE26       0.0560
     31  CG       -15.9640    8.8010  -14.4810 C.ar   26  PHE26      -0.0200
     32  CD1      -16.1640    8.6600  -15.8640 C.ar   26  PHE26      -0.0042
     33  CD2      -15.5230    9.9980  -14.0120 C.ar   26  PHE26      -0.0042
     34  CE1      -15.8460    9.7070  -16.7550 C.ar   26  PHE26      -0.0003
     35  CE2      -15.1890   11.0400  -14.8780 C.ar   26  PHE26      -0.0003
     36  CZ       -15.3740   10.9140  -16.2540 C.ar   26  PHE26      -0.0000
     37  N         -9.0780    7.1830  -18.4940 N.3    40  ARG40      -0.1231
     38  CA        -8.0160    8.2130  -18.3460 C.3    40  ARG40       0.1694
     39  C         -8.6390    9.5690  -18.1710 C.2    40  ARG40       0.2592
     40  O         -8.3250   10.2540  -17.2070 O.2    40  ARG40      -0.2718
     41  CB        -7.0150    8.2570  -19.5270 C.3    40  ARG40       0.0321
     42  CG        -5.7100    9.0860  -19.2090 C.3    40  ARG40       0.0489
     43  CD        -4.9760    9.4810  -20.5080 C.3    40  ARG40       0.2205
     44  NE        -5.9190    9.9140  -21.5550 N.pl3  40  ARG40      -0.0865
     45  CZ        -6.5510   11.0930  -21.5650 C.cat  40  ARG40       0.5346
     46  NH1       -6.3480   11.9810  -20.5810 N.pl3  40  ARG40       0.1354
     47  NH2       -7.3930   11.3850  -22.5590 N.pl3  40  ARG40       0.1354
     48  N         -9.5550    9.8940  -19.0900 N.am   41  HIS41      -0.1976
     49  CA       -10.3120   11.1520  -19.0940 C.3    41  HIS41       0.1656
     50  C        -11.1150   11.5190  -17.8570 C.2    41  HIS41       0.2291
     51  O        -11.5310   12.6720  -17.7100 O.2    41  HIS41      -0.2864
     52  CB       -11.1770   11.2470  -20.3490 C.3    41  HIS41       0.0771
     53  CG       -12.3290   10.3110  -20.3460 C.ar   41  HIS41       0.0820
     54  ND1      -12.3350    9.1310  -21.0630 N.ar   41  HIS41      -0.2267
     55  CD2      -13.5220   10.3770  -19.7110 C.ar   41  HIS41       0.1154
     56  CE1      -13.4940    8.5210  -20.8860 C.ar   41  HIS41       0.1986
     57  NE2      -14.2290    9.2550  -20.0630 N.ar   41  HIS41      -0.2212
     58  N         -5.7980    4.8840  -22.5880 N.3    72  GLU72      -0.1245
     59  CA        -6.9950    5.5660  -22.0640 C.3    72  GLU72       0.1567
     60  C         -7.4950    5.0130  -20.7490 C.2    72  GLU72       0.2260
     61  O         -8.6750    5.1170  -20.4480 O.2    72  GLU72      -0.2867
     62  CB        -8.1550    5.4990  -23.0650 C.3    72  GLU72       0.0388
     63  CG        -9.3510    6.4170  -22.7200 C.3    72  GLU72       0.1160
     64  CD        -8.9770    7.9020  -22.7010 C.2    72  GLU72       0.3649
     65  OE1       -8.0690    8.3000  -23.4810 O.co2  72  GLU72      -0.2457
     66  OE2       -9.5970    8.6640  -21.9080 O.co2  72  GLU72      -0.2457
     67  N         -7.9360    3.5980  -32.9440 N.3   126  LEU126     -0.1231
     68  CA        -8.9590    4.6180  -33.0030 C.3   126  LEU126      0.1693
     69  C         -8.4410    5.9840  -32.5340 C.2   126  LEU126      0.2592
     70  O         -7.7810    6.1290  -31.4910 O.2   126  LEU126     -0.2718
     71  CB       -10.2100    4.2000  -32.2130 C.3   126  LEU126      0.0284
     72  CG       -11.4280    5.1060  -32.4330 C.3   126  LEU126      0.0019
     73  CD1      -12.0370    4.8310  -33.8430 C.3   126  LEU126      0.0001
     74  CD2      -12.4530    4.9100  -31.3100 C.3   126  LEU126      0.0001
     75  N         -8.7540    6.9730  -33.3560 N.am  127  ASN127     -0.1960
     76  CA        -8.4800    8.3510  -33.0590 C.3   127  ASN127      0.1819
     77  C         -9.6230    8.8590  -32.1990 C.2   127  ASN127      0.2621
     78  O        -10.6380    9.3200  -32.7270 O.2   127  ASN127     -0.2715
     79  CB        -8.4060    9.1320  -34.3710 C.3   127  ASN127      0.1195
     80  CG        -8.0920   10.5810  -34.1620 C.2   127  ASN127      0.2630
     81  OD1       -8.2210   11.1120  -33.0540 O.2   127  ASN127     -0.2716
     82  ND2       -7.6530   11.2390  -35.2210 N.am  127  ASN127     -0.0877
     83  N         -9.4540    8.7760  -30.8820 N.am  128  LEU128     -0.1963
     84  CA       -10.5420    9.0660  -29.9380 C.3   128  LEU128      0.1728
     85  C        -10.5800   10.5100  -29.4530 C.2   128  LEU128      0.2617
     86  O         -9.7470   10.9230  -28.6190 O.2   128  LEU128     -0.2715
     87  CB       -10.5430    8.1030  -28.7290 C.3   128  LEU128      0.0311
     88  CG       -11.5010    8.5080  -27.5840 C.3   128  LEU128      0.0022
     89  CD1      -12.9450    8.0580  -27.8370 C.3   128  LEU128      0.0001
     90  CD2      -11.0040    8.0430  -26.2180 C.3   128  LEU128      0.0001
     91  N        -11.5790   11.2480  -29.9540 N.am  129  GLY129     -0.1940
     92  CA       -11.7610   12.6590  -29.6130 C.3   129  GLY129      0.2014
     93  C        -10.4200   13.3330  -29.7890 C.2   129  GLY129      0.2639
     94  O         -9.8530   13.9040  -28.8380 O.2   129  GLY129     -0.2714
     95  N         -9.8910   13.1960  -31.0030 N.am  130  GLY130     -0.1939
     96  CA        -8.5750   13.7420  -31.3570 C.3   130  GLY130      0.2014
     97  C         -7.3610   12.9490  -30.8940 C.2   130  GLY130      0.2639
     98  O         -6.2670   13.1780  -31.3970 O.2   130  GLY130     -0.2714
     99  N         -7.5440   12.0180  -29.9510 N.am  131  THR131     -0.1950
    100  CA        -6.4100   11.3110  -29.3290 C.3   131  THR131      0.1897
    101  C         -6.1160    9.9270  -29.9510 C.2   131  THR131      0.2313
    102  O         -7.0150    9.0740  -30.0630 O.2   131  THR131     -0.2863
    103  CB        -6.5430   11.2410  -27.7800 C.3   131  THR131      0.1794
    104  OG1       -6.8420   12.5510  -27.2670 O.3   131  THR131     -0.2208
    105  CG2       -5.2650   10.7520  -27.1430 C.3   131  THR131      0.0378
    106  N        -24.4260    4.4520  -27.3800 N.3   143  THR143     -0.1203
    107  CA       -24.0180    4.8760  -26.0300 C.3   143  THR143      0.1994
    108  C        -24.2350    6.3700  -25.7700 C.2   143  THR143      0.2618
    109  O        -24.5760    7.1140  -26.6880 O.2   143  THR143     -0.2717
    110  CB       -22.5880    4.4010  -25.6680 C.3   143  THR143      0.1784
    111  OG1      -21.8060    4.3250  -26.8670 O.3   143  THR143     -0.2211
    112  CG2      -22.6300    3.0160  -24.9620 C.3   143  THR143      0.0376
    113  N        -24.0850    6.7730  -24.5000 N.am  144  ARG144     -0.1965
    114  CA       -24.2920    8.1660  -24.0200 C.3   144  ARG144      0.1729
    115  C        -23.2350    8.6500  -22.9870 C.2   144  ARG144      0.2616
    116  O        -22.5230    7.8390  -22.3340 O.2   144  ARG144     -0.2715
    117  CB       -25.7060    8.3190  -23.4040 C.3   144  ARG144      0.0348
    118  CG       -26.7500    8.9960  -24.2900 C.3   144  ARG144      0.0492
    119  CD       -27.1780    8.1150  -25.4590 C.3   144  ARG144      0.2205
    120  NE       -28.5690    8.3470  -25.8530 N.pl3 144  ARG144     -0.0865
    121  CZ       -29.1690    7.8000  -26.9160 C.cat 144  ARG144      0.5346
    122  NH1      -28.5080    6.9820  -27.7250 N.pl3 144  ARG144      0.1354
    123  NH2      -30.4430    8.0720  -27.1760 N.pl3 144  ARG144      0.1354
    124  N        -23.1500    9.9660  -22.8110 N.am  145  ALA145     -0.1963
    125  CA       -22.2840   10.5070  -21.7850 C.3   145  ALA145      0.1728
    126  C        -22.7980   10.0520  -20.4110 C.2   145  ALA145      0.2616
    127  O        -23.9720    9.6890  -20.2800 O.2   145  ALA145     -0.2715
    128  CB       -22.2450   11.9860  -21.8910 C.3   145  ALA145      0.0334
    129  N        -21.9170   10.0540  -19.3980 N.am  146  GLY146     -0.1955
    130  CA       -22.2500    9.5640  -18.0370 C.3   146  GLY146      0.1869
    131  C        -22.0580    8.0580  -17.8770 C.2   146  GLY146      0.2309
    132  O        -22.1450    7.5060  -16.7440 O.2   146  GLY146     -0.2863
    133  N        -19.1070    6.5250  -18.8650 N.3   148  CYS148     -0.1235
    134  CA       -17.6820    6.1750  -18.7930 C.3   148  CYS148      0.1677
    135  C        -17.2500    5.5850  -17.4780 C.2   148  CYS148      0.2270
    136  O        -17.6850    5.9950  -16.4100 O.2   148  CYS148     -0.2867
    137  CB       -16.7430    7.3120  -19.2830 C.3   148  CYS148      0.0956
    138  SG       -17.1140    7.6290  -21.0470 S.3   148  CYS148     -0.0801
    139  N        -15.5140    1.1180  -20.3080 N.3   162  HIS162     -0.1226
    140  CA       -16.1160    2.0010  -21.3130 C.3   162  HIS162      0.1752
    141  C        -15.4740    3.4090  -21.3360 C.2   162  HIS162      0.2596
    142  O        -15.3480    4.0580  -20.2890 O.2   162  HIS162     -0.2718
    143  CB       -17.6560    2.1240  -21.1420 C.3   162  HIS162      0.0759
    144  CG       -18.2840    2.9680  -22.2110 C.ar  162  HIS162      0.0818
    145  ND1      -18.6080    2.4670  -23.4610 N.ar  162  HIS162     -0.2268
    146  CD2      -18.5780    4.2900  -22.2430 C.ar  162  HIS162      0.1154
    147  CE1      -19.1140    3.4410  -24.2020 C.ar  162  HIS162      0.1986
    148  NE2      -19.0900    4.5600  -23.4950 N.ar  162  HIS162     -0.2212
    149  N        -15.0910    3.8680  -22.5420 N.am  163  VAL163     -0.1965
    150  CA       -14.3860    5.1540  -22.6580 C.3   163  VAL163      0.1730
    151  C        -14.8930    6.1640  -23.6840 C.2   163  VAL163      0.2656
    152  O        -14.4870    7.3560  -23.6230 O.2   163  VAL163     -0.2711
    153  CB       -12.8720    4.9510  -22.8330 C.3   163  VAL163      0.0290
    154  CG1      -12.3590    4.2210  -21.6330 C.3   163  VAL163      0.0023
    155  CG2      -12.5850    4.1470  -24.1160 C.3   163  VAL163      0.0023
    156  N        -15.7330    5.6910  -24.6250 N.am  164  GLY164     -0.1716
    157  CA       -16.4010    6.5610  -25.5460 C.2   164  GLY164      0.1480
    158  C        -17.3580    5.9220  -26.5480 C.2   164  GLY164      0.2821
    159  O        -17.5910    4.7170  -26.5670 O.2   164  GLY164     -0.2669
    160  N        -17.9220    6.7740  -27.4030 N.am  165  GLY165     -0.1905
    161  CA       -18.8230    6.3220  -28.4710 C.3   165  GLY165      0.2017
    162  C        -19.3570    7.5130  -29.2340 C.2   165  GLY165      0.2639
    163  O        -19.0740    8.6750  -28.9050 O.2   165  GLY165     -0.2714
    164  N        -20.1310    7.2150  -30.2700 N.am  166  ASN166     -0.1958
    165  CA       -20.7530    8.2630  -31.0520 C.3   166  ASN166      0.1819
    166  C        -22.0300    7.7510  -31.6780 C.2   166  ASN166      0.2621
    167  O        -22.0310    7.0530  -32.7090 O.2   166  ASN166     -0.2715
    168  CB       -19.7800    8.7770  -32.0990 C.3   166  ASN166      0.1195
    169  CG       -18.8900    7.6790  -32.6550 C.2   166  ASN166      0.2630
    170  OD1      -19.3450    6.7610  -33.3370 O.2   166  ASN166     -0.2716
    171  ND2      -17.6090    7.7670  -32.3530 N.am  166  ASN166     -0.0877
    172  N        -23.1220    8.0680  -31.0050 N.am  167  GLY167     -0.1954
    173  CA       -24.4470    7.7100  -31.4570 C.3   167  GLY167      0.1869
    174  C        -24.8180    6.2390  -31.4440 C.2   167  GLY167      0.2309
    175  O        -25.7580    5.8530  -30.7400 O.2   167  GLY167     -0.2863
    176  N        -17.1210    2.2040  -27.3210 N.3   171  PHE171     -0.1241
    177  CA       -15.7480    1.6950  -27.2710 C.3   171  PHE171      0.1605
    178  C        -15.2040    1.5850  -25.8480 C.2   171  PHE171      0.2264
    179  O        -15.2910    2.5400  -25.0730 O.2   171  PHE171     -0.2867
    180  CB       -14.8060    2.6490  -27.9860 C.3   171  PHE171      0.0534
    181  CG       -15.0660    2.7720  -29.4430 C.ar  171  PHE171     -0.0203
    182  CD1      -14.4590    1.9160  -30.3420 C.ar  171  PHE171     -0.0042
    183  CD2      -15.9150    3.7500  -29.9180 C.ar  171  PHE171     -0.0042
    184  CE1      -14.6940    2.0440  -31.7060 C.ar  171  PHE171     -0.0003
    185  CE2      -16.1810    3.8700  -31.2920 C.ar  171  PHE171     -0.0003
    186  CZ       -15.5560    3.0190  -32.1770 C.ar  171  PHE171     -0.0000
@<TRIPOS>BOND
     1    82    80   am
     2    79    80    1
     3    79    76    1
     4    80    81    2
     5    73    72    1
     6    75    76    1
     7    75    69   am
     8   170   169    2
     9    76    77    1
    10    68    67    1
    11    68    69    1
    12    68    71    1
    13    78    77    2
    14   167   166    2
    15   169   171   am
    16   169   168    1
    17    69    70    2
    18    72    71    1
    19    72    74    1
    20    77    83   am
    21   186   184   ar
    22   186   185   ar
    23   168   165    1
    24   184   182   ar
    25   166   165    1
    26   166   172   am
    27   173   174    1
    28   173   172    1
    29   174   175    2
    30    98    97    2
    31    96    95    1
    32    96    97    1
    33   185   183   ar
    34   165   164    1
    35    95    93   am
    36    97    99   am
    37    83    84    1
    38   182   181   ar
    39   164   162   am
    40   102   101    2
    41    91    92    1
    42    91    85   am
    43   101   100    1
    44    99   100    1
    45    84    85    1
    46    84    87    1
    47   183   181   ar
    48    93    92    1
    49    93    94    2
    50    85    86    2
    51   181   180    1
    52   100   103    1
    53   162   163    2
    54   162   161    1
    55    87    88    1
    56   161   160    1
    57   180   177    1
    58    89    88    1
    59   103   104    1
    60   103   105    1
    61   122   121    1
    62    88    90    1
    63   160   158   am
    64   106   107    1
    65   176   177    1
    66   177   178    1
    67   123   121    1
    68   121   120    2
    69   111   110    1
    70   109   108    2
    71   159   158    2
    72   158   157    1
    73   107   108    1
    74   107   110    1
    75   120   119    1
    76   178   179    2
    77   108   113   am
    78   110   112    1
    79   157   156    2
    80   119   118    1
    81   156   151    1
    82   113   114    1
    83   118   117    1
    84   147   148   ar
    85   147   145   ar
    86   155   153    1
    87   114   117    1
    88   114   115    1
    89   151   152    2
    90   151   150    1
    91   148   146   ar
    92    65    64   ar
    93   145   144   ar
    94    62    63    1
    95    62    59    1
    96   115   124   am
    97   115   116    2
    98   153   150    1
    99   153   154    1
   100   124   125    1
   101    63    64    1
   102    64    66   ar
   103   150   149    1
   104    58    59    1
   105    47    45    1
   106   149   141   am
   107   146   144   ar
   108   144   143    1
   109    59    60    1
   110   128   125    1
   111   125   126    1
   112    45    44    2
   113    45    46    1
   114    44    43    1
   115   141   140    1
   116   141   142    2
   117   140   143    1
   118   140   139    1
   119    54    56   ar
   120    54    53   ar
   121   138   137    1
   122    56    57   ar
   123    60    61    2
   124    43    42    1
   125   126   127    2
   126   126   129   am
   127    52    53    1
   128    52    49    1
   129    53    55   ar
   130    57    55   ar
   131    41    42    1
   132    41    38    1
   133   129   130    1
   134   137   134    1
   135    49    48    1
   136    49    50    1
   137    48    39   am
   138   133   134    1
   139   134   135    1
   140    37    38    1
   141    38    39    1
   142    39    40    2
   143   130   131    1
   144   131   132    2
   145    50    51    2
   146   135   136    2
   147    10     8   ar
   148    10    11   ar
   149    34    36   ar
   150    34    32   ar
   151     8     6   ar
   152    36    35   ar
   153    12    11    1
   154    11     9   ar
   155    32    31   ar
   156     4     3    2
   157     6     5    1
   158     6     7   ar
   159     5     2    1
   160    35    33   ar
   161     9     7   ar
   162     3     2    1
   163     3    13   am
   164    31    33   ar
   165    31    30    1
   166     2     1    1
   167    20    19    2
   168    14    13    1
   169    14    15    1
   170    30    27    1
   171    27    28    1
   172    27    26    1
   173    17    15   am
   174    17    18    1
   175    19    26   am
   176    19    18    1
   177    15    16    2
   178    28    29    2
   179    18    21    1
   180    21    22    1
   181    24    23   ar
   182    22    23    1
   183    23    25   ar
