@<TRIPOS>MOLECULE
tmp/3zz7A00.pdb
 182 178 0 0 0
SMALL
GASTEIGER

@<TRIPOS>ATOM
      1  N         14.0450   16.1080   13.0350 N.3    23  TYR23      -0.1227
      2  CA        14.4380   15.9740   14.4320 C.3    23  TYR23       0.1736
      3  C         15.7500   15.1750   14.6130 C.2    23  TYR23       0.2596
      4  O         16.2640   15.1030   15.7000 O.2    23  TYR23      -0.2718
      5  CB        13.2720   15.3590   15.2210 C.3    23  TYR23       0.0548
      6  CG        12.1870   16.4270   15.4110 C.ar   23  TYR23      -0.0200
      7  CD1       11.2400   16.6730   14.4340 C.ar   23  TYR23      -0.0009
      8  CD2       12.1940   17.2360   16.5480 C.ar   23  TYR23      -0.0009
      9  CE1       10.2590   17.7000   14.6040 C.ar   23  TYR23       0.0417
     10  CE2       11.2270   18.2370   16.7320 C.ar   23  TYR23       0.0417
     11  CZ        10.3110   18.5000   15.7510 C.ar   23  TYR23       0.1957
     12  OH         9.3910   19.5390   15.9790 O.3    23  TYR23      -0.2866
     13  N         16.3010   14.6420   13.5290 N.am   24  GLY24      -0.1942
     14  CA        17.6110   14.0010   13.6340 C.3    24  GLY24       0.2014
     15  C         17.8390   12.8980   12.6470 C.2    24  GLY24       0.2639
     16  O         17.0490   12.6990   11.7390 O.2    24  GLY24      -0.2714
     17  N         18.9120   12.1500   12.9050 N.am   25  GLU25      -0.1963
     18  CA        19.2970   11.0100   12.0940 C.3    25  GLU25       0.1733
     19  C         19.0550    9.7890   12.9370 C.2    25  GLU25       0.2616
     20  O         19.3490    9.7750   14.1520 O.2    25  GLU25      -0.2715
     21  CB        20.7820   11.1080   11.7370 C.3    25  GLU25       0.0429
     22  CG        21.3310    9.9420   10.9480 C.3    25  GLU25       0.1163
     23  CD        22.7170   10.2580   10.3440 C.2    25  GLU25       0.3649
     24  OE1       23.5290   10.9890   10.9530 O.co2  25  GLU25      -0.2457
     25  OE2       22.9780    9.7530    9.2430 O.co2  25  GLU25      -0.2457
     26  N         18.4170    8.8020   12.3360 N.am   26  PHE26      -0.1974
     27  CA        18.0590    7.6420   13.1090 C.3    26  PHE26       0.1639
     28  C         18.4030    6.3640   12.3480 C.2    26  PHE26       0.2290
     29  O         18.4080    6.3090   11.0930 O.2    26  PHE26      -0.2864
     30  CB        16.5520    7.6580   13.3830 C.3    26  PHE26       0.0560
     31  CG        16.1030    8.8250   14.2560 C.ar   26  PHE26      -0.0200
     32  CD1       15.8090   10.0520   13.6830 C.ar   26  PHE26      -0.0042
     33  CD2       16.0380    8.6890   15.6340 C.ar   26  PHE26      -0.0042
     34  CE1       15.4150   11.1340   14.4890 C.ar   26  PHE26      -0.0003
     35  CE2       15.6570    9.7400   16.4400 C.ar   26  PHE26      -0.0003
     36  CZ        15.3450   10.9660   15.8650 C.ar   26  PHE26      -0.0000
     37  N          9.4730    7.2440   18.6260 N.3    40  ARG40      -0.1231
     38  CA         8.4280    8.2520   18.4540 C.3    40  ARG40       0.1694
     39  C          9.0340    9.6140   18.2220 C.2    40  ARG40       0.2592
     40  O          8.6400   10.3380   17.2930 O.2    40  ARG40      -0.2718
     41  CB         7.4230    8.3000   19.6090 C.3    40  ARG40       0.0321
     42  CG         6.1280    9.1690   19.2130 C.3    40  ARG40       0.0489
     43  CD         5.2440    9.5520   20.4160 C.3    40  ARG40       0.2205
     44  NE         6.0780    9.8230   21.5970 N.pl3  40  ARG40      -0.0865
     45  CZ         6.9100   10.8640   21.7070 C.cat  40  ARG40       0.5346
     46  NH1        7.0190   11.7470   20.7040 N.pl3  40  ARG40       0.1354
     47  NH2        7.6430   11.0220   22.8070 N.pl3  40  ARG40       0.1354
     48  N         10.0050    9.9250   19.0500 N.am   41  HIS41      -0.1976
     49  CA        10.6340   11.2370   19.0620 C.3    41  HIS41       0.1656
     50  C         11.3720   11.5930   17.7990 C.2    41  HIS41       0.2291
     51  O         11.8260   12.7450   17.6600 O.2    41  HIS41      -0.2864
     52  CB        11.5560   11.3750   20.2630 C.3    41  HIS41       0.0771
     53  CG        12.6380   10.3460   20.3030 C.ar   41  HIS41       0.0820
     54  ND1       12.5920    9.2390   21.1310 N.ar   41  HIS41      -0.2267
     55  CD2       13.8020   10.2520   19.6090 C.ar   41  HIS41       0.1154
     56  CE1       13.6840    8.5150   20.9600 C.ar   41  HIS41       0.1986
     57  NE2       14.4340    9.1100   20.0430 N.ar   41  HIS41      -0.2212
     58  N          6.2030    4.8480   22.4650 N.3    72  GLU72      -0.1245
     59  CA         7.4480    5.5050   21.9730 C.3    72  GLU72       0.1567
     60  C          7.9450    4.9260   20.6650 C.2    72  GLU72       0.2260
     61  O          9.1330    4.9130   20.3860 O.2    72  GLU72      -0.2867
     62  CB         8.5780    5.4680   23.0190 C.3    72  GLU72       0.0388
     63  CG         9.8010    6.3810   22.6720 C.3    72  GLU72       0.1160
     64  CD         9.4430    7.8620   22.5900 C.2    72  GLU72       0.3649
     65  OE1        8.5550    8.3150   23.3840 O.co2  72  GLU72      -0.2457
     66  OE2       10.0350    8.5560   21.7220 O.co2  72  GLU72      -0.2457
     67  N          8.2190    3.5520   32.7280 N.3   126  LEU126     -0.1231
     68  CA         9.2670    4.5380   32.8760 C.3   126  LEU126      0.1693
     69  C          8.8260    5.9380   32.4540 C.2   126  LEU126      0.2592
     70  O          8.2510    6.1490   31.3710 O.2   126  LEU126     -0.2718
     71  CB        10.5130    4.1350   32.1010 C.3   126  LEU126      0.0284
     72  CG        11.6360    5.1770   32.0360 C.3   126  LEU126      0.0019
     73  CD1       12.4540    5.1920   33.3750 C.3   126  LEU126      0.0001
     74  CD2       12.5280    4.8710   30.8380 C.3   126  LEU126      0.0001
     75  N          9.1160    6.8900   33.3430 N.am  127  ASN127     -0.1960
     76  CA         8.8910    8.2870   33.0320 C.3   127  ASN127      0.1819
     77  C         10.0340    8.7770   32.1320 C.2   127  ASN127      0.2621
     78  O         11.1690    9.0020   32.5990 O.2   127  ASN127     -0.2715
     79  CB         8.7150    9.1380   34.3090 C.3   127  ASN127      0.1195
     80  CG         8.1990   10.5320   34.0030 C.2   127  ASN127      0.2630
     81  OD1        8.4840   11.0820   32.9380 O.2   127  ASN127     -0.2716
     82  ND2        7.4270   11.1140   34.9330 N.am  127  ASN127     -0.0877
     83  N          9.7290    8.9190   30.8390 N.am  128  LEU128     -0.1963
     84  CA        10.7390    9.2120   29.8290 C.3   128  LEU128      0.1728
     85  C         10.6500   10.6500   29.3680 C.2   128  LEU128      0.2616
     86  O          9.8470   10.9780   28.4850 O.2   128  LEU128     -0.2715
     87  CB        10.5850    8.2630   28.6290 C.3   128  LEU128      0.0311
     88  CG        11.6870    8.0900   27.5840 C.3   128  LEU128      0.0022
     89  CD1       12.9520    7.5300   28.2230 C.3   128  LEU128      0.0001
     90  CD2       11.1860    7.1700   26.4520 C.3   128  LEU128      0.0001
     91  N         11.4950   11.4970   29.9600 N.am  129  GLY129     -0.1955
     92  CA        11.5790   12.9230   29.6050 C.3   129  GLY129      0.1869
     93  C         10.2330   13.5750   29.7920 C.2   129  GLY129      0.2309
     94  O          9.7140   14.2480   28.8860 O.2   129  GLY129     -0.2863
     95  N          7.5070   12.0280   29.8830 N.3   131  THR131     -0.1218
     96  CA         6.4820   11.2090   29.2370 C.3   131  THR131      0.1862
     97  C          6.3730    9.8030   29.8540 C.2   131  THR131      0.2287
     98  O          7.2900    8.9900   29.7110 O.2   131  THR131     -0.2866
     99  CB         6.6600   11.1560   27.7070 C.3   131  THR131      0.1770
    100  OG1        7.0170   12.4640   27.2230 O.3   131  THR131     -0.2211
    101  CG2        5.3730   10.6930   27.0230 C.3   131  THR131      0.0375
    102  N         24.9970    4.5400   27.5530 N.3   143  THR143     -0.1203
    103  CA        24.2190    5.0060   26.4030 C.3   143  THR143      0.1994
    104  C         24.7190    6.2960   25.8070 C.2   143  THR143      0.2618
    105  O         25.4020    7.0560   26.4860 O.2   143  THR143     -0.2717
    106  CB        22.7740    5.2810   26.8610 C.3   143  THR143      0.1784
    107  OG1       22.7470    5.7270   28.2520 O.3   143  THR143     -0.2211
    108  CG2       21.9600    4.0450   26.6800 C.3   143  THR143      0.0376
    109  N         24.3620    6.5590   24.5480 N.am  144  ARG144     -0.1965
    110  CA        24.6710    7.8590   23.9140 C.3   144  ARG144      0.1729
    111  C         23.6320    8.4070   22.9200 C.2   144  ARG144      0.2616
    112  O         22.9290    7.6260   22.2340 O.2   144  ARG144     -0.2715
    113  CB        26.0810    7.8580   23.2850 C.3   144  ARG144      0.0348
    114  CG        27.1220    8.6780   24.0770 C.3   144  ARG144      0.0492
    115  CD        27.7930    7.8790   25.1870 C.3   144  ARG144      0.2205
    116  NE        28.6810    8.7370   25.9740 N.pl3 144  ARG144     -0.0865
    117  CZ        29.4470    8.3650   27.0030 C.cat 144  ARG144      0.5346
    118  NH1       29.4640    7.1080   27.4470 N.pl3 144  ARG144      0.1354
    119  NH2       30.1960    9.2900   27.6140 N.pl3 144  ARG144      0.1354
    120  N         23.5500    9.7430   22.8180 N.am  145  ALA145     -0.1963
    121  CA        22.6140   10.3830   21.8960 C.3   145  ALA145      0.1728
    122  C         22.9440    9.9590   20.4680 C.2   145  ALA145      0.2616
    123  O         24.0950    9.6590   20.2030 O.2   145  ALA145     -0.2715
    124  CB        22.6870   11.8770   22.0320 C.3   145  ALA145      0.0334
    125  N         21.9310    9.8970   19.5780 N.am  146  GLY146     -0.1955
    126  CA        22.0860    9.4720   18.1430 C.3   146  GLY146      0.1869
    127  C         22.0660    7.9640   17.8980 C.2   146  GLY146      0.2309
    128  O         22.2230    7.4660   16.7260 O.2   146  GLY146     -0.2863
    129  N         19.3320    6.4710   19.0520 N.3   148  CYS148     -0.1235
    130  CA        17.8980    6.1940   19.0680 C.3   148  CYS148      0.1677
    131  C         17.4550    5.5780   17.7440 C.2   148  CYS148      0.2270
    132  O         17.8800    5.9610   16.6540 O.2   148  CYS148     -0.2867
    133  CB        17.0150    7.3760   19.6190 C.3   148  CYS148      0.0956
    134  SG        17.2010    7.4830   21.4590 S.3   148  CYS148     -0.0801
    135  N         15.8280    1.0720   20.4070 N.3   162  HIS162     -0.1226
    136  CA        16.4070    1.9210   21.4470 C.3   162  HIS162      0.1752
    137  C         15.7460    3.3320   21.4120 C.2   162  HIS162      0.2596
    138  O         15.6660    3.9720   20.3360 O.2   162  HIS162     -0.2718
    139  CB        17.9470    2.0500   21.2960 C.3   162  HIS162      0.0759
    140  CG        18.5620    2.9370   22.3360 C.ar  162  HIS162      0.0818
    141  ND1       18.8720    2.4910   23.5990 N.ar  162  HIS162     -0.2268
    142  CD2       18.9410    4.2410   22.2880 C.ar  162  HIS162      0.1154
    143  CE1       19.4120    3.4800   24.2980 C.ar  162  HIS162      0.1986
    144  NE2       19.4640    4.5500   23.5270 N.ar  162  HIS162     -0.2212
    145  N         15.3250    3.8120   22.5820 N.am  163  VAL163     -0.1965
    146  CA        14.5830    5.0830   22.6580 C.3   163  VAL163      0.1730
    147  C         15.1140    6.0240   23.7430 C.2   163  VAL163      0.2656
    148  O         14.7680    7.1890   23.7510 O.2   163  VAL163     -0.2711
    149  CB        13.0250    4.9070   22.8190 C.3   163  VAL163      0.0290
    150  CG1       12.4740    4.1380   21.6620 C.3   163  VAL163      0.0023
    151  CG2       12.6350    4.2380   24.1570 C.3   163  VAL163      0.0023
    152  N         15.9670    5.5290   24.6450 N.am  164  GLY164     -0.1716
    153  CA        16.3950    6.3730   25.7550 C.2   164  GLY164      0.1480
    154  C         17.5590    5.8590   26.5720 C.2   164  GLY164      0.2821
    155  O         17.9400    4.6920   26.5030 O.2   164  GLY164     -0.2669
    156  N         18.1550    6.7530   27.3610 N.am  165  GLY165     -0.1905
    157  CA        19.1900    6.3110   28.2740 C.3   165  GLY165      0.2017
    158  C         19.7670    7.4640   29.0560 C.2   165  GLY165      0.2639
    159  O         19.5640    8.6320   28.7020 O.2   165  GLY165     -0.2714
    160  N         20.4800    7.1200   30.1270 N.am  166  ASN166     -0.1958
    161  CA        21.3830    8.0920   30.7600 C.3   166  ASN166      0.1819
    162  C         22.5430    7.4340   31.4930 C.2   166  ASN166      0.2621
    163  O         22.3790    6.5830   32.3980 O.2   166  ASN166     -0.2715
    164  CB        20.6070    9.0480   31.6440 C.3   166  ASN166      0.1195
    165  CG        19.4030    8.3880   32.2680 C.2   166  ASN166      0.2630
    166  OD1       19.5140    7.3530   32.9210 O.2   166  ASN166     -0.2716
    167  ND2       18.2320    8.9710   32.0480 N.am  166  ASN166     -0.0877
    168  N         23.7220    7.8220   31.0510 N.am  167  GLY167     -0.1954
    169  CA        24.9520    7.3190   31.5870 C.3   167  GLY167      0.1869
    170  C         25.2600    5.8860   31.2480 C.2   167  GLY167      0.2309
    171  O         26.1380    5.6170   30.3930 O.2   167  GLY167     -0.2863
    172  N         17.2880    1.9930   27.4270 N.3   171  PHE171     -0.1241
    173  CA        15.9400    1.4790   27.3070 C.3   171  PHE171      0.1605
    174  C         15.4440    1.3850   25.8790 C.2   171  PHE171      0.2264
    175  O         15.6330    2.2920   25.0640 O.2   171  PHE171     -0.2867
    176  CB        14.9690    2.3790   28.0500 C.3   171  PHE171      0.0534
    177  CG        15.3300    2.5960   29.4830 C.ar  171  PHE171     -0.0203
    178  CD1       14.8800    1.7270   30.4620 C.ar  171  PHE171     -0.0042
    179  CD2       16.1080    3.6730   29.8490 C.ar  171  PHE171     -0.0042
    180  CE1       15.2110    1.9560   31.8150 C.ar  171  PHE171     -0.0003
    181  CE2       16.4350    3.8910   31.1890 C.ar  171  PHE171     -0.0003
    182  CZ        15.9880    3.0330   32.1630 C.ar  171  PHE171     -0.0000
@<TRIPOS>BOND
     1    25    23   ar
     2    23    22    1
     3    23    24   ar
     4    22    21    1
     5    29    28    2
     6    21    18    1
     7    16    15    2
     8    18    17    1
     9    18    19    1
    10    26    19   am
    11    26    27    1
    12    28    27    1
    13    15    17   am
    14    15    14    1
    15    19    20    2
    16     1     2    1
    17    27    30    1
    18    30    31    1
    19    13    14    1
    20    13     3   am
    21    32    31   ar
    22    32    34   ar
    23    31    33   ar
    24     2     3    1
    25     2     5    1
    26     7     9   ar
    27     7     6   ar
    28    34    36   ar
    29     9    11   ar
    30     3     4    2
    31     5     6    1
    32     6     8   ar
    33    33    35   ar
    34    11    12    1
    35    11    10   ar
    36    36    35   ar
    37     8    10   ar
    38   132   131    2
    39   128   127    2
    40    40    39    2
    41    51    50    2
    42   131   130    1
    43    50    49    1
    44   127   126    1
    45   126   125    1
    46    39    38    1
    47    39    48   am
    48    38    37    1
    49    38    41    1
    50    48    49    1
    51   129   130    1
    52    49    52    1
    53   130   133    1
    54    42    41    1
    55    42    43    1
    56   125   122   am
    57    55    57   ar
    58    55    53   ar
    59   133   134    1
    60    57    56   ar
    61   123   122    2
    62    52    53    1
    63    53    54   ar
    64   138   137    2
    65    61    60    2
    66   135   136    1
    67    43    44    1
    68   122   121    1
    69    60    59    1
    70    46    45    1
    71    56    54   ar
    72   139   136    1
    73   139   140    1
    74   137   136    1
    75   137   145   am
    76    44    45    2
    77   150   149    1
    78    45    47    1
    79    66    64   ar
    80   121   124    1
    81   121   120    1
    82    59    58    1
    83    59    62    1
    84   112   111    2
    85   142   140   ar
    86   142   144   ar
    87   140   141   ar
    88   145   146    1
    89    64    63    1
    90    64    65   ar
    91   146   149    1
    92   146   147    1
    93    63    62    1
    94   120   111   am
    95   149   151    1
    96   111   110    1
    97   113   110    1
    98   113   114    1
    99   144   143   ar
   100   141   143   ar
   101   147   148    2
   102   147   152    1
   103   110   109    1
   104   114   115    1
   105   109   104   am
   106   152   153    2
   107   175   174    2
   108   115   116    1
   109   153   154    1
   110   104   103    1
   111   104   105    2
   112   174   173    1
   113   116   117    2
   114   103   106    1
   115   103   102    1
   116    90    88    1
   117   155   154    2
   118   154   156   am
   119   108   106    1
   120   106   107    1
   121   117   118    1
   122   117   119    1
   123   101    99    1
   124   100    99    1
   125   173   172    1
   126   173   176    1
   127   156   157    1
   128    88    89    1
   129    88    87    1
   130    99    96    1
   131   176   177    1
   132   157   158    1
   133    86    85    2
   134    87    84    1
   135   159   158    2
   136    94    93    2
   137   158   160   am
   138    96    97    1
   139    96    95    1
   140    85    84    1
   141    85    91   am
   142   177   179   ar
   143   177   178   ar
   144    92    93    1
   145    92    91    1
   146    98    97    2
   147    84    83    1
   148   179   181   ar
   149   160   161    1
   150   171   170    2
   151   178   180   ar
   152   161   162    1
   153   161   164    1
   154    74    72    1
   155    83    77   am
   156   168   162   am
   157   168   169    1
   158   181   182   ar
   159   170   169    1
   160    70    69    2
   161   162   163    2
   162   164   165    1
   163   180   182   ar
   164    72    71    1
   165    72    73    1
   166   167   165   am
   167    71    68    1
   168    77    78    2
   169    77    76    1
   170   165   166    2
   171    69    68    1
   172    69    75   am
   173    67    68    1
   174    81    80    2
   175    76    75    1
   176    76    79    1
   177    80    79    1
   178    80    82   am
