@<TRIPOS>MOLECULE
tmp/3zz8A00.pdb
 216 211 0 0 0
SMALL
GASTEIGER

@<TRIPOS>ATOM
      1  N        -13.6990   15.8660  -12.1220 N.3    23  TYR23      -0.1227
      2  CA       -14.0320   15.7080  -13.5720 C.3    23  TYR23       0.1736
      3  C        -15.4110   15.0350  -13.8900 C.2    23  TYR23       0.2596
      4  O        -15.8830   14.9780  -15.0590 O.2    23  TYR23      -0.2718
      5  CB       -12.8530   15.0130  -14.2870 C.3    23  TYR23       0.0548
      6  CG       -11.8030   16.0550  -14.6420 C.ar   23  TYR23      -0.0200
      7  CD1      -10.9120   16.5010  -13.6970 C.ar   23  TYR23      -0.0009
      8  CD2      -11.8270   16.6950  -15.8890 C.ar   23  TYR23      -0.0009
      9  CE1      -10.0000   17.5370  -14.0150 C.ar   23  TYR23       0.0417
     10  CE2      -10.9230   17.7170  -16.2110 C.ar   23  TYR23       0.0417
     11  CZ       -10.0350   18.1350  -15.2520 C.ar   23  TYR23       0.1957
     12  OH        -9.1500   19.1610  -15.5470 O.3    23  TYR23      -0.2866
     13  N        -16.0700   14.5380  -12.8440 N.am   24  GLY24      -0.1942
     14  CA       -17.4650   14.0750  -13.0220 C.3    24  GLY24       0.2014
     15  C        -17.7090   12.8750  -12.1560 C.2    24  GLY24       0.2639
     16  O        -16.9430   12.6190  -11.2110 O.2    24  GLY24      -0.2714
     17  N        -18.7490   12.1250  -12.5030 N.am   25  GLU25      -0.1963
     18  CA       -19.1250   10.9370  -11.7560 C.3    25  GLU25       0.1733
     19  C        -18.8760    9.6980  -12.5880 C.2    25  GLU25       0.2616
     20  O        -19.2250    9.6520  -13.7880 O.2    25  GLU25      -0.2715
     21  CB       -20.6000   10.9980  -11.3980 C.3    25  GLU25       0.0429
     22  CG       -20.9880    9.9400  -10.4050 C.3    25  GLU25       0.1163
     23  CD       -22.4210   10.1090   -9.9350 C.2    25  GLU25       0.3649
     24  OE1      -23.2270   10.7700  -10.6320 O.co2  25  GLU25      -0.2457
     25  OE2      -22.7070    9.6240   -8.8480 O.co2  25  GLU25      -0.2457
     26  N        -18.3080    8.6900  -11.9720 N.am   26  PHE26      -0.1974
     27  CA       -17.9270    7.4990  -12.7520 C.3    26  PHE26       0.1639
     28  C        -18.2980    6.2240  -12.0630 C.2    26  PHE26       0.2290
     29  O        -18.4080    6.1930  -10.8310 O.2    26  PHE26      -0.2864
     30  CB       -16.4030    7.5020  -13.0170 C.3    26  PHE26       0.0560
     31  CG       -15.9300    8.7700  -13.7300 C.ar   26  PHE26      -0.0200
     32  CD1      -15.9650    8.8290  -15.1560 C.ar   26  PHE26      -0.0042
     33  CD2      -15.5560    9.9130  -12.9980 C.ar   26  PHE26      -0.0042
     34  CE1      -15.5650    9.9750  -15.8430 C.ar   26  PHE26      -0.0003
     35  CE2      -15.1430   11.1170  -13.7000 C.ar   26  PHE26      -0.0003
     36  CZ       -15.1520   11.1220  -15.1330 C.ar   26  PHE26      -0.0000
     37  N         -8.9180    7.1730  -17.6330 N.3    40  ARG40      -0.1231
     38  CA        -7.8130    8.0800  -17.3410 C.3    40  ARG40       0.1694
     39  C         -8.3610    9.5080  -17.1990 C.2    40  ARG40       0.2592
     40  O         -7.8820   10.2470  -16.3490 O.2    40  ARG40      -0.2718
     41  CB        -6.6910    7.9840  -18.4020 C.3    40  ARG40       0.0321
     42  CG        -5.4480    8.8300  -18.0580 C.3    40  ARG40       0.0489
     43  CD        -4.7770    9.4340  -19.3260 C.3    40  ARG40       0.2205
     44  NE        -5.7630    9.8140  -20.3400 N.pl3  40  ARG40      -0.0865
     45  CZ        -6.3620   11.0080  -20.4360 C.cat  40  ARG40       0.5346
     46  NH1       -6.0860   11.9860  -19.5840 N.pl3  40  ARG40       0.1354
     47  NH2       -7.2620   11.2200  -21.3910 N.pl3  40  ARG40       0.1354
     48  N         -9.3890    9.8450  -17.9740 N.am   41  HIS41      -0.1976
     49  CA       -10.0170   11.1920  -17.9620 C.3    41  HIS41       0.1656
     50  C        -10.8220   11.5860  -16.7100 C.2    41  HIS41       0.2291
     51  O        -11.2060   12.7650  -16.5510 O.2    41  HIS41      -0.2864
     52  CB       -10.8230   11.4690  -19.2240 C.3    41  HIS41       0.0771
     53  CG       -12.0590   10.6420  -19.3640 C.ar   41  HIS41       0.0820
     54  ND1      -12.1200    9.5250  -20.1720 N.ar   41  HIS41      -0.2267
     55  CD2      -13.3050   10.8050  -18.8540 C.ar   41  HIS41       0.1154
     56  CE1      -13.3370    9.0140  -20.1220 C.ar   41  HIS41       0.1986
     57  NE2      -14.0740    9.7680  -19.3220 N.ar   41  HIS41      -0.2212
     58  N         -9.3030   11.5620  -14.0540 N.3    43  LYS43      -0.1245
     59  CA        -8.2550   12.4310  -13.5120 C.3    43  LYS43       0.1561
     60  C         -8.3730   12.5640  -12.0000 C.2    43  LYS43       0.2260
     61  O         -8.4800   13.6790  -11.4580 O.2    43  LYS43      -0.2867
     62  CB        -8.2730   13.8100  -14.1990 C.3    43  LYS43       0.0271
     63  CG        -8.1340   13.7550  -15.7540 C.3    43  LYS43       0.0035
     64  CD        -8.6370   15.0560  -16.4410 C.3    43  LYS43       0.0206
     65  CE        -9.0040   14.8780  -17.9420 C.3    43  LYS43       0.1093
     66  NZ        -7.7770   14.9050  -18.8750 N.3    43  LYS43      -0.1314
     67  N         -5.7930    4.9170  -21.7540 N.3    72  GLU72      -0.1245
     68  CA        -7.0000    5.5630  -21.2170 C.3    72  GLU72       0.1567
     69  C         -7.5350    4.8550  -19.9490 C.2    72  GLU72       0.2260
     70  O         -8.7440    4.8030  -19.7390 O.2    72  GLU72      -0.2867
     71  CB        -8.0740    5.6420  -22.3100 C.3    72  GLU72       0.0388
     72  CG        -9.2220    6.6530  -22.0840 C.3    72  GLU72       0.1160
     73  CD        -8.7400    8.0570  -21.6880 C.2    72  GLU72       0.3649
     74  OE1       -7.6000    8.4590  -22.0260 O.co2  72  GLU72      -0.2457
     75  OE2       -9.5280    8.7720  -21.0290 O.co2  72  GLU72      -0.2457
     76  N        -26.6500    8.9810  -11.7340 N.3   109  LYS109     -0.1245
     77  CA       -27.3380    9.1640  -12.9930 C.3   109  LYS109      0.1561
     78  C        -27.8990    7.8520  -13.5630 C.2   109  LYS109      0.2260
     79  O        -29.0610    7.7640  -13.9790 O.2   109  LYS109     -0.2867
     80  CB       -26.2940    9.6860  -13.9690 C.3   109  LYS109      0.0271
     81  CG       -26.7930   10.2680  -15.2490 C.3   109  LYS109      0.0035
     82  CD       -25.6620   11.0860  -15.8730 C.3   109  LYS109      0.0206
     83  CE       -26.1770   12.4190  -16.3760 C.3   109  LYS109      0.1093
     84  NZ       -27.0350   12.2440  -17.5910 N.3   109  LYS109     -0.1314
     85  N        -10.9440   -3.0940  -31.9470 N.3   123  TYR123     -0.1241
     86  CA       -10.9570   -1.9000  -32.7630 C.3   123  TYR123      0.1605
     87  C         -9.5930   -1.2480  -32.6050 C.2   123  TYR123      0.2264
     88  O         -9.2790   -0.2740  -33.2940 O.2   123  TYR123     -0.2867
     89  CB       -12.0880   -0.9830  -32.2710 C.3   123  TYR123      0.0534
     90  CG       -12.3820    0.2600  -33.0880 C.ar  123  TYR123     -0.0201
     91  CD1      -11.6780    1.4480  -32.8700 C.ar  123  TYR123     -0.0009
     92  CD2      -13.3980    0.2610  -34.0360 C.ar  123  TYR123     -0.0009
     93  CE1      -11.9540    2.5880  -33.5960 C.ar  123  TYR123      0.0417
     94  CE2      -13.6930    1.4030  -34.7740 C.ar  123  TYR123      0.0417
     95  CZ       -12.9670    2.5680  -34.5520 C.ar  123  TYR123      0.1957
     96  OH       -13.2460    3.7150  -35.2790 O.3   123  TYR123     -0.2866
     97  N         -7.9200    4.1780  -32.3580 N.3   126  LEU126     -0.1231
     98  CA        -8.9650    5.1950  -32.3370 C.3   126  LEU126      0.1693
     99  C         -8.4060    6.5000  -31.8180 C.2   126  LEU126      0.2592
    100  O         -7.6930    6.5360  -30.8180 O.2   126  LEU126     -0.2718
    101  CB       -10.1580    4.7820  -31.4470 C.3   126  LEU126      0.0284
    102  CG       -11.2290    5.8680  -31.1930 C.3   126  LEU126      0.0019
    103  CD1      -11.9960    6.2200  -32.4670 C.3   126  LEU126      0.0001
    104  CD2      -12.1990    5.4920  -30.0630 C.3   126  LEU126      0.0001
    105  N         -8.7680    7.5740  -32.5080 N.am  127  ASN127     -0.1960
    106  CA        -8.4310    8.9050  -32.0760 C.3   127  ASN127      0.1819
    107  C         -9.4930    9.3870  -31.1020 C.2   127  ASN127      0.2621
    108  O        -10.4900    9.9900  -31.5020 O.2   127  ASN127     -0.2715
    109  CB        -8.3310    9.8340  -33.2840 C.3   127  ASN127      0.1195
    110  CG        -7.5980   11.0960  -32.9580 C.2   127  ASN127      0.2630
    111  OD1       -8.2080   12.1450  -32.7390 O.2   127  ASN127     -0.2716
    112  ND2       -6.2700   11.0020  -32.8790 N.am  127  ASN127     -0.0877
    113  N         -9.2840    9.1030  -29.8180 N.am  128  LEU128     -0.1963
    114  CA       -10.2940    9.3800  -28.7900 C.3   128  LEU128      0.1728
    115  C        -10.0800   10.7120  -28.0680 C.2   128  LEU128      0.2617
    116  O         -9.0620   10.9000  -27.4100 O.2   128  LEU128     -0.2715
    117  CB       -10.3420    8.2460  -27.7540 C.3   128  LEU128      0.0311
    118  CG       -11.0920    8.6770  -26.4800 C.3   128  LEU128      0.0022
    119  CD1      -12.5990    8.4560  -26.6680 C.3   128  LEU128      0.0001
    120  CD2      -10.5520    8.0090  -25.2270 C.3   128  LEU128      0.0001
    121  N        -11.0660   11.6100  -28.1430 N.am  129  GLY129     -0.1940
    122  CA       -10.9910   12.9110  -27.4300 C.3   129  GLY129      0.2014
    123  C         -9.8360   13.7220  -27.9940 C.2   129  GLY129      0.2639
    124  O         -9.1590   14.4760  -27.2740 O.2   129  GLY129     -0.2714
    125  N         -9.6040   13.5330  -29.2920 N.am  130  GLY130     -0.1939
    126  CA        -8.3940   14.0390  -29.9300 C.3   130  GLY130      0.2014
    127  C         -7.1500   13.1470  -29.8310 C.2   130  GLY130      0.2639
    128  O         -6.2540   13.2520  -30.6860 O.2   130  GLY130     -0.2714
    129  N         -7.0870   12.2790  -28.8110 N.am  131  THR131     -0.1950
    130  CA        -5.8820   11.4850  -28.5430 C.3   131  THR131      0.1897
    131  C         -5.8760   10.1100  -29.1980 C.2   131  THR131      0.2313
    132  O         -6.8520    9.3520  -29.0460 O.2   131  THR131     -0.2863
    133  CB        -5.6080   11.2880  -27.0350 C.3   131  THR131      0.1794
    134  OG1       -5.8750   12.5100  -26.3370 O.3   131  THR131     -0.2208
    135  CG2       -4.1490   10.9220  -26.8220 C.3   131  THR131      0.0378
    136  N        -23.8190    5.3840  -26.6120 N.3   143  THR143     -0.1203
    137  CA       -23.3940    5.6640  -25.2410 C.3   143  THR143      0.1994
    138  C        -23.2660    7.1800  -24.9810 C.2   143  THR143      0.2618
    139  O        -22.9120    7.9640  -25.8940 O.2   143  THR143     -0.2717
    140  CB       -22.0890    4.9450  -24.8890 C.3   143  THR143      0.1784
    141  OG1      -21.1120    5.2550  -25.8930 O.3   143  THR143     -0.2211
    142  CG2      -22.2950    3.4160  -24.7520 C.3   143  THR143      0.0376
    143  N        -23.5560    7.5700  -23.7320 N.am  144  ARG144     -0.1965
    144  CA       -23.6100    8.9710  -23.3220 C.3   144  ARG144      0.1729
    145  C        -22.6910    9.3460  -22.1550 C.2   144  ARG144      0.2616
    146  O        -22.0470    8.4970  -21.4880 O.2   144  ARG144     -0.2715
    147  CB       -25.0470    9.3240  -22.9570 C.3   144  ARG144      0.0348
    148  CG       -25.9790    9.3550  -24.1390 C.3   144  ARG144      0.0492
    149  CD       -27.2230    8.5620  -23.8130 C.3   144  ARG144      0.2205
    150  NE       -28.3820    8.9220  -24.6450 N.pl3 144  ARG144     -0.0865
    151  CZ       -28.5810    8.5350  -25.9110 C.cat 144  ARG144      0.5346
    152  NH1      -27.6780    7.7890  -26.5580 N.pl3 144  ARG144      0.1354
    153  NH2      -29.6950    8.9170  -26.5470 N.pl3 144  ARG144      0.1354
    154  N        -22.6380   10.6430  -21.9000 N.am  145  ALA145     -0.1963
    155  CA       -21.8870   11.1160  -20.7570 C.3   145  ALA145      0.1728
    156  C        -22.5470   10.5020  -19.5160 C.2   145  ALA145      0.2616
    157  O        -23.7520   10.2270  -19.5070 O.2   145  ALA145     -0.2715
    158  CB       -21.8820   12.6280  -20.7050 C.3   145  ALA145      0.0334
    159  N        -21.7500   10.2490  -18.4870 N.am  146  GLY146     -0.1955
    160  CA       -22.2710    9.6160  -17.2880 C.3   146  GLY146      0.1869
    161  C        -22.0580    8.1220  -17.2770 C.2   146  GLY146      0.2309
    162  O        -22.2150    7.4950  -16.2380 O.2   146  GLY146     -0.2863
    163  N        -19.0900    6.5880  -18.2370 N.3   148  CYS148     -0.1235
    164  CA       -17.6710    6.2280  -18.2440 C.3   148  CYS148      0.1677
    165  C        -17.3170    5.4680  -16.9980 C.2   148  CYS148      0.2270
    166  O        -17.8500    5.7540  -15.9240 O.2   148  CYS148     -0.2867
    167  CB       -16.7610    7.4430  -18.4240 C.3   148  CYS148      0.0956
    168  SG       -16.7720    8.0320  -20.1010 S.3   148  CYS148     -0.0801
    169  N        -15.7040    1.3260  -19.9900 N.3   162  HIS162     -0.1226
    170  CA       -16.2030    2.2370  -21.0140 C.3   162  HIS162      0.1752
    171  C        -15.4770    3.5840  -20.8650 C.2   162  HIS162      0.2596
    172  O        -15.4070    4.1540  -19.7490 O.2   162  HIS162     -0.2718
    173  CB       -17.7270    2.4350  -20.8690 C.3   162  HIS162      0.0759
    174  CG       -18.2790    3.4160  -21.8360 C.ar  162  HIS162      0.0818
    175  ND1      -18.6520    3.0600  -23.1200 N.ar  162  HIS162     -0.2268
    176  CD2      -18.4850    4.7530  -21.7340 C.ar  162  HIS162      0.1154
    177  CE1      -19.1130    4.1310  -23.7450 C.ar  162  HIS162      0.1986
    178  NE2      -19.0060    5.1740  -22.9400 N.ar  162  HIS162     -0.2212
    179  N        -14.8960    4.0950  -21.9530 N.am  163  VAL163     -0.1966
    180  CA       -14.1270    5.3630  -21.8140 C.3   163  VAL163      0.1727
    181  C        -14.5190    6.4720  -22.7770 C.2   163  VAL163      0.2617
    182  O        -14.1290    7.6230  -22.5730 O.2   163  VAL163     -0.2715
    183  CB       -12.5880    5.1770  -21.8970 C.3   163  VAL163      0.0290
    184  CG1      -12.0640    4.3780  -20.6820 C.3   163  VAL163      0.0023
    185  CG2      -12.2000    4.5480  -23.2360 C.3   163  VAL163      0.0023
    186  N        -15.3160    6.1470  -23.7830 N.am  164  GLY164     -0.1940
    187  CA       -15.6550    7.1810  -24.7330 C.3   164  GLY164      0.2014
    188  C        -16.6860    6.7000  -25.7190 C.2   164  GLY164      0.2639
    189  O        -17.1340    5.5790  -25.6620 O.2   164  GLY164     -0.2714
    190  N        -17.1040    7.6060  -26.5940 N.am  165  GLY165     -0.1939
    191  CA       -18.1440    7.3510  -27.5580 C.3   165  GLY165      0.2014
    192  C        -18.1340    8.5620  -28.4860 C.2   165  GLY165      0.2639
    193  O        -17.5470    9.6240  -28.1850 O.2   165  GLY165     -0.2714
    194  N        -18.7500    8.3860  -29.6250 N.am  166  ASN166     -0.1958
    195  CA       -18.8130    9.4420  -30.6290 C.3   166  ASN166      0.1819
    196  C        -20.2810    9.7560  -30.9020 C.2   166  ASN166      0.2621
    197  O        -20.6400   10.3520  -31.9110 O.2   166  ASN166     -0.2715
    198  CB       -18.0460    9.0210  -31.9030 C.3   166  ASN166      0.1195
    199  CG       -18.4770    7.6380  -32.4480 C.2   166  ASN166      0.2630
    200  OD1      -17.6570    6.9000  -32.9810 O.2   166  ASN166     -0.2716
    201  ND2      -19.7280    7.2940  -32.2790 N.am  166  ASN166     -0.0877
    202  N        -21.1340    9.3180  -29.9870 N.am  167  GLY167     -0.1954
    203  CA       -22.5850    9.5290  -30.0950 C.3   167  GLY167      0.1869
    204  C        -23.2870    8.3800  -30.7760 C.2   167  GLY167      0.2309
    205  O        -24.5120    8.2740  -30.7050 O.2   167  GLY167     -0.2863
    206  N        -16.8280    2.7600  -26.7630 N.3   171  PHE171     -0.1241
    207  CA       -15.5580    2.1250  -26.7720 C.3   171  PHE171      0.1605
    208  C        -15.1010    1.9100  -25.3710 C.2   171  PHE171      0.2264
    209  O        -15.1300    2.8180  -24.5210 O.2   171  PHE171     -0.2867
    210  CB       -14.5290    3.0270  -27.4390 C.3   171  PHE171      0.0534
    211  CG       -14.9080    3.4130  -28.8640 C.ar  171  PHE171     -0.0203
    212  CD1      -14.5480    2.5880  -29.9210 C.ar  171  PHE171     -0.0042
    213  CD2      -15.6170    4.6110  -29.1250 C.ar  171  PHE171     -0.0042
    214  CE1      -14.8930    2.9290  -31.2410 C.ar  171  PHE171     -0.0003
    215  CE2      -15.9410    4.9670  -30.4560 C.ar  171  PHE171     -0.0003
    216  CZ       -15.5880    4.1060  -31.4940 C.ar  171  PHE171     -0.0000
@<TRIPOS>BOND
     1    96    95    1
     2    94    95   ar
     3    94    92   ar
     4    95    93   ar
     5    92    90   ar
     6    93    91   ar
     7    88    87    2
     8   109   110    1
     9   109   106    1
    10    90    91   ar
    11    90    89    1
    12   200   199    2
    13   110   112   am
    14   110   111    2
    15    86    87    1
    16    86    89    1
    17    86    85    1
    18   105   106    1
    19   105    99   am
    20   103   102    1
    21   199   201   am
    22   199   198    1
    23    97    98    1
    24    98    99    1
    25    98   101    1
    26   106   107    1
    27   197   196    2
    28   198   195    1
    29    99   100    2
    30   108   107    2
    31   216   214   ar
    32   216   215   ar
    33   101   102    1
    34   214   212   ar
    35   102   104    1
    36   107   113   am
    37   196   195    1
    38   196   202   am
    39   204   205    2
    40   204   203    1
    41   128   127    2
    42   195   194    1
    43   215   213   ar
    44   203   202    1
    45   126   127    1
    46   126   125    1
    47   212   211   ar
    48   127   129   am
    49   113   114    1
    50   194   192   am
    51   125   123   am
    52   131   132    2
    53   131   130    1
    54   213   211   ar
    55   211   210    1
    56   129   130    1
    57   114   115    1
    58   114   117    1
    59   130   133    1
    60   192   193    2
    61   192   191    1
    62   121   115   am
    63   121   122    1
    64   115   116    2
    65   123   122    1
    66   123   124    2
    67   117   118    1
    68   191   190    1
    69   210   207    1
    70   133   135    1
    71   133   134    1
    72   207   206    1
    73   207   208    1
    74   119   118    1
    75   136   137    1
    76   190   188   am
    77   152   151    1
    78   153   151    1
    79   118   120    1
    80   151   150    2
    81   139   138    2
    82   141   140    1
    83   188   189    2
    84   188   187    1
    85   208   209    2
    86   137   138    1
    87   137   140    1
    88   138   143   am
    89   140   142    1
    90   187   186    1
    91   150   149    1
    92   148   149    1
    93   148   147    1
    94   186   181   am
    95   177   175   ar
    96   177   178   ar
    97   143   144    1
    98   144   147    1
    99   144   145    1
   100   185   183    1
   101   175   174   ar
   102   178   176   ar
   103   181   182    2
   104   181   180    1
   105    71    72    1
   106    71    68    1
   107   145   154   am
   108   145   146    2
   109    72    73    1
   110    74    73   ar
   111   179   180    1
   112   179   171   am
   113   154   155    1
   114   183   180    1
   115   183   184    1
   116   174   176   ar
   117   174   173    1
   118    67    68    1
   119    73    75   ar
   120    47    45    1
   121    68    69    1
   122   170   173    1
   123   170   171    1
   124   170   169    1
   125   171   172    2
   126   155   158    1
   127   155   156    1
   128    45    44    2
   129    45    46    1
   130    44    43    1
   131    54    56   ar
   132    54    53   ar
   133    56    57   ar
   134   168   167    1
   135    69    70    2
   136   156   157    2
   137   156   159   am
   138    53    52    1
   139    53    55   ar
   140    43    42    1
   141    57    55   ar
   142    52    49    1
   143    66    65    1
   144   159   160    1
   145   167   164    1
   146    41    42    1
   147    41    38    1
   148   164   163    1
   149   164   165    1
   150    48    49    1
   151    48    39   am
   152    49    50    1
   153    65    64    1
   154    37    38    1
   155    84    83    1
   156    38    39    1
   157   160   161    1
   158   161   162    2
   159    39    40    2
   160   165   166    2
   161    50    51    2
   162    64    63    1
   163    83    82    1
   164    10     8   ar
   165    10    11   ar
   166     8     6   ar
   167    82    81    1
   168    34    32   ar
   169    34    36   ar
   170    63    62    1
   171    12    11    1
   172    11     9   ar
   173    81    80    1
   174    32    31   ar
   175    36    35   ar
   176     4     3    2
   177     6     5    1
   178     6     7   ar
   179     5     2    1
   180    62    59    1
   181    58    59    1
   182     9     7   ar
   183    79    78    2
   184    80    77    1
   185     3     2    1
   186     3    13   am
   187    20    19    2
   188    31    30    1
   189    31    33   ar
   190    35    33   ar
   191     2     1    1
   192    78    77    1
   193    59    60    1
   194    14    13    1
   195    14    15    1
   196    30    27    1
   197    77    76    1
   198    27    28    1
   199    27    26    1
   200    19    26   am
   201    19    18    1
   202    17    15   am
   203    17    18    1
   204    15    16    2
   205    28    29    2
   206    60    61    2
   207    18    21    1
   208    21    22    1
   209    24    23   ar
   210    22    23    1
   211    23    25   ar
