@<TRIPOS>MOLECULE
tmp/3zzaA00.pdb
 231 225 0 0 0
SMALL
GASTEIGER

@<TRIPOS>ATOM
      1  N         13.6980   15.7750   12.1560 N.3    23  TYR23      -0.1227
      2  CA        13.9850   15.6600   13.6000 C.3    23  TYR23       0.1736
      3  C         15.3000   14.9160   13.9070 C.2    23  TYR23       0.2596
      4  O         15.6860   14.7450   15.0660 O.2    23  TYR23      -0.2718
      5  CB        12.7890   15.0170   14.3280 C.3    23  TYR23       0.0548
      6  CG        11.7460   16.0720   14.6180 C.ar   23  TYR23      -0.0200
      7  CD1       10.8900   16.4990   13.6150 C.ar   23  TYR23      -0.0009
      8  CD2       11.7020   16.7040   15.8650 C.ar   23  TYR23      -0.0009
      9  CE1        9.9870   17.5300   13.8470 C.ar   23  TYR23       0.0417
     10  CE2       10.7920   17.7160   16.1220 C.ar   23  TYR23       0.0417
     11  CZ         9.9660   18.1380   15.0930 C.ar   23  TYR23       0.1957
     12  OH         9.0500   19.1560   15.3130 O.3    23  TYR23      -0.2866
     13  N         16.0120   14.5420   12.8590 N.am   24  GLY24      -0.1942
     14  CA        17.3660   14.0270   12.9860 C.3    24  GLY24       0.2014
     15  C         17.6880   12.8440   12.0930 C.2    24  GLY24       0.2639
     16  O         16.9750   12.5710   11.1320 O.2    24  GLY24      -0.2714
     17  N         18.7860   12.1500   12.4470 N.am   25  GLU25      -0.1963
     18  CA        19.2620   10.9690   11.7180 C.3    25  GLU25       0.1733
     19  C         19.1270    9.7430   12.5830 C.2    25  GLU25       0.2616
     20  O         19.5200    9.7680   13.7500 O.2    25  GLU25      -0.2715
     21  CB        20.7270   11.1170   11.3220 C.3    25  GLU25       0.0429
     22  CG        21.1510   10.0680   10.3690 C.3    25  GLU25       0.1163
     23  CD        22.6160   10.2500    9.8880 C.2    25  GLU25       0.3649
     24  OE1       23.4040   10.9180   10.5850 O.co2  25  GLU25      -0.2457
     25  OE2       22.9480    9.7040    8.8350 O.co2  25  GLU25      -0.2457
     26  N         18.5140    8.7060   12.0160 N.am   26  PHE26      -0.1974
     27  CA        18.1580    7.5140   12.8090 C.3    26  PHE26       0.1639
     28  C         18.5590    6.2520   12.1110 C.2    26  PHE26       0.2290
     29  O         18.6020    6.2390   10.8890 O.2    26  PHE26      -0.2864
     30  CB        16.6180    7.4620   12.9520 C.3    26  PHE26       0.0560
     31  CG        16.0650    8.6950   13.6150 C.ar   26  PHE26      -0.0200
     32  CD1       15.8080    9.8850   12.8430 C.ar   26  PHE26      -0.0042
     33  CD2       15.9100    8.7330   15.0090 C.ar   26  PHE26      -0.0042
     34  CE1       15.3430   11.0510   13.4690 C.ar   26  PHE26      -0.0003
     35  CE2       15.4140    9.9050   15.6210 C.ar   26  PHE26      -0.0003
     36  CZ        15.1740   11.0630   14.8500 C.ar   26  PHE26      -0.0000
     37  N          9.1090    7.1360   17.6280 N.3    40  ARG40      -0.1231
     38  CA         8.0100    8.0370   17.3610 C.3    40  ARG40       0.1694
     39  C          8.5330    9.4640   17.1980 C.2    40  ARG40       0.2592
     40  O          8.0590   10.2120   16.3500 O.2    40  ARG40      -0.2718
     41  CB         6.9460    7.9680   18.4940 C.3    40  ARG40       0.0321
     42  CG         5.6070    8.7670   18.1830 C.3    40  ARG40       0.0489
     43  CD         4.9560    9.2890   19.4900 C.3    40  ARG40       0.2205
     44  NE         6.0210    9.8120   20.3550 N.pl3  40  ARG40      -0.0865
     45  CZ         6.4960   11.0630   20.3310 C.cat  40  ARG40       0.5346
     46  NH1        5.9700   11.9890   19.5210 N.pl3  40  ARG40       0.1354
     47  NH2        7.5130   11.3900   21.1190 N.pl3  40  ARG40       0.1354
     48  N          9.5310    9.8090   17.9990 N.am   41  HIS41      -0.1976
     49  CA        10.1100   11.1440   17.9580 C.3    41  HIS41       0.1656
     50  C         10.8690   11.5450   16.7100 C.2    41  HIS41       0.2291
     51  O         11.2480   12.7260   16.6070 O.2    41  HIS41      -0.2864
     52  CB        10.9340   11.4420   19.1970 C.3    41  HIS41       0.0771
     53  CG        12.1700   10.6080   19.3270 C.ar   41  HIS41       0.0820
     54  ND1       12.2520    9.5190   20.1790 N.ar   41  HIS41      -0.2267
     55  CD2       13.3880   10.7280   18.7460 C.ar   41  HIS41       0.1154
     56  CE1       13.4760    9.0160   20.1290 C.ar   41  HIS41       0.1986
     57  NE2       14.1760    9.7100   19.2450 N.ar   41  HIS41      -0.2212
     58  N          9.3060   11.4070   13.9220 N.3    43  LYS43      -0.1245
     59  CA         8.2100   12.1880   13.3360 C.3    43  LYS43       0.1561
     60  C          8.3300   12.2630   11.8170 C.2    43  LYS43       0.2260
     61  O          8.3470   13.3550   11.2450 O.2    43  LYS43      -0.2867
     62  CB         8.1510   13.6020   13.9570 C.3    43  LYS43       0.0271
     63  CG         8.0220   13.6200   15.5160 C.3    43  LYS43       0.0035
     64  CD         8.4560   15.0060   16.0780 C.3    43  LYS43       0.0206
     65  CE         8.8550   14.9640   17.5990 C.3    43  LYS43       0.1093
     66  NZ         7.5630   14.8750   18.4430 N.3    43  LYS43      -0.1314
     67  N          1.6170    6.1190   25.2590 N.3    70  ASN70      -0.1240
     68  CA         2.6990    6.1120   24.2790 C.3    70  ASN70       0.1653
     69  C          3.5630    4.8570   24.3580 C.2    70  ASN70       0.2266
     70  O          3.9600    4.4000   25.4430 O.2    70  ASN70      -0.2867
     71  CB         3.5610    7.3800   24.4620 C.3    70  ASN70       0.1155
     72  CG         4.7790    7.4190   23.5280 C.2    70  ASN70       0.2627
     73  OD1        4.6440    7.4120   22.2820 O.2    70  ASN70      -0.2716
     74  ND2        5.9630    7.5050   24.1260 N.am   70  ASN70      -0.0877
     75  N          6.1270    4.8500   21.8260 N.3    72  GLU72      -0.1245
     76  CA         7.3470    5.5020   21.2330 C.3    72  GLU72       0.1567
     77  C          7.8610    4.8030   19.9800 C.2    72  GLU72       0.2260
     78  O          9.0680    4.8240   19.6700 O.2    72  GLU72      -0.2867
     79  CB         8.4530    5.6420   22.2840 C.3    72  GLU72       0.0388
     80  CG         9.5210    6.7270   22.0250 C.3    72  GLU72       0.1160
     81  CD         8.9780    8.1070   21.5980 C.2    72  GLU72       0.3649
     82  OE1        7.8660    8.5340   22.0040 O.co2  72  GLU72      -0.2457
     83  OE2        9.7060    8.7770   20.8300 O.co2  72  GLU72      -0.2457
     84  N         26.9140    9.4160   12.2370 N.3   109  LYS109     -0.1245
     85  CA        27.6390    9.4840   13.4990 C.3   109  LYS109      0.1561
     86  C         28.1680    8.1010   13.9390 C.2   109  LYS109      0.2260
     87  O         29.2020    8.0180   14.6030 O.2   109  LYS109     -0.2867
     88  CB        26.7630   10.0350   14.6350 C.3   109  LYS109      0.0271
     89  CG        26.8370   11.5310   14.8170 C.3   109  LYS109      0.0035
     90  CD        25.6570   12.0800   15.6180 C.3   109  LYS109      0.0206
     91  CE        25.3590   13.5500   15.2590 C.3   109  LYS109      0.1093
     92  NZ        26.4520   14.5150   15.6910 N.3   109  LYS109     -0.1314
     93  N         11.7760   -2.7720   31.9540 N.3   123  TYR123     -0.1241
     94  CA        11.8720   -1.5910   32.7870 C.3   123  TYR123      0.1605
     95  C         10.4780   -1.1560   33.1530 C.2   123  TYR123      0.2264
     96  O         10.2320   -0.7050   34.2790 O.2   123  TYR123     -0.2867
     97  CB        12.5800   -0.4680   32.0240 C.3   123  TYR123      0.0534
     98  CG        12.8620    0.7730   32.8540 C.ar  123  TYR123     -0.0201
     99  CD1       13.9700    0.8240   33.7010 C.ar  123  TYR123     -0.0009
    100  CD2       12.0300    1.8930   32.7790 C.ar  123  TYR123     -0.0009
    101  CE1       14.2490    1.9590   34.4480 C.ar  123  TYR123      0.0417
    102  CE2       12.2940    3.0350   33.5360 C.ar  123  TYR123      0.0417
    103  CZ        13.4130    3.0590   34.3700 C.ar  123  TYR123      0.1957
    104  OH        13.7090    4.1880   35.1210 O.3   123  TYR123     -0.2866
    105  N          7.2850    1.1380   32.8830 N.3   125  PHE125     -0.1227
    106  CA         6.8890    2.5180   32.6530 C.3   125  PHE125      0.1736
    107  C          8.0630    3.4930   32.8490 C.2   125  PHE125      0.2595
    108  O          8.8920    3.3300   33.7430 O.2   125  PHE125     -0.2718
    109  CB         5.6740    2.8870   33.5280 C.3   125  PHE125      0.0547
    110  CG         5.7710    4.2410   34.1720 C.ar  125  PHE125     -0.0202
    111  CD1        5.4810    5.4020   33.4360 C.ar  125  PHE125     -0.0042
    112  CD2        6.1510    4.3550   35.5210 C.ar  125  PHE125     -0.0042
    113  CE1        5.5790    6.6690   34.0140 C.ar  125  PHE125     -0.0003
    114  CE2        6.2530    5.6250   36.1290 C.ar  125  PHE125     -0.0003
    115  CZ         5.9650    6.7840   35.3690 C.ar  125  PHE125     -0.0000
    116  N          8.1080    4.4870   31.9740 N.am  126  LEU126     -0.1966
    117  CA         9.1530    5.4900   31.9790 C.3   126  LEU126      0.1728
    118  C          8.5660    6.7850   31.5040 C.2   126  LEU126      0.2616
    119  O          7.8980    6.8410   30.4790 O.2   126  LEU126     -0.2715
    120  CB        10.3140    5.0960   31.0390 C.3   126  LEU126      0.0311
    121  CG        11.4900    6.0880   30.8970 C.3   126  LEU126      0.0022
    122  CD1       12.2590    6.2080   32.2170 C.3   126  LEU126      0.0001
    123  CD2       12.4250    5.6980   29.7480 C.3   126  LEU126      0.0001
    124  N          8.8380    7.8410   32.2670 N.am  127  ASN127     -0.1958
    125  CA         8.5460    9.1890   31.8460 C.3   127  ASN127      0.1819
    126  C          9.6280    9.6580   30.8640 C.2   127  ASN127      0.2621
    127  O         10.6720   10.1810   31.2650 O.2   127  ASN127     -0.2715
    128  CB         8.4760   10.1130   33.0810 C.3   127  ASN127      0.1195
    129  CG         8.1390   11.5400   32.7150 C.2   127  ASN127      0.2630
    130  OD1        7.6220   11.8060   31.6300 O.2   127  ASN127     -0.2716
    131  ND2        8.4440   12.4800   33.6180 N.am  127  ASN127     -0.0877
    132  N          9.3820    9.4660   29.5740 N.am  128  LEU128     -0.1963
    133  CA        10.4180    9.7000   28.5770 C.3   128  LEU128      0.1728
    134  C         10.2210   11.0160   27.8570 C.2   128  LEU128      0.2616
    135  O          9.2300   11.2010   27.1380 O.2   128  LEU128     -0.2715
    136  CB        10.4850    8.5480   27.5640 C.3   128  LEU128      0.0311
    137  CG        11.5660    8.7260   26.5040 C.3   128  LEU128      0.0022
    138  CD1       12.8760    8.2300   27.0830 C.3   128  LEU128      0.0001
    139  CD2       11.1820    7.9550   25.2350 C.3   128  LEU128      0.0001
    140  N         11.1900   11.9160   28.0230 N.am  129  GLY129     -0.1955
    141  CA        11.0630   13.2880   27.5060 C.3   129  GLY129      0.1869
    142  C          9.7260   13.8990   27.9270 C.2   129  GLY129      0.2309
    143  O          9.0460   14.5610   27.1220 O.2   129  GLY129     -0.2863
    144  N          6.8400   12.3680   28.4430 N.3   131  THR131     -0.1218
    145  CA         5.7130   11.5450   28.0440 C.3   131  THR131      0.1862
    146  C          5.7760   10.2040   28.7740 C.2   131  THR131      0.2287
    147  O          6.7880    9.4840   28.6760 O.2   131  THR131     -0.2866
    148  CB         5.6840   11.3230   26.5090 C.3   131  THR131      0.1770
    149  OG1        5.8430   12.5840   25.8400 O.3   131  THR131     -0.2211
    150  CG2        4.3530   10.6820   26.0670 C.3   131  THR131      0.0375
    151  N         24.1630    5.5590   26.3670 N.3   143  THR143     -0.1203
    152  CA        23.7390    5.8430   25.0080 C.3   143  THR143      0.1994
    153  C         23.6040    7.3600   24.7630 C.2   143  THR143      0.2618
    154  O         23.3770    8.1300   25.7060 O.2   143  THR143     -0.2717
    155  CB        22.4530    5.0970   24.7060 C.3   143  THR143      0.1784
    156  OG1       21.4470    5.4440   25.6790 O.3   143  THR143     -0.2211
    157  CG2       22.7440    3.5740   24.7440 C.3   143  THR143      0.0376
    158  N         23.7740    7.7690   23.5070 N.am  144  ARG144     -0.1965
    159  CA        23.8560    9.2030   23.1540 C.3   144  ARG144      0.1729
    160  C         23.0150    9.5230   21.9260 C.2   144  ARG144      0.2616
    161  O         22.4780    8.6170   21.2640 O.2   144  ARG144     -0.2715
    162  CB        25.3120    9.6270   22.8770 C.3   144  ARG144      0.0348
    163  CG        26.2760    9.6490   24.0830 C.3   144  ARG144      0.0492
    164  CD        27.3090    8.4860   23.9570 C.3   144  ARG144      0.2205
    165  NE        28.6450    8.7280   24.5590 N.pl3 144  ARG144     -0.0865
    166  CZ        29.0070    8.4020   25.8080 C.cat 144  ARG144      0.5346
    167  NH1       28.1410    7.8280   26.6350 N.pl3 144  ARG144      0.1354
    168  NH2       30.2410    8.6580   26.2440 N.pl3 144  ARG144      0.1354
    169  N         22.9570   10.8180   21.5970 N.am  145  ALA145     -0.1963
    170  CA        22.2310   11.2610   20.4330 C.3   145  ALA145      0.1728
    171  C         22.9090   10.6440   19.2390 C.2   145  ALA145      0.2616
    172  O         24.1330   10.4700   19.2180 O.2   145  ALA145     -0.2715
    173  CB        22.2340   12.7910   20.3280 C.3   145  ALA145      0.0334
    174  N         22.1090   10.3250   18.2440 N.am  146  GLY146     -0.1955
    175  CA        22.6170    9.6750   17.0510 C.3   146  GLY146      0.1869
    176  C         22.4330    8.1710   17.1200 C.2   146  GLY146      0.2309
    177  O         22.6580    7.4730   16.1260 O.2   146  GLY146     -0.2863
    178  N         19.3890    6.7290   18.1990 N.3   148  CYS148     -0.1235
    179  CA        17.9660    6.3390   18.1530 C.3   148  CYS148      0.1677
    180  C         17.5890    5.5290   16.8980 C.2   148  CYS148      0.2270
    181  O         18.0700    5.7880   15.8000 O.2   148  CYS148     -0.2867
    182  CB        17.0160    7.5280   18.3470 C.3   148  CYS148      0.0956
    183  SG        17.0880    8.0710   20.0490 S.3   148  CYS148     -0.0801
    184  N         16.0640    1.3990   19.9860 N.3   162  HIS162     -0.1226
    185  CA        16.5280    2.3370   21.0010 C.3   162  HIS162      0.1752
    186  C         15.8120    3.7140   20.8190 C.2   162  HIS162      0.2596
    187  O         15.7280    4.2800   19.6980 O.2   162  HIS162     -0.2718
    188  CB        18.0550    2.5130   20.9000 C.3   162  HIS162      0.0759
    189  CG        18.6100    3.4780   21.8770 C.ar  162  HIS162      0.0818
    190  ND1       19.0920    3.0980   23.1190 N.ar  162  HIS162     -0.2268
    191  CD2       18.8610    4.8030   21.7560 C.ar  162  HIS162      0.1154
    192  CE1       19.5360    4.1760   23.7500 C.ar  162  HIS162      0.1986
    193  NE2       19.3830    5.2230   22.9570 N.ar  162  HIS162     -0.2212
    194  N         15.2760    4.2540   21.9280 N.am  163  VAL163     -0.1966
    195  CA        14.4740    5.4810   21.7820 C.3   163  VAL163      0.1727
    196  C         14.8740    6.6030   22.7660 C.2   163  VAL163      0.2617
    197  O         14.3810    7.7250   22.6520 O.2   163  VAL163     -0.2715
    198  CB        12.9160    5.2090   21.9860 C.3   163  VAL163      0.0290
    199  CG1       12.4030    4.3020   20.8630 C.3   163  VAL163      0.0023
    200  CG2       12.6730    4.6400   23.3850 C.3   163  VAL163      0.0023
    201  N         15.7100    6.2930   23.7330 N.am  164  GLY164     -0.1940
    202  CA        16.0770    7.3530   24.6600 C.3   164  GLY164      0.2014
    203  C         17.0680    6.8910   25.6940 C.2   164  GLY164      0.2639
    204  O         17.5340    5.7670   25.6890 O.2   164  GLY164     -0.2714
    205  N         17.4360    7.8140   26.5760 N.am  165  GLY165     -0.1939
    206  CA        18.5080    7.5450   27.4990 C.3   165  GLY165      0.2014
    207  C         18.5980    8.7240   28.4420 C.2   165  GLY165      0.2639
    208  O         18.0880    9.8190   28.1630 O.2   165  GLY165     -0.2714
    209  N         19.2160    8.4650   29.5690 N.am  166  ASN166     -0.1958
    210  CA        19.3380    9.4700   30.6550 C.3   166  ASN166      0.1819
    211  C         20.7980    9.8540   30.9360 C.2   166  ASN166      0.2621
    212  O         21.1170   10.5170   31.9370 O.2   166  ASN166     -0.2715
    213  CB        18.6230    8.9440   31.9150 C.3   166  ASN166      0.1195
    214  CG        19.2130    7.6410   32.4380 C.2   166  ASN166      0.2630
    215  OD1       20.4030    7.3410   32.2650 O.2   166  ASN166     -0.2716
    216  ND2       18.3820    6.8750   33.1120 N.am  166  ASN166     -0.0877
    217  N         21.6880    9.4060   30.0660 N.am  167  GLY167     -0.1954
    218  CA        23.1110    9.6620   30.1680 C.3   167  GLY167      0.1869
    219  C         23.8300    8.4910   30.7740 C.2   167  GLY167      0.2309
    220  O         25.0180    8.3150   30.5230 O.2   167  GLY167     -0.2863
    221  N         17.2900    2.9840   26.7150 N.3   171  PHE171     -0.1241
    222  CA        15.9660    2.4000   26.6850 C.3   171  PHE171      0.1605
    223  C         15.5480    2.1350   25.2770 C.2   171  PHE171      0.2264
    224  O         15.6270    3.0250   24.3840 O.2   171  PHE171     -0.2867
    225  CB        14.9510    3.3530   27.3100 C.3   171  PHE171      0.0534
    226  CG        15.3100    3.7580   28.7440 C.ar  171  PHE171     -0.0203
    227  CD1       14.9980    2.9150   29.8010 C.ar  171  PHE171     -0.0042
    228  CD2       16.0020    4.9550   28.9970 C.ar  171  PHE171     -0.0042
    229  CE1       15.3240    3.2680   31.1240 C.ar  171  PHE171     -0.0003
    230  CE2       16.3430    5.3080   30.3350 C.ar  171  PHE171     -0.0003
    231  CZ        16.0070    4.4520   31.3790 C.ar  171  PHE171     -0.0000
@<TRIPOS>BOND
     1    25    23   ar
     2    23    22    1
     3    23    24   ar
     4    22    21    1
     5    29    28    2
     6    16    15    2
     7    61    60    2
     8    21    18    1
     9    18    17    1
    10    18    19    1
    11    60    59    1
    12    26    19   am
    13    26    27    1
    14    15    17   am
    15    15    14    1
    16    28    27    1
    17     1     2    1
    18    84    85    1
    19    19    20    2
    20    27    30    1
    21    32    34   ar
    22    32    31   ar
    23    13    14    1
    24    13     3   am
    25    30    31    1
    26    59    58    1
    27    59    62    1
    28    34    36   ar
    29    85    86    1
    30    85    88    1
    31     2     3    1
    32     2     5    1
    33    31    33   ar
    34     7     9   ar
    35     7     6   ar
    36     9    11   ar
    37     3     4    2
    38    86    87    2
    39    62    63    1
    40     5     6    1
    41     6     8   ar
    42    88    89    1
    43    89    90    1
    44    36    35   ar
    45    33    35   ar
    46    11    12    1
    47    11    10   ar
    48    91    90    1
    49    91    92    1
    50    63    64    1
    51   181   180    2
    52     8    10   ar
    53    64    65    1
    54   177   176    2
    55    40    39    2
    56    51    50    2
    57    50    49    1
    58   180   179    1
    59   175   176    1
    60   175   174    1
    61    39    38    1
    62    39    48   am
    63    38    37    1
    64    38    41    1
    65    65    66    1
    66    49    48    1
    67    49    52    1
    68   179   178    1
    69   179   182    1
    70    42    41    1
    71    42    43    1
    72   174   171   am
    73   182   183    1
    74    55    57   ar
    75    55    53   ar
    76    52    53    1
    77   172   171    2
    78   171   170    1
    79    57    56   ar
    80    53    54   ar
    81    43    44    1
    82    46    45    1
    83    78    77    2
    84   187   186    2
    85    77    76    1
    86   184   185    1
    87    56    54   ar
    88   173   170    1
    89    45    44    2
    90    45    47    1
    91   170   169    1
    92   186   185    1
    93   186   194   am
    94    83    81   ar
    95   199   198    1
    96   188   185    1
    97   188   189    1
    98    76    75    1
    99    76    79    1
   100   161   160    2
   101   169   160   am
   102    81    82   ar
   103    81    80    1
   104   191   189   ar
   105   191   193   ar
   106   195   194    1
   107   195   198    1
   108   195   196    1
   109   189   190   ar
   110   160   159    1
   111   198   200    1
   112    80    79    1
   113    73    72    2
   114   197   196    2
   115   196   201   am
   116   162   159    1
   117   162   163    1
   118   193   192   ar
   119   190   192   ar
   120   159   158    1
   121   158   153   am
   122    72    74   am
   123    72    71    1
   124   201   202    1
   125   164   163    1
   126   164   165    1
   127    68    69    1
   128    68    71    1
   129    68    67    1
   130    69    70    2
   131   224   223    2
   132   165   166    2
   133   202   203    1
   134   155   157    1
   135   155   152    1
   136   155   156    1
   137   153   152    1
   138   153   154    2
   139   152   151    1
   140   139   137    1
   141   223   222    1
   142   204   203    2
   143   203   205   am
   144   166   168    1
   145   166   167    1
   146   149   148    1
   147   150   148    1
   148   137   138    1
   149   137   136    1
   150   148   145    1
   151   205   206    1
   152   222   221    1
   153   222   225    1
   154   143   142    2
   155   135   134    2
   156   225   226    1
   157   206   207    1
   158   141   142    1
   159   141   140    1
   160   136   133    1
   161   134   140   am
   162   134   133    1
   163   145   144    1
   164   145   146    1
   165   208   207    2
   166   207   209   am
   167   133   132    1
   168   147   146    2
   169   226   228   ar
   170   226   227   ar
   171   228   230   ar
   172   209   210    1
   173   132   126   am
   174   123   121    1
   175   227   229   ar
   176   217   218    1
   177   217   211   am
   178   218   219    1
   179   230   231   ar
   180   119   118    2
   181   220   219    2
   182   210   211    1
   183   210   213    1
   184   126   127    2
   185   126   125    1
   186   121   120    1
   187   121   122    1
   188   211   212    2
   189   120   117    1
   190   229   231   ar
   191   118   117    1
   192   118   124   am
   193   130   129    2
   194   125   124    1
   195   125   128    1
   196   213   214    1
   197    93    94    1
   198   116   117    1
   199   116   107   am
   200    97    94    1
   201    97    98    1
   202   215   214    2
   203   214   216   am
   204   106   107    1
   205   106   105    1
   206   106   109    1
   207   129   128    1
   208   129   131   am
   209   100    98   ar
   210   100   102   ar
   211    94    95    1
   212   107   108    2
   213    98    99   ar
   214    95    96    2
   215   111   113   ar
   216   111   110   ar
   217   109   110    1
   218   102   103   ar
   219    99   101   ar
   220   113   115   ar
   221   110   112   ar
   222   103   101   ar
   223   103   104    1
   224   115   114   ar
   225   112   114   ar
