@<TRIPOS>MOLECULE
tmp/3zzbA00.pdb
 211 205 0 0 0
SMALL
GASTEIGER

@<TRIPOS>ATOM
      1  N         14.0420   15.9870   12.9250 N.3    23  TYR23      -0.1227
      2  CA        14.3740   15.8870   14.3360 C.3    23  TYR23       0.1736
      3  C         15.6870   15.0890   14.5540 C.2    23  TYR23       0.2596
      4  O         16.1450   14.9350   15.6680 O.2    23  TYR23      -0.2718
      5  CB        13.1650   15.3080   15.1190 C.3    23  TYR23       0.0548
      6  CG        12.0940   16.3910   15.3300 C.ar   23  TYR23      -0.0200
      7  CD1       11.1500   16.6680   14.3500 C.ar   23  TYR23      -0.0009
      8  CD2       12.0920   17.1770   16.4610 C.ar   23  TYR23      -0.0009
      9  CE1       10.2390   17.6880   14.4970 C.ar   23  TYR23       0.0417
     10  CE2       11.1610   18.2370   16.6200 C.ar   23  TYR23       0.0417
     11  CZ        10.2620   18.4700   15.6210 C.ar   23  TYR23       0.1957
     12  OH         9.3530   19.4730   15.7520 O.3    23  TYR23      -0.2866
     13  N         16.2860   14.6050   13.4700 N.am   24  GLY24      -0.1942
     14  CA        17.5960   14.0250   13.5410 C.3    24  GLY24       0.2014
     15  C         17.7960   12.8350   12.6590 C.2    24  GLY24       0.2639
     16  O         17.0420   12.5850   11.7550 O.2    24  GLY24      -0.2714
     17  N         18.8640   12.1150   12.9210 N.am   25  GLU25      -0.1963
     18  CA        19.2500   11.0010   12.0910 C.3    25  GLU25       0.1733
     19  C         19.0440    9.7080   12.8650 C.2    25  GLU25       0.2616
     20  O         19.4200    9.6050   14.0040 O.2    25  GLU25      -0.2715
     21  CB        20.7120   11.1420   11.7000 C.3    25  GLU25       0.0429
     22  CG        21.1230   10.1200   10.7030 C.3    25  GLU25       0.1163
     23  CD        22.5440   10.3290   10.2510 C.2    25  GLU25       0.3649
     24  OE1       23.2270   11.2640   10.7450 O.co2  25  GLU25      -0.2457
     25  OE2       22.9900    9.5220    9.4300 O.co2  25  GLU25      -0.2457
     26  N         18.4120    8.7240   12.2500 N.am   26  PHE26      -0.1974
     27  CA        18.0360    7.5570   13.0040 C.3    26  PHE26       0.1639
     28  C         18.4260    6.2840   12.2280 C.2    26  PHE26       0.2290
     29  O         18.5290    6.2980   11.0080 O.2    26  PHE26      -0.2864
     30  CB        16.5260    7.5900   13.2520 C.3    26  PHE26       0.0560
     31  CG        16.1000    8.7530   14.1510 C.ar   26  PHE26      -0.0200
     32  CD1       15.8560   10.0100   13.6080 C.ar   26  PHE26      -0.0042
     33  CD2       16.0040    8.5890   15.5180 C.ar   26  PHE26      -0.0042
     34  CE1       15.4950   11.0920   14.4250 C.ar   26  PHE26      -0.0003
     35  CE2       15.6220    9.6450   16.3460 C.ar   26  PHE26      -0.0003
     36  CZ        15.3980   10.9090   15.7850 C.ar   26  PHE26      -0.0000
     37  N          9.3870    7.1990   18.5860 N.3    40  ARG40      -0.1231
     38  CA         8.2890    8.1660   18.3590 C.3    40  ARG40       0.1694
     39  C          8.8880    9.5480   18.2290 C.2    40  ARG40       0.2592
     40  O          8.5000   10.3230   17.3530 O.2    40  ARG40      -0.2718
     41  CB         7.1850    8.1130   19.4340 C.3    40  ARG40       0.0321
     42  CG         6.0000    9.1140   19.2160 C.3    40  ARG40       0.0489
     43  CD         5.4130    9.5720   20.5530 C.3    40  ARG40       0.2205
     44  NE         6.4900    9.8960   21.5260 N.pl3  40  ARG40      -0.0865
     45  CZ         7.1290   11.0740   21.6420 C.cat  40  ARG40       0.5346
     46  NH1        6.8210   12.1280   20.8760 N.pl3  40  ARG40       0.1354
     47  NH2        8.0780   11.2140   22.5520 N.pl3  40  ARG40       0.1354
     48  N          9.9050    9.8070   19.0260 N.am   41  HIS41      -0.1976
     49  CA        10.5170   11.1380   19.0700 C.3    41  HIS41       0.1656
     50  C         11.2890   11.5240   17.8000 C.2    41  HIS41       0.2291
     51  O         11.8370   12.6480   17.7350 O.2    41  HIS41      -0.2864
     52  CB        11.4170   11.2580   20.2780 C.3    41  HIS41       0.0771
     53  CG        12.6460   10.4160   20.1640 C.ar   41  HIS41       0.0820
     54  ND1       12.7890    9.2030   20.8240 N.ar   41  HIS41      -0.2267
     55  CD2       13.7860   10.6070   19.4520 C.ar   41  HIS41       0.1154
     56  CE1       13.9760    8.6970   20.5310 C.ar   41  HIS41       0.1986
     57  NE2       14.5930    9.5210   19.6910 N.ar   41  HIS41      -0.2212
     58  N          2.1250    6.2050   26.1340 N.3    70  ASN70      -0.1240
     59  CA         3.1660    6.1940   25.1020 C.3    70  ASN70       0.1653
     60  C          3.9330    4.8520   25.0230 C.2    70  ASN70       0.2266
     61  O          4.2790    4.2940   26.0460 O.2    70  ASN70      -0.2867
     62  CB         4.1400    7.3560   25.3260 C.3    70  ASN70       0.1155
     63  CG         5.2510    7.3700   24.3150 C.2    70  ASN70       0.2627
     64  OD1        5.0230    7.1980   23.1250 O.2    70  ASN70      -0.2716
     65  ND2        6.4580    7.5690   24.7780 N.am   70  ASN70      -0.0877
     66  N          6.4090    4.7960   22.5000 N.3    72  GLU72      -0.1245
     67  CA         7.6420    5.4580   21.9400 C.3    72  GLU72       0.1567
     68  C          8.0830    4.8330   20.5960 C.2    72  GLU72       0.2260
     69  O          9.2600    4.8410   20.2330 O.2    72  GLU72      -0.2867
     70  CB         8.7920    5.4780   22.9510 C.3    72  GLU72       0.0388
     71  CG         9.9190    6.4390   22.6070 C.3    72  GLU72       0.1160
     72  CD         9.3820    7.8440   22.3740 C.2    72  GLU72       0.3649
     73  OE1        8.4700    8.2740   23.1220 O.co2  72  GLU72      -0.2457
     74  OE2        9.8500    8.5030   21.4320 O.co2  72  GLU72      -0.2457
     75  N         11.5200   -4.0460   31.5230 N.3   123  TYR123     -0.1241
     76  CA        11.5840   -3.0290   32.5210 C.3   123  TYR123      0.1605
     77  C         10.1740   -2.5290   32.7010 C.2   123  TYR123      0.2264
     78  O          9.7500   -2.3140   33.8320 O.2   123  TYR123     -0.2867
     79  CB        12.4700   -1.8990   32.0630 C.3   123  TYR123      0.0534
     80  CG        12.9240   -1.0670   33.1770 C.ar  123  TYR123     -0.0201
     81  CD1       13.8220   -1.5770   34.1040 C.ar  123  TYR123     -0.0009
     82  CD2       12.4590    0.2020   33.3310 C.ar  123  TYR123     -0.0009
     83  CE1       14.2410   -0.8490   35.1560 C.ar  123  TYR123      0.0417
     84  CE2       12.8940    0.9810   34.3940 C.ar  123  TYR123      0.0417
     85  CZ        13.7880    0.4360   35.2950 C.ar  123  TYR123      0.1957
     86  OH        14.2120    1.1560   36.3850 O.3   123  TYR123     -0.2866
     87  N          8.4000    3.3890   32.2810 N.3   126  LEU126     -0.1231
     88  CA         9.5020    4.3430   32.4840 C.3   126  LEU126      0.1693
     89  C          9.0570    5.7120   32.0750 C.2   126  LEU126      0.2592
     90  O          8.6860    5.9060   30.9280 O.2   126  LEU126     -0.2718
     91  CB        10.7060    4.0050   31.5980 C.3   126  LEU126      0.0284
     92  CG        11.8810    5.0130   31.5790 C.3   126  LEU126      0.0019
     93  CD1       12.4980    5.2350   32.9510 C.3   126  LEU126      0.0001
     94  CD2       12.9390    4.5170   30.6450 C.3   126  LEU126      0.0001
     95  N          9.1250    6.6720   32.9920 N.am  127  ASN127     -0.1960
     96  CA         8.9770    8.0900   32.6300 C.3   127  ASN127      0.1819
     97  C         10.2060    8.5590   31.8120 C.2   127  ASN127      0.2621
     98  O         11.2980    8.7700   32.3790 O.2   127  ASN127     -0.2715
     99  CB         8.7500    8.9500   33.8760 C.3   127  ASN127      0.1195
    100  CG         8.4300   10.3930   33.5370 C.2   127  ASN127      0.2630
    101  OD1        9.1410   11.0360   32.7680 O.2   127  ASN127     -0.2716
    102  ND2        7.3540   10.9060   34.0980 N.am  127  ASN127     -0.0877
    103  N         10.0270    8.6980   30.4910 N.am  128  LEU128     -0.1963
    104  CA        11.1500    8.9750   29.5780 C.3   128  LEU128      0.1728
    105  C         11.0210   10.3220   28.9130 C.2   128  LEU128      0.2616
    106  O         10.1040   10.5040   28.1610 O.2   128  LEU128     -0.2715
    107  CB        11.2320    7.8880   28.5010 C.3   128  LEU128      0.0311
    108  CG        12.4760    7.7950   27.6060 C.3   128  LEU128      0.0022
    109  CD1       13.7470    7.6860   28.4240 C.3   128  LEU128      0.0001
    110  CD2       12.2890    6.6040   26.6150 C.3   128  LEU128      0.0001
    111  N         11.9610   11.2390   29.1860 N.am  129  GLY129     -0.1955
    112  CA        11.9010   12.6530   28.7520 C.3   129  GLY129      0.1869
    113  C         10.5850   13.3220   29.1410 C.2   129  GLY129      0.2309
    114  O          9.9870   14.0890   28.3550 O.2   129  GLY129     -0.2863
    115  N          7.7810   11.8170   29.5820 N.3   131  THR131     -0.1218
    116  CA         6.6400   11.0670   29.0560 C.3   131  THR131      0.1862
    117  C          6.5440    9.6640   29.6450 C.2   131  THR131      0.2287
    118  O          7.4310    8.8090   29.4340 O.2   131  THR131     -0.2866
    119  CB         6.7040   10.8820   27.5310 C.3   131  THR131      0.1770
    120  OG1        7.0260   12.1250   26.8960 O.3   131  THR131     -0.2211
    121  CG2        5.3790   10.3360   27.0080 C.3   131  THR131      0.0375
    122  N         24.8280    4.6030   27.0430 N.3   143  THR143     -0.1203
    123  CA        23.9760    5.1570   25.9910 C.3   143  THR143      0.1994
    124  C         24.4890    6.4710   25.3890 C.2   143  THR143      0.2618
    125  O         25.2110    7.2240   26.0730 O.2   143  THR143     -0.2717
    126  CB        22.6090    5.4640   26.6140 C.3   143  THR143      0.1784
    127  OG1       22.7980    6.0370   27.9210 O.3   143  THR143     -0.2211
    128  CG2       21.8250    4.2080   26.7620 C.3   143  THR143      0.0376
    129  N         24.1150    6.7620   24.1380 N.am  144  ARG144     -0.1965
    130  CA        24.4660    8.0580   23.5110 C.3   144  ARG144      0.1729
    131  C         23.3900    8.6010   22.5670 C.2   144  ARG144      0.2616
    132  O         22.6690    7.8170   21.8930 O.2   144  ARG144     -0.2715
    133  CB        25.7910    7.9610   22.7260 C.3   144  ARG144      0.0348
    134  CG        27.0880    7.8380   23.5590 C.3   144  ARG144      0.0492
    135  CD        27.5110    9.1540   24.2620 C.3   144  ARG144      0.2205
    136  NE        28.6420    8.9760   25.1900 N.pl3 144  ARG144     -0.0865
    137  CZ        28.5900    8.3400   26.3600 C.cat 144  ARG144      0.5346
    138  NH1       27.4640    7.7810   26.7850 N.pl3 144  ARG144      0.1354
    139  NH2       29.6880    8.2560   27.1090 N.pl3 144  ARG144      0.1354
    140  N         23.3290    9.9460   22.4840 N.am  145  ALA145     -0.1963
    141  CA        22.5090   10.6430   21.5170 C.3   145  ALA145      0.1728
    142  C         22.9350   10.1520   20.1390 C.2   145  ALA145      0.2616
    143  O         24.1100    9.8630   19.9270 O.2   145  ALA145     -0.2715
    144  CB        22.7450   12.1240   21.6210 C.3   145  ALA145      0.0334
    145  N         21.9790   10.0020   19.2300 N.am  146  GLY146     -0.1955
    146  CA        22.2540    9.5110   17.8830 C.3   146  GLY146      0.1869
    147  C         22.0720    8.0090   17.6990 C.2   146  GLY146      0.2309
    148  O         22.1300    7.5030   16.5490 O.2   146  GLY146     -0.2863
    149  N         19.3230    6.2890   18.8360 N.3   148  CYS148     -0.1235
    150  CA        17.9270    5.9420   18.7850 C.3   148  CYS148      0.1677
    151  C         17.5380    5.3410   17.4400 C.2   148  CYS148      0.2270
    152  O         17.9670    5.7830   16.3730 O.2   148  CYS148     -0.2867
    153  CB        17.0380    7.1320   19.1880 C.3   148  CYS148      0.0956
    154  SG        17.1600    7.4430   20.9000 S.3   148  CYS148     -0.0801
    155  N         15.9180    1.0050   20.1940 N.3   162  HIS162     -0.1226
    156  CA        16.4840    1.8740   21.2000 C.3   162  HIS162      0.1752
    157  C         15.7950    3.2260   21.1620 C.2   162  HIS162      0.2596
    158  O         15.6700    3.8200   20.1120 O.2   162  HIS162     -0.2718
    159  CB        17.9930    2.0570   21.0180 C.3   162  HIS162      0.0759
    160  CG        18.6180    2.8450   22.1220 C.ar  162  HIS162      0.0818
    161  ND1       18.9710    2.2840   23.3290 N.ar  162  HIS162     -0.2268
    162  CD2       18.9100    4.1640   22.2200 C.ar  162  HIS162      0.1154
    163  CE1       19.4340    3.2210   24.1370 C.ar  162  HIS162      0.1986
    164  NE2       19.4050    4.3720   23.4870 N.ar  162  HIS162     -0.2212
    165  N         15.3400    3.7190   22.3020 N.am  163  VAL163     -0.1966
    166  CA        14.5800    4.9790   22.2510 C.3   163  VAL163      0.1727
    167  C         15.0430    5.9820   23.2620 C.2   163  VAL163      0.2617
    168  O         14.6630    7.1350   23.2110 O.2   163  VAL163     -0.2715
    169  CB        13.0620    4.7500   22.4440 C.3   163  VAL163      0.0290
    170  CG1       12.5170    3.9940   21.2870 C.3   163  VAL163      0.0023
    171  CG2       12.7910    4.0650   23.8400 C.3   163  VAL163      0.0023
    172  N         15.8550    5.5400   24.1990 N.am  164  GLY164     -0.1940
    173  CA        16.2500    6.4210   25.2880 C.3   164  GLY164      0.2014
    174  C         17.2710    5.7850   26.1610 C.2   164  GLY164      0.2639
    175  O         17.6520    4.6330   25.9660 O.2   164  GLY164     -0.2714
    176  N         17.7090    6.5340   27.1490 N.am  165  GLY165     -0.1939
    177  CA        18.8940    6.1830   27.8990 C.3   165  GLY165      0.2014
    178  C         19.1780    7.2660   28.9030 C.2   165  GLY165      0.2639
    179  O         18.7710    8.4260   28.7090 O.2   165  GLY165     -0.2714
    180  N         19.8030    6.8530   30.0050 N.am  166  ASN166     -0.1958
    181  CA        20.3670    7.7470   31.0120 C.3   166  ASN166      0.1819
    182  C         21.5090    7.0560   31.6990 C.2   166  ASN166      0.2621
    183  O         21.3600    5.9600   32.2780 O.2   166  ASN166     -0.2715
    184  CB        19.3450    8.1720   32.0600 C.3   166  ASN166      0.1195
    185  CG        19.8080    9.3940   32.8770 C.2   166  ASN166      0.2630
    186  OD1       19.1380    9.7980   33.8390 O.2   166  ASN166     -0.2716
    187  ND2       20.9510    9.9950   32.4820 N.am  166  ASN166     -0.0877
    188  N         22.6570    7.7000   31.6070 N.am  167  GLY167     -0.1954
    189  CA        23.8380    7.2620   32.3130 C.3   167  GLY167      0.1869
    190  C         24.5110    6.0870   31.6450 C.2   167  GLY167      0.2309
    191  O         25.2880    6.2670   30.7240 O.2   167  GLY167     -0.2863
    192  N         22.4710    3.1340   31.3880 N.3   169  GLN169     -0.1245
    193  CA        21.3120    2.2910   31.3030 C.3   169  GLN169      0.1566
    194  C         20.6290    2.7160   30.0200 C.2   169  GLN169      0.2260
    195  O         20.4270    3.9310   29.7880 O.2   169  GLN169     -0.2867
    196  CB        20.4490    2.5520   32.5110 C.3   169  GLN169      0.0367
    197  CG        19.8890    1.3440   33.1990 C.3   169  GLN169      0.0905
    198  CD        19.0120    1.7460   34.3620 C.2   169  GLN169      0.2608
    199  OE1       18.5190    2.8790   34.4250 O.2   169  GLN169     -0.2717
    200  NE2       18.8210    0.8280   35.3020 N.am  169  GLN169     -0.0878
    201  N         17.4940    1.9000   26.9030 N.3   171  PHE171     -0.1241
    202  CA        16.1130    1.4360   26.8870 C.3   171  PHE171      0.1605
    203  C         15.6100    1.2950   25.4570 C.2   171  PHE171      0.2264
    204  O         15.7740    2.1810   24.6330 O.2   171  PHE171     -0.2867
    205  CB        15.1590    2.3710   27.6470 C.3   171  PHE171      0.0534
    206  CG        15.4320    2.5010   29.1200 C.ar  171  PHE171     -0.0203
    207  CD1       14.8420    1.6190   30.0370 C.ar  171  PHE171     -0.0042
    208  CD2       16.2170    3.5420   29.5950 C.ar  171  PHE171     -0.0042
    209  CE1       15.0680    1.7600   31.4510 C.ar  171  PHE171     -0.0003
    210  CE2       16.4700    3.6900   30.9880 C.ar  171  PHE171     -0.0003
    211  CZ        15.9010    2.8170   31.9060 C.ar  171  PHE171     -0.0000
@<TRIPOS>BOND
     1    25    23   ar
     2    23    22    1
     3    23    24   ar
     4    22    21    1
     5    29    28    2
     6    21    18    1
     7    16    15    2
     8    18    19    1
     9    18    17    1
    10    28    27    1
    11    26    19   am
    12    26    27    1
    13    15    17   am
    14    15    14    1
    15    19    20    2
    16     1     2    1
    17    27    30    1
    18    30    31    1
    19    13    14    1
    20    13     3   am
    21    32    31   ar
    22    32    34   ar
    23    31    33   ar
    24     2     3    1
    25     2     5    1
    26     7     9   ar
    27     7     6   ar
    28    34    36   ar
    29     9    11   ar
    30     3     4    2
    31     5     6    1
    32     6     8   ar
    33    33    35   ar
    34    11    12    1
    35    11    10   ar
    36    36    35   ar
    37   152   151    2
    38     8    10   ar
    39   148   147    2
    40    40    39    2
    41   151   150    1
    42   147   146    1
    43    51    50    2
    44    50    49    1
    45   146   145    1
    46    39    38    1
    47    39    48   am
    48    38    37    1
    49    38    41    1
    50   150   149    1
    51   150   153    1
    52    48    49    1
    53    49    52    1
    54   153   154    1
    55    42    41    1
    56    42    43    1
    57   145   142   am
    58    55    57   ar
    59    55    53   ar
    60    57    56   ar
    61   143   142    2
    62   158   157    2
    63   142   141    1
    64    53    52    1
    65    53    54   ar
    66   155   156    1
    67    69    68    2
    68    56    54   ar
    69    43    44    1
    70    68    67    1
    71    46    45    1
    72   159   156    1
    73   159   160    1
    74   157   156    1
    75   157   165   am
    76   170   169    1
    77    74    72   ar
    78   141   144    1
    79   141   140    1
    80    44    45    2
    81    45    47    1
    82   132   131    2
    83    67    66    1
    84    67    70    1
    85   160   162   ar
    86   160   161   ar
    87   162   164   ar
    88   166   165    1
    89   166   169    1
    90   166   167    1
    91    72    71    1
    92    72    73   ar
    93   169   171    1
    94   140   131   am
    95   131   130    1
    96    71    70    1
    97   133   130    1
    98   133   134    1
    99    64    63    2
   100   168   167    2
   101   167   172   am
   102   161   163   ar
   103   164   163   ar
   104   130   129    1
   105   134   135    1
   106   129   124   am
   107   172   173    1
   108   135   136    1
   109    63    65   am
   110    63    62    1
   111   204   203    2
   112    60    59    1
   113    60    61    2
   114    59    62    1
   115    59    58    1
   116   136   137    2
   117   173   174    1
   118   124   123    1
   119   124   125    2
   120   203   202    1
   121   175   174    2
   122   123   126    1
   123   123   122    1
   124   174   176   am
   125   137   138    1
   126   137   139    1
   127   126   128    1
   128   126   127    1
   129   110   108    1
   130   202   201    1
   131   202   205    1
   132   120   119    1
   133   121   119    1
   134   176   177    1
   135   119   116    1
   136   108   109    1
   137   108   107    1
   138   205   206    1
   139   177   178    1
   140   106   105    2
   141   114   113    2
   142   107   104    1
   143   179   178    2
   144   112   113    1
   145   112   111    1
   146   178   180   am
   147   105   111   am
   148   105   104    1
   149   116   115    1
   150   116   117    1
   151   206   208   ar
   152   206   207   ar
   153   118   117    2
   154   104   103    1
   155   208   210   ar
   156   195   194    2
   157   180   181    1
   158   194   193    1
   159   207   209   ar
   160   103    97   am
   161    94    92    1
   162   191   190    2
   163    90    89    2
   164   210   211   ar
   165   181   182    1
   166   181   184    1
   167   193   192    1
   168   193   196    1
   169   209   211   ar
   170    75    76    1
   171    92    91    1
   172    92    93    1
   173    91    88    1
   174   188   182   am
   175   188   189    1
   176   190   189    1
   177   182   183    2
   178    97    98    2
   179    97    96    1
   180   184   185    1
   181    79    76    1
   182    79    80    1
   183    89    88    1
   184    89    95   am
   185    87    88    1
   186   187   185   am
   187   196   197    1
   188    76    77    1
   189    96    95    1
   190    96    99    1
   191    77    78    2
   192   101   100    2
   193   185   186    2
   194    80    82   ar
   195    80    81   ar
   196   197   198    1
   197    82    84   ar
   198   100    99    1
   199   100   102   am
   200    81    83   ar
   201   198   199    2
   202   198   200   am
   203    84    85   ar
   204    83    85   ar
   205    85    86    1
