@<TRIPOS>MOLECULE
tmp/3zzcA00.pdb
 210 205 0 0 0
SMALL
GASTEIGER

@<TRIPOS>ATOM
      1  N        -11.1580    3.6300    1.2570 N.3    22  TYR22      -0.1227
      2  CA       -11.1000    2.6630    0.1790 C.3    22  TYR22       0.1736
      3  C        -10.0180    2.9680   -0.8630 C.2    22  TYR22       0.2596
      4  O         -9.8400    2.2100   -1.8100 O.2    22  TYR22      -0.2718
      5  CB       -12.5230    2.3670   -0.3290 C.3    22  TYR22       0.0548
      6  CG       -13.3130    2.0120    0.9210 C.ar   22  TYR22      -0.0200
      7  CD1      -12.9960    0.8460    1.6530 C.ar   22  TYR22      -0.0009
      8  CD2      -14.2400    2.9050    1.4760 C.ar   22  TYR22      -0.0009
      9  CE1      -13.6340    0.5440    2.8630 C.ar   22  TYR22       0.0417
     10  CE2      -14.8990    2.6090    2.6800 C.ar   22  TYR22       0.0417
     11  CZ       -14.5880    1.4300    3.3710 C.ar   22  TYR22       0.1957
     12  OH       -15.2370    1.1300    4.5590 O.3    22  TYR22      -0.2866
     13  N         -9.2620    4.0400   -0.6300 N.am   23  GLY23      -0.1957
     14  CA        -8.1350    4.4020   -1.4950 C.3    23  GLY23       0.1869
     15  C         -7.9090    5.8870   -1.7630 C.2    23  GLY23       0.2309
     16  O         -8.3540    6.7720   -1.0030 O.2    23  GLY23      -0.2863
     17  N         -8.3730    8.8450   -4.8280 N.3    25  PHE25      -0.1241
     18  CA        -9.1170    9.1150   -6.0550 C.3    25  PHE25       0.1605
     19  C         -8.9270   10.5320   -6.5020 C.2    25  PHE25       0.2264
     20  O         -8.5910   11.4070   -5.7060 O.2    25  PHE25      -0.2867
     21  CB       -10.5980    8.8490   -5.8900 C.3    25  PHE25       0.0534
     22  CG       -10.8960    7.4720   -5.3940 C.ar   25  PHE25      -0.0203
     23  CD1      -10.7630    7.1700   -4.0370 C.ar   25  PHE25      -0.0042
     24  CD2      -11.2770    6.4680   -6.2800 C.ar   25  PHE25      -0.0042
     25  CE1      -11.0120    5.8880   -3.5670 C.ar   25  PHE25      -0.0003
     26  CE2      -11.5440    5.1650   -5.8050 C.ar   25  PHE25      -0.0003
     27  CZ       -11.3850    4.8990   -4.4430 C.ar   25  PHE25      -0.0000
     28  N        -18.6010    5.3580   -7.5940 N.3    39  ARG39      -0.1231
     29  CA       -19.4310    4.7530   -6.5070 C.3    39  ARG39       0.1694
     30  C        -18.5610    3.9530   -5.5350 C.2    39  ARG39       0.2592
     31  O        -18.6920    4.0560   -4.3100 O.2    39  ARG39      -0.2718
     32  CB       -20.5930    3.8770   -7.0850 C.3    39  ARG39       0.0321
     33  CG       -21.6260    3.2950   -6.0650 C.3    39  ARG39       0.0489
     34  CD       -22.3210    1.9980   -6.5890 C.3    39  ARG39       0.2205
     35  NE       -21.2340    1.1160   -7.0140 N.pl3  39  ARG39      -0.0865
     36  CZ       -20.5690    0.2850   -6.2090 C.cat  39  ARG39       0.5346
     37  NH1      -20.9670    0.1070   -4.9410 N.pl3  39  ARG39       0.1354
     38  NH2      -19.5220   -0.3910   -6.6950 N.pl3  39  ARG39       0.1354
     39  N        -17.6390    3.1860   -6.0900 N.am   40  HIS40      -0.1976
     40  CA       -16.7940    2.3030   -5.2640 C.3    40  HIS40       0.1656
     41  C        -15.8550    3.0380   -4.2960 C.2    40  HIS40       0.2291
     42  O        -15.3810    2.4520   -3.3210 O.2    40  HIS40      -0.2864
     43  CB       -16.0520    1.2780   -6.1360 C.3    40  HIS40       0.0771
     44  CG       -15.1330    1.8890   -7.1520 C.ar   40  HIS40       0.0820
     45  ND1      -15.5220    2.1390   -8.4590 N.ar   40  HIS40      -0.2267
     46  CD2      -13.8430    2.2880   -7.0580 C.ar   40  HIS40       0.1154
     47  CE1      -14.5050    2.6590   -9.1240 C.ar   40  HIS40       0.1986
     48  NE2      -13.4720    2.7560   -8.2990 N.ar   40  HIS40      -0.2212
     49  N        -26.9760    0.2360  -11.5430 N.3    69  ASN69      -0.1240
     50  CA       -25.8170    1.0060  -11.1090 C.3    69  ASN69       0.1653
     51  C        -25.1850    1.8590  -12.2410 C.2    69  ASN69       0.2266
     52  O        -24.9140    1.3860  -13.3390 O.2    69  ASN69      -0.2867
     53  CB       -24.7580    0.0480  -10.5320 C.3    69  ASN69       0.1155
     54  CG       -23.4900    0.7590  -10.1270 C.2    69  ASN69       0.2627
     55  OD1      -23.5150    1.6840   -9.3430 O.2    69  ASN69      -0.2716
     56  ND2      -22.3680    0.2870  -10.6100 N.am   69  ASN69      -0.0877
     57  N        -22.4680    3.6830  -11.3050 N.3    71  GLU71      -0.1245
     58  CA       -21.0940    3.6730  -10.7690 C.3    71  GLU71       0.1567
     59  C        -20.5540    5.0940  -10.4020 C.2    71  GLU71       0.2260
     60  O        -19.3750    5.3560  -10.3420 O.2    71  GLU71      -0.2867
     61  CB       -20.1440    2.8710  -11.7090 C.3    71  GLU71       0.0388
     62  CG       -18.7830    2.4940  -11.0560 C.3    71  GLU71       0.1160
     63  CD       -18.9660    1.7970   -9.7050 C.2    71  GLU71       0.3649
     64  OE1      -19.9400    0.9940   -9.5900 O.co2  71  GLU71      -0.2457
     65  OE2      -18.1390    2.0540   -8.7760 O.co2  71  GLU71      -0.2457
     66  N        -19.8620    1.7460  -24.9080 N.3   122  TYR122     -0.1241
     67  CA       -19.8620    0.3190  -24.5770 C.3   122  TYR122      0.1605
     68  C        -21.2250   -0.1230  -23.9710 C.2   122  TYR122      0.2264
     69  O        -21.7210   -1.2250  -24.2330 O.2   122  TYR122     -0.2867
     70  CB       -18.7050    0.0760  -23.5970 C.3   122  TYR122      0.0534
     71  CG       -18.2860   -1.3500  -23.3420 C.ar  122  TYR122     -0.0201
     72  CD1      -17.2900   -1.9540  -24.1060 C.ar  122  TYR122     -0.0009
     73  CD2      -18.8540   -2.0810  -22.2940 C.ar  122  TYR122     -0.0009
     74  CE1      -16.8800   -3.2820  -23.8540 C.ar  122  TYR122      0.0417
     75  CE2      -18.4720   -3.4120  -22.0370 C.ar  122  TYR122      0.0417
     76  CZ       -17.4740   -4.0040  -22.8170 C.ar  122  TYR122      0.1957
     77  OH       -17.0770   -5.2920  -22.5260 O.3   122  TYR122     -0.2866
     78  N        -21.9950   -3.1860  -18.8190 N.3   125  LEU125     -0.1231
     79  CA       -20.7840   -3.9260  -18.4350 C.3   125  LEU125      0.1693
     80  C        -20.9190   -4.5430  -17.0680 C.2   125  LEU125      0.2592
     81  O        -21.3800   -3.9060  -16.1060 O.2   125  LEU125     -0.2718
     82  CB       -19.5260   -3.0450  -18.4270 C.3   125  LEU125      0.0284
     83  CG       -18.2020   -3.6750  -17.9090 C.3   125  LEU125      0.0019
     84  CD1      -17.6580   -4.7780  -18.8160 C.3   125  LEU125      0.0001
     85  CD2      -17.1310   -2.6210  -17.6840 C.3   125  LEU125      0.0001
     86  N        -20.4730   -5.7810  -16.9860 N.am  126  TYR126     -0.1962
     87  CA       -20.3640   -6.4250  -15.7180 C.3   126  TYR126      0.1771
     88  C        -19.0630   -6.0460  -15.0520 C.2   126  TYR126      0.2619
     89  O        -18.0500   -6.6920  -15.2460 O.2   126  TYR126     -0.2715
     90  CB       -20.4600   -7.9240  -15.8710 C.3   126  TYR126      0.0574
     91  CG       -21.6720   -8.4060  -15.2030 C.ar  126  TYR126     -0.0198
     92  CD1      -22.9210   -8.3650  -15.8540 C.ar  126  TYR126     -0.0009
     93  CD2      -21.6130   -8.8590  -13.8920 C.ar  126  TYR126     -0.0009
     94  CE1      -24.0880   -8.7910  -15.2050 C.ar  126  TYR126      0.0417
     95  CE2      -22.7720   -9.2930  -13.2410 C.ar  126  TYR126      0.0417
     96  CZ       -24.0060   -9.2590  -13.8980 C.ar  126  TYR126      0.1957
     97  OH       -25.1490   -9.7340  -13.2260 O.3   126  TYR126     -0.2866
     98  N        -19.1030   -4.9820  -14.2540 N.am  127  LEU127     -0.1963
     99  CA       -17.8770   -4.3810  -13.7630 C.3   127  LEU127      0.1728
    100  C        -17.7220   -4.7490  -12.3020 C.2   127  LEU127      0.2617
    101  O        -18.5890   -4.4000  -11.4760 O.2   127  LEU127     -0.2715
    102  CB       -17.9440   -2.8560  -13.9550 C.3   127  LEU127      0.0311
    103  CG       -16.7040   -2.0330  -13.6480 C.3   127  LEU127      0.0022
    104  CD1      -15.5690   -2.5020  -14.5380 C.3   127  LEU127      0.0001
    105  CD2      -17.0160   -0.5110  -13.8760 C.3   127  LEU127      0.0001
    106  N        -16.6250   -5.4400  -11.9940 N.am  128  GLY128     -0.1940
    107  CA       -16.3660   -5.9250  -10.6640 C.3   128  GLY128      0.2014
    108  C        -17.5920   -6.6580  -10.1420 C.2   128  GLY128      0.2639
    109  O        -18.0630   -6.3940   -9.0240 O.2   128  GLY128     -0.2714
    110  N        -18.1400   -7.5460  -10.9720 N.am  129  GLY129     -0.1939
    111  CA       -19.3240   -8.3240  -10.6060 C.3   129  GLY129      0.2014
    112  C        -20.6410   -7.5760  -10.5670 C.2   129  GLY129      0.2639
    113  O        -21.6810   -8.1980  -10.4040 O.2   129  GLY129     -0.2714
    114  N        -20.6210   -6.2530  -10.7180 N.am  130  THR130     -0.1950
    115  CA       -21.8430   -5.4720  -10.6210 C.3   130  THR130      0.1897
    116  C        -22.3240   -5.0810  -12.0210 C.2   130  THR130      0.2313
    117  O        -21.5480   -4.4900  -12.8050 O.2   130  THR130     -0.2863
    118  CB       -21.6330   -4.1590   -9.7990 C.3   130  THR130      0.1794
    119  OG1      -21.0730   -4.4620   -8.5230 O.3   130  THR130     -0.2208
    120  CG2      -22.9510   -3.4090   -9.5940 C.3   130  THR130      0.0378
    121  N         -5.3580    2.0130  -17.2120 N.3   142  THR142     -0.1203
    122  CA        -5.8180    0.7870  -16.5780 C.3   142  THR142      0.1994
    123  C         -4.9600    0.2720  -15.3860 C.2   142  THR142      0.2618
    124  O         -4.5240   -0.9020  -15.3840 O.2   142  THR142     -0.2717
    125  CB        -6.2600   -0.3210  -17.6890 C.3   142  THR142      0.1784
    126  OG1       -7.0190   -1.3900  -17.1040 O.3   142  THR142     -0.2211
    127  CG2       -5.0740   -0.8840  -18.4920 C.3   142  THR142      0.0376
    128  N         -4.7410    1.1470  -14.3790 N.am  143  ARG143     -0.1965
    129  CA        -4.1920    0.6910  -13.0930 C.3   143  ARG143      0.1729
    130  C         -4.9500    1.2520  -11.8930 C.2   143  ARG143      0.2616
    131  O         -5.6740    2.2450  -11.9940 O.2   143  ARG143     -0.2715
    132  CB        -2.6380    0.7830  -12.9870 C.3   143  ARG143      0.0348
    133  CG        -2.0030    2.0040  -12.2920 C.3   143  ARG143      0.0492
    134  CD        -2.0830    1.9680  -10.7580 C.3   143  ARG143      0.2205
    135  NE        -1.2040    1.0220  -10.0580 N.pl3 143  ARG143     -0.0865
    136  CZ        -0.0080    0.6530  -10.4910 C.cat 143  ARG143      0.5346
    137  NH1        0.4790    1.1530  -11.6310 N.pl3 143  ARG143      0.1354
    138  NH2        0.7070   -0.2040   -9.7810 N.pl3 143  ARG143      0.1354
    139  N         -4.8130    0.5600  -10.7650 N.am  144  ALA144     -0.1963
    140  CA        -5.4130    0.9550   -9.4850 C.3   144  ALA144      0.1728
    141  C         -4.9460    2.3600   -9.1820 C.2   144  ALA144      0.2616
    142  O         -3.8310    2.7180   -9.5420 O.2   144  ALA144     -0.2715
    143  CB        -4.9310   -0.0020   -8.3710 C.3   144  ALA144      0.0334
    144  N         -5.7590    3.1680   -8.5200 N.am  145  GLY145     -0.1955
    145  CA        -5.3050    4.5390   -8.2200 C.3   145  GLY145      0.1869
    146  C         -5.6890    5.6350   -9.2160 C.2   145  GLY145      0.2309
    147  O         -5.5890    6.8260   -8.8990 O.2   145  GLY145     -0.2863
    148  N         -8.8720    5.7120  -10.6890 N.3   147  CYS147     -0.1235
    149  CA       -10.3090    5.9380  -10.7170 C.3   147  CYS147      0.1677
    150  C        -10.6370    7.3370  -10.2300 C.2   147  CYS147      0.2270
    151  O         -9.9450    7.8710   -9.3670 O.2   147  CYS147     -0.2867
    152  CB       -11.0610    4.8990   -9.8910 C.3   147  CYS147      0.0956
    153  SG       -11.1460    3.3450  -10.7530 S.3   147  CYS147     -0.0801
    154  N        -13.4230    8.0220  -14.8060 N.3   161  HIS161     -0.1226
    155  CA       -12.8550    6.7070  -15.0060 C.3   161  HIS161      0.1752
    156  C        -13.1530    5.8040  -13.7870 C.2   161  HIS161      0.2596
    157  O        -12.8980    6.1740  -12.6230 O.2   161  HIS161     -0.2718
    158  CB       -11.3410    6.8170  -15.3190 C.3   161  HIS161      0.0759
    159  CG       -10.6540    5.4840  -15.4020 C.ar  161  HIS161      0.0818
    160  ND1      -10.6700    4.7110  -16.5490 N.ar  161  HIS161     -0.2268
    161  CD2      -10.0040    4.7510  -14.4590 C.ar  161  HIS161      0.1154
    162  CE1      -10.0530    3.5570  -16.3050 C.ar  161  HIS161      0.1986
    163  NE2       -9.6120    3.5690  -15.0530 N.ar  161  HIS161     -0.2212
    164  N        -13.7190    4.6350  -14.0640 N.am  162  VAL162     -0.1966
    165  CA       -14.1850    3.7450  -12.9780 C.3   162  VAL162      0.1727
    166  C        -13.6710    2.3050  -12.9540 C.2   162  VAL162      0.2617
    167  O        -13.8510    1.5990  -11.9610 O.2   162  VAL162     -0.2715
    168  CB       -15.7500    3.6790  -12.8600 C.3   162  VAL162      0.0290
    169  CG1      -16.3430    5.0390  -12.4170 C.3   162  VAL162      0.0023
    170  CG2      -16.4220    3.1530  -14.1540 C.3   162  VAL162      0.0023
    171  N        -13.0860    1.8240  -14.0380 N.am  163  GLY163     -0.1940
    172  CA       -12.7170    0.4170  -14.0690 C.3   163  GLY163      0.2014
    173  C        -11.9950    0.0670  -15.3360 C.2   163  GLY163      0.2639
    174  O        -11.8080    0.9230  -16.2130 O.2   163  GLY163     -0.2714
    175  N        -11.5950   -1.2000  -15.4420 N.am  164  GLY164     -0.1939
    176  CA       -10.7490   -1.6010  -16.5420 C.3   164  GLY164      0.2014
    177  C        -10.2800   -3.0250  -16.3850 C.2   164  GLY164      0.2639
    178  O        -10.4220   -3.6270  -15.3340 O.2   164  GLY164     -0.2714
    179  N         -9.7800   -3.5730  -17.4730 N.am  165  ASN165     -0.1958
    180  CA        -9.2270   -4.9090  -17.5010 C.3   165  ASN165      0.1819
    181  C         -8.3430   -4.9730  -18.7300 C.2   165  ASN165      0.2621
    182  O         -8.8230   -4.6920  -19.8600 O.2   165  ASN165     -0.2715
    183  CB       -10.3250   -5.9650  -17.6310 C.3   165  ASN165      0.1195
    184  CG        -9.7720   -7.4060  -17.4870 C.2   165  ASN165      0.2630
    185  OD1      -10.2640   -8.2080  -16.6760 O.2   165  ASN165     -0.2716
    186  ND2       -8.7430   -7.7240  -18.2640 N.am  165  ASN165     -0.0877
    187  N         -7.0720   -5.3410  -18.5040 N.am  166  GLY166     -0.1954
    188  CA        -6.0960   -5.4990  -19.5990 C.3   166  GLY166      0.1869
    189  C         -5.7410   -4.1170  -20.1110 C.2   166  GLY166      0.2309
    190  O         -5.4250   -3.2700  -19.3030 O.2   166  GLY166     -0.2863
    191  N         -7.9520   -2.2220  -21.5450 N.3   168  GLN168     -0.1245
    192  CA        -9.2280   -1.5040  -21.7290 C.3   168  GLN168      0.1566
    193  C         -9.5390   -0.6660  -20.4950 C.2   168  GLN168      0.2260
    194  O         -9.3220   -1.1300  -19.4070 O.2   168  GLN168     -0.2867
    195  CB       -10.3760   -2.4800  -21.9610 C.3   168  GLN168      0.0367
    196  CG       -10.2380   -3.4340  -23.1570 C.3   168  GLN168      0.0905
    197  CD       -11.6040   -3.8830  -23.6740 C.2   168  GLN168      0.2608
    198  OE1      -12.4600   -4.3150  -22.9100 O.2   168  GLN168     -0.2717
    199  NE2      -11.8160   -3.7450  -24.9850 N.am  168  GLN168     -0.0878
    200  N        -12.6100    2.0580  -18.6220 N.3   170  PHE170     -0.1241
    201  CA       -14.0470    2.3820  -18.6230 C.3   170  PHE170      0.1605
    202  C        -14.3990    3.5760  -17.7580 C.2   170  PHE170      0.2264
    203  O        -14.0210    3.6350  -16.5770 O.2   170  PHE170     -0.2867
    204  CB       -14.8640    1.1760  -18.1470 C.3   170  PHE170      0.0534
    205  CG       -14.7170   -0.0580  -19.0590 C.ar  170  PHE170     -0.0203
    206  CD1      -15.5140   -0.2010  -20.1890 C.ar  170  PHE170     -0.0042
    207  CD2      -13.8070   -1.0660  -18.7620 C.ar  170  PHE170     -0.0042
    208  CE1      -15.3960   -1.3430  -21.0250 C.ar  170  PHE170     -0.0003
    209  CE2      -13.6860   -2.1960  -19.5880 C.ar  170  PHE170     -0.0003
    210  CZ       -14.4760   -2.3220  -20.7220 C.ar  170  PHE170     -0.0000
@<TRIPOS>BOND
     1   199   197   am
     2    66    67    1
     3    67    68    1
     4    67    70    1
     5    69    68    2
     6    72    74   ar
     7    72    71   ar
     8    74    76   ar
     9   197   196    1
    10   197   198    2
    11    70    71    1
    12    71    73   ar
    13   196   195    1
    14    76    77    1
    15    76    75   ar
    16    73    75   ar
    17   195   192    1
    18   192   191    1
    19   192   193    1
    20   208   210   ar
    21   208   206   ar
    22   210   209   ar
    23   193   194    2
    24   206   205   ar
    25   189   188    1
    26   189   190    2
    27   182   181    2
    28   188   187    1
    29   209   207   ar
    30   205   207   ar
    31   205   204    1
    32    78    79    1
    33    84    83    1
    34   181   187   am
    35   181   180    1
    36   201   200    1
    37   201   204    1
    38   201   202    1
    39   127   125    1
    40    79    82    1
    41    79    80    1
    42    82    83    1
    43   186   184   am
    44    83    85    1
    45   202   203    2
    46   125   126    1
    47   125   122    1
    48   183   180    1
    49   183   184    1
    50   180   179    1
    51   184   185    2
    52   179   177   am
    53   121   122    1
    54    80    86   am
    55    80    81    2
    56    86    87    1
    57   122   123    1
    58   160   162   ar
    59   160   159   ar
    60   176   177    1
    61   176   175    1
    62   177   178    2
    63   162   163   ar
    64   174   173    2
    65    90    87    1
    66    90    91    1
    67    92    94   ar
    68    92    91   ar
    69    87    88    1
    70   175   173   am
    71   159   158    1
    72   159   161   ar
    73   123   124    2
    74   123   128   am
    75   173   172    1
    76   158   155    1
    77    89    88    2
    78    94    96   ar
    79    91    93   ar
    80   163   161   ar
    81    88    98   am
    82   155   154    1
    83   155   156    1
    84   104   103    1
    85   128   129    1
    86    98    99    1
    87   170   168    1
    88   172   171    1
    89   164   156   am
    90   164   165    1
    91   171   166   am
    92   102    99    1
    93   102   103    1
    94    96    95   ar
    95    96    97    1
    96    93    95   ar
    97   105   103    1
    98   156   157    2
    99    99   100    1
   100    52    51    2
   101   129   132    1
   102   129   130    1
   103   132   133    1
   104   165   166    1
   105   165   168    1
   106   166   167    2
   107   168   169    1
   108   117   116    2
   109   100   106   am
   110   100   101    2
   111   133   134    1
   112    51    50    1
   113   116   115    1
   114   131   130    2
   115   106   107    1
   116   130   139   am
   117    61    62    1
   118    61    58    1
   119   137   136    1
   120    49    50    1
   121    57    58    1
   122    50    53    1
   123    62    63    1
   124   110   111    1
   125   110   108   am
   126    58    59    1
   127   139   140    1
   128   134   135    1
   129   153   152    1
   130   114   115    1
   131   114   112   am
   132   149   148    1
   133   149   150    1
   134   149   152    1
   135   107   108    1
   136   115   118    1
   137    56    54   am
   138   111   112    1
   139   112   113    2
   140    53    54    1
   141   136   135    2
   142   136   138    1
   143    59    60    2
   144   150   151    2
   145   108   109    2
   146    54    55    2
   147   118   120    1
   148   118   119    1
   149    63    64   ar
   150    63    65   ar
   151   142   141    2
   152   140   141    1
   153   140   143    1
   154   146   147    2
   155   146   145    1
   156   141   144   am
   157    47    45   ar
   158    47    48   ar
   159   144   145    1
   160    45    44   ar
   161    48    46   ar
   162    28    29    1
   163    44    46   ar
   164    44    43    1
   165    32    29    1
   166    32    33    1
   167    35    34    1
   168    35    36    2
   169    38    36    1
   170    34    33    1
   171    29    30    1
   172    19    18    1
   173    19    20    2
   174    24    26   ar
   175    24    22   ar
   176    36    37    1
   177    43    40    1
   178    39    30   am
   179    39    40    1
   180    18    21    1
   181    18    17    1
   182    21    22    1
   183    26    27   ar
   184    30    31    2
   185    22    23   ar
   186    40    41    1
   187    27    25   ar
   188    41    42    2
   189    23    25   ar
   190     4     3    2
   191    15    14    1
   192    15    16    2
   193    14    13    1
   194     3    13   am
   195     3     2    1
   196     5     2    1
   197     5     6    1
   198     2     1    1
   199     6     8   ar
   200     6     7   ar
   201     8    10   ar
   202     7     9   ar
   203    10    11   ar
   204     9    11   ar
   205    11    12    1
