@<TRIPOS>MOLECULE
tmp/3zzeA00.pdb
 168 158 0 0 0
SMALL
GASTEIGER

@<TRIPOS>ATOM
      1  N         16.5800    4.7940   -1.1580 N.3    26  ILE26      -0.1231
      2  CA        16.2310    6.1390   -0.7130 C.3    26  ILE26       0.1692
      3  C         17.4030    7.0940   -0.9000 C.2    26  ILE26       0.2593
      4  O         17.2320    8.2250   -1.3550 O.2    26  ILE26      -0.2718
      5  CB        15.8220    6.1500    0.7700 C.3    26  ILE26       0.0266
      6  CG1       14.4970    5.4020    0.9480 C.3    26  ILE26       0.0019
      7  CG2       15.7150    7.5800    1.2650 C.3    26  ILE26       0.0020
      8  CD1       14.0840    5.2170    2.3900 C.3    26  ILE26       0.0001
      9  N         18.5970    6.6360   -0.5440 N.am   27  GLY27      -0.1942
     10  CA        19.7750    7.4660   -0.7110 C.3    27  GLY27       0.2014
     11  C         21.0440    6.6460   -0.6720 C.2    27  GLY27       0.2638
     12  O         21.0180    5.4650   -0.3320 O.2    27  GLY27      -0.2714
     13  N         22.1620    7.2740   -1.0150 N.am   28  ARG28      -0.1977
     14  CA        23.4350    6.5690   -1.0580 C.3    28  ARG28       0.1597
     15  C         24.4590    7.2050   -0.1280 C.2    28  ARG28       0.2287
     16  O         24.7100    8.4130   -0.1860 O.2    28  ARG28      -0.2864
     17  CB        23.9690    6.5540   -2.4910 C.3    28  ARG28       0.0334
     18  CG        22.9470    6.0520   -3.4990 C.3    28  ARG28       0.0492
     19  CD        23.4400    6.1750   -4.9320 C.3    28  ARG28       0.2205
     20  NE        22.4350    5.6880   -5.8740 N.pl3  28  ARG28      -0.0865
     21  CZ        22.2800    4.4080   -6.2020 C.cat  28  ARG28       0.5346
     22  NH1       23.0670    3.4860   -5.6660 N.pl3  28  ARG28       0.1354
     23  NH2       21.3320    4.0500   -7.0610 N.pl3  28  ARG28       0.1354
     24  N         20.6610    3.6100    1.8060 N.3    34  VAL34      -0.1245
     25  CA        19.4320    3.5300    2.5810 C.3    34  VAL34       0.1561
     26  C         18.3400    2.9920    1.6690 C.2    34  VAL34       0.2260
     27  O         18.1980    3.4490    0.5340 O.2    34  VAL34      -0.2867
     28  CB        19.0100    4.9210    3.1080 C.3    34  VAL34       0.0252
     29  CG1       17.7200    4.8070    3.8940 C.3    34  VAL34       0.0019
     30  CG2       20.1170    5.5080    3.9830 C.3    34  VAL34       0.0019
     31  N         13.1970    3.2610    7.2300 N.3    50  ALA50      -0.1245
     32  CA        14.3740    3.3730    6.3830 C.3    50  ALA50       0.1562
     33  C         15.4540    2.4430    6.9120 C.2    50  ALA50       0.2260
     34  O         15.7210    2.4080    8.1130 O.2    50  ALA50      -0.2867
     35  CB        14.8800    4.8050    6.3750 C.3    50  ALA50       0.0290
     36  N         19.3690    1.4660    6.7940 N.3    52  LYS52      -0.1245
     37  CA        20.7110    1.8890    6.4190 C.3    52  LYS52       0.1561
     38  C         21.6580    0.7010    6.4570 C.2    52  LYS52       0.2260
     39  O         21.8770    0.1040    7.5130 O.2    52  LYS52      -0.2867
     40  CB        21.2160    2.9730    7.3800 C.3    52  LYS52       0.0271
     41  CG        22.6360    3.4570    7.0990 C.3    52  LYS52       0.0035
     42  CD        22.7370    4.1060    5.7240 C.3    52  LYS52       0.0206
     43  CE        23.9400    5.0410    5.6210 C.3    52  LYS52       0.1093
     44  NZ        25.2240    4.3610    5.9290 N.3    52  LYS52      -0.1314
     45  N         16.3770   12.5020   15.2330 N.3    82  LEU82      -0.1245
     46  CA        16.0600   11.2090   14.6290 C.3    82  LEU82       0.1561
     47  C         16.2550   10.0930   15.6490 C.2    82  LEU82       0.2260
     48  O         17.2940   10.0160   16.3070 O.2    82  LEU82      -0.2867
     49  CB        16.9610   10.9400   13.4240 C.3    82  LEU82       0.0270
     50  CG        16.6800    9.6180   12.7000 C.3    82  LEU82       0.0019
     51  CD1       15.3710    9.7320   11.9350 C.3    82  LEU82       0.0001
     52  CD2       17.8310    9.2850   11.7550 C.3    82  LEU82       0.0001
     53  N         15.6660    2.8880   10.9750 N.3    99  LEU99      -0.1231
     54  CA        15.2150    4.1830   11.4590 C.3    99  LEU99       0.1678
     55  C         13.8050    4.4740   10.9660 C.2    99  LEU99       0.2434
     56  O         13.3400    3.8730    9.9990 O.2    99  LEU99      -0.2733
     57  CB        16.1880    5.2590   10.9850 C.3    99  LEU99       0.0284
     58  CG        17.5810    4.7390   11.3590 C.3    99  LEU99       0.0019
     59  CD1       18.4920    4.8040   10.1640 C.3    99  LEU99       0.0001
     60  CD2       18.1240    5.4850   12.5540 C.3    99  LEU99       0.0001
     61  N         13.1030    5.3990   11.6350 N.am  100  PRO100     -0.2718
     62  CA        11.7810    5.8200   11.1650 C.3   100  PRO100      0.1535
     63  C         11.9100    6.3920    9.7590 C.2   100  PRO100      0.2599
     64  O         12.8770    7.1000    9.4570 O.2   100  PRO100     -0.2715
     65  CB        11.3610    6.8970   12.1690 C.3   100  PRO100      0.0310
     66  CG        12.2290    6.6780   13.3610 C.3   100  PRO100      0.0237
     67  CD        13.5250    6.1410   12.8340 C.3   100  PRO100      0.0939
     68  N         10.9400    6.0880    8.9050 N.am  101  TYR101     -0.1960
     69  CA        10.9180    6.6430    7.5590 C.3   101  TYR101      0.1771
     70  C         10.5720    8.1250    7.6340 C.2   101  TYR101      0.2619
     71  O          9.6350    8.5160    8.3330 O.2   101  TYR101     -0.2715
     72  CB         9.8830    5.9090    6.7010 C.3   101  TYR101      0.0574
     73  CG         9.7510    6.4460    5.2930 C.ar  101  TYR101     -0.0198
     74  CD1       10.8550    6.5270    4.4550 C.ar  101  TYR101     -0.0009
     75  CD2        8.5180    6.8650    4.7980 C.ar  101  TYR101     -0.0009
     76  CE1       10.7400    7.0060    3.1660 C.ar  101  TYR101      0.0417
     77  CE2        8.3910    7.3470    3.5110 C.ar  101  TYR101      0.0417
     78  CZ         9.5060    7.4160    2.6980 C.ar  101  TYR101      0.1957
     79  OH         9.3940    7.8930    1.4130 O.3   101  TYR101     -0.2866
     80  N         11.3420    8.9410    6.9210 N.am  102  MET102     -0.1977
     81  CA        11.1180   10.3800    6.8740 C.3   102  MET102      0.1605
     82  C         10.5170   10.7350    5.5190 C.2   102  MET102      0.2287
     83  O         11.2260   10.8530    4.5160 O.2   102  MET102     -0.2864
     84  CB        12.4410   11.1270    7.0760 C.3   102  MET102      0.0413
     85  CG        13.0820   10.8900    8.4470 C.3   102  MET102      0.0598
     86  SD        12.1990   11.7140    9.7940 S.3   102  MET102     -0.1393
     87  CE        11.4800   10.3220   10.6780 C.3   102  MET102      0.0692
     88  N         15.2270   15.0830    3.0520 N.3   106  ASP106     -0.1239
     89  CA        16.1300   16.0260    3.7010 C.3   106  ASP106      0.1674
     90  C         15.6710   17.4700    3.5200 C.2   106  ASP106      0.2266
     91  O         15.0420   17.8250    2.5180 O.2   106  ASP106     -0.2867
     92  CB        17.5620   15.8570    3.1750 C.3   106  ASP106      0.1410
     93  CG        17.7440   16.4010    1.7700 C.2   106  ASP106      0.3668
     94  OD1       17.4090   15.6850    0.8000 O.co2 106  ASP106     -0.2456
     95  OD2       18.2310   17.5450    1.6370 O.co2 106  ASP106     -0.2456
     96  N         16.7560   19.7000    0.1360 N.3   109  ASN109     -0.1240
     97  CA        15.9890   19.4160   -1.0690 C.3   109  ASN109      0.1653
     98  C         14.5480   19.8830   -0.9130 C.2   109  ASN109      0.2266
     99  O         13.9160   20.2930   -1.8850 O.2   109  ASN109     -0.2867
    100  CB        16.0250   17.9180   -1.3930 C.3   109  ASN109      0.1155
    101  CG        17.2520   17.5290   -2.2020 C.2   109  ASN109      0.2627
    102  OD1       17.6350   18.2290   -3.1410 O.2   109  ASN109     -0.2716
    103  ND2       17.8790   16.4150   -1.8380 N.am  109  ASN109     -0.0877
    104  N         21.2600   19.7280    4.6390 N.3   150  ARG150     -0.1231
    105  CA        21.1940   18.4360    3.9580 C.3   150  ARG150      0.1694
    106  C         21.0500   17.2780    4.9440 C.2   150  ARG150      0.2592
    107  O         20.5870   16.2030    4.5750 O.2   150  ARG150     -0.2718
    108  CB        22.4480   18.2130    3.1080 C.3   150  ARG150      0.0321
    109  CG        23.7160   18.0860    3.9350 C.3   150  ARG150      0.0489
    110  CD        24.9360   17.7130    3.1040 C.3   150  ARG150      0.2205
    111  NE        26.1420   17.8540    3.9160 N.pl3 150  ARG150     -0.0865
    112  CZ        26.7680   19.0070    4.1190 C.cat 150  ARG150      0.5346
    113  NH1       26.3160   20.1190    3.5610 N.pl3 150  ARG150      0.1354
    114  NH2       27.8230   19.0580    4.9150 N.pl3 150  ARG150      0.1354
    115  N         21.4490   17.4900    6.1950 N.am  151  ASN151     -0.1974
    116  CA        21.4890   16.3930    7.1590 C.3   151  ASN151      0.1688
    117  C         20.3710   16.4260    8.1940 C.2   151  ASN151      0.2292
    118  O         20.4460   15.7620    9.2320 O.2   151  ASN151     -0.2864
    119  CB        22.8510   16.3610    7.8550 C.3   151  ASN151      0.1181
    120  CG        23.9630   15.9320    6.9200 C.2   151  ASN151      0.2629
    121  OD1       23.7200   15.2240    5.9470 O.2   151  ASN151     -0.2716
    122  ND2       25.1870   16.3610    7.2060 N.am  151  ASN151     -0.0877
    123  N         16.0870   15.8590    8.4090 N.3   153  MET153     -0.1245
    124  CA        15.0000   15.2200    7.6640 C.3   153  MET153      0.1570
    125  C         13.6450   15.7480    8.1280 C.2   153  MET153      0.2261
    126  O         13.5240   16.2760    9.2350 O.2   153  MET153     -0.2867
    127  CB        15.0390   13.7000    7.8600 C.3   153  MET153      0.0387
    128  CG        16.3250   13.0350    7.4050 C.3   153  MET153      0.0595
    129  SD        16.5580   13.0770    5.6170 S.3   153  MET153     -0.1393
    130  CE        15.2320   12.0710    5.0880 C.3   153  MET153      0.0692
    131  N         19.3150   14.5750   11.7560 N.3   163  ALA163     -0.1231
    132  CA        19.6400   13.2050   11.3550 C.3   163  ALA163      0.1694
    133  C         21.1360   13.0910   11.0950 C.2   163  ALA163      0.2592
    134  O         21.8960   13.9610   11.4950 O.2   163  ALA163     -0.2718
    135  CB        18.8590   12.8280   10.0990 C.3   163  ALA163      0.0304
    136  N         21.5550   12.0220   10.4250 N.am  164  ASP164     -0.1974
    137  CA        22.9640   11.8360   10.0860 C.3   164  ASP164      0.1709
    138  C         23.8700   11.9570   11.3150 C.2   164  ASP164      0.2293
    139  O         24.8370   12.7200   11.3200 O.2   164  ASP164     -0.2864
    140  CB        23.3870   12.8600    9.0270 C.3   164  ASP164      0.1436
    141  CG        24.8100   12.6550    8.5420 C.2   164  ASP164      0.3671
    142  OD1       25.2970   11.5060    8.5540 O.co2 164  ASP164     -0.2456
    143  OD2       25.4500   13.6530    8.1480 O.co2 164  ASP164     -0.2456
    144  N         23.4420    6.4640   12.2190 N.3   168  ALA168     -0.1245
    145  CA        22.9520    6.9950   10.9510 C.3   168  ALA168      0.1562
    146  C         23.9650    7.9190   10.2730 C.2   168  ALA168      0.2260
    147  O         23.6710    8.5010    9.2300 O.2   168  ALA168     -0.2867
    148  CB        21.6380    7.7440   11.1750 C.3   168  ALA168      0.0290
    149  N         26.2960   11.7930    2.7030 N.3   172  TYR172     -0.1227
    150  CA        25.1530   11.5480    1.8350 C.3   172  TYR172      0.1736
    151  C         25.1090   12.4410    0.5960 C.2   172  TYR172      0.2595
    152  O         24.3630   12.1720   -0.3430 O.2   172  TYR172     -0.2718
    153  CB        23.8570   11.7020    2.6310 C.3   172  TYR172      0.0548
    154  CG        23.6710   10.6580    3.7130 C.ar  172  TYR172     -0.0200
    155  CD1       23.3190    9.3500    3.3930 C.ar  172  TYR172     -0.0009
    156  CD2       23.8290   10.9850    5.0560 C.ar  172  TYR172     -0.0009
    157  CE1       23.1300    8.3980    4.3810 C.ar  172  TYR172      0.0417
    158  CE2       23.6390   10.0420    6.0520 C.ar  172  TYR172      0.0417
    159  CZ        23.2910    8.7520    5.7090 C.ar  172  TYR172      0.1957
    160  OH        23.1060    7.8140    6.6970 O.3   172  TYR172     -0.2866
    161  N         25.9020   13.5070    0.5930 N.am  173  ASP173     -0.1974
    162  CA        26.0930   14.2920   -0.6180 C.3   173  ASP173      0.1709
    163  C         27.5650   14.6790   -0.7270 C.2   173  ASP173      0.2293
    164  O         28.0060   15.6630   -0.1270 O.2   173  ASP173     -0.2864
    165  CB        25.2110   15.5480   -0.5870 C.3   173  ASP173      0.1436
    166  CG        25.2900   16.3480   -1.8770 C.2   173  ASP173      0.3671
    167  OD1       26.1340   16.0150   -2.7350 O.co2 173  ASP173     -0.2456
    168  OD2       24.5070   17.3070   -2.0330 O.co2 173  ASP173     -0.2456
@<TRIPOS>BOND
     1    23    21    1
     2    21    20    2
     3    21    22    1
     4    20    19    1
     5    19    18    1
     6    18    17    1
     7   102   101    2
     8   167   166   ar
     9    17    14    1
    10   101   103   am
    11   101   100    1
    12   168   166   ar
    13    99    98    2
    14   166   165    1
    15   100    97    1
    16     4     3    2
    17     1     2    1
    18    97    98    1
    19    97    96    1
    20    14    13    1
    21    14    15    1
    22    13    11   am
    23     3     2    1
    24     3     9   am
    25   163   162    1
    26   163   164    2
    27     2     5    1
    28    10    11    1
    29    10     9    1
    30    11    12    2
    31   162   165    1
    32   162   161    1
    33   152   151    2
    34    16    15    2
    35    27    26    2
    36   161   151   am
    37   151   150    1
    38     5     6    1
    39     5     7    1
    40    94    93   ar
    41     6     8    1
    42    79    78    1
    43    95    93   ar
    44    26    25    1
    45    93    92    1
    46    24    25    1
    47   150   153    1
    48   150   149    1
    49    91    90    2
    50    25    28    1
    51   153   154    1
    52    78    76   ar
    53    78    77   ar
    54    88    89    1
    55   110   111    1
    56   110   109    1
    57   108   109    1
    58   108   105    1
    59    28    29    1
    60    28    30    1
    61    76    74   ar
    62    92    89    1
    63   155   154   ar
    64   155   157   ar
    65    77    75   ar
    66    90    89    1
    67   113   112    1
    68   154   156   ar
    69   111   112    2
    70   105   104    1
    71   105   106    1
    72   112   114    1
    73   157   159   ar
    74    74    73   ar
    75    83    82    2
    76   107   106    2
    77    75    73   ar
    78   106   115   am
    79   156   158   ar
    80   130   129    1
    81    73    72    1
    82    82    81    1
    83   129   128    1
    84    43    42    1
    85    43    44    1
    86   159   158   ar
    87   159   160    1
    88    42    41    1
    89   121   120    2
    90   115   116    1
    91    35    32    1
    92    32    33    1
    93    32    31    1
    94    37    38    1
    95    37    36    1
    96    37    40    1
    97    38    39    2
    98    72    69    1
    99    81    80    1
   100    81    84    1
   101    33    34    2
   102   120   122   am
   103   120   119    1
   104    80    70   am
   105    84    85    1
   106    41    40    1
   107   116   119    1
   108   116   117    1
   109   128   127    1
   110    69    70    1
   111    69    68    1
   112    70    71    2
   113   124   127    1
   114   124   125    1
   115   124   123    1
   116   125   126    2
   117   143   141   ar
   118   117   118    2
   119    85    86    1
   120   141   142   ar
   121   141   140    1
   122    68    63   am
   123   140   137    1
   124   147   146    2
   125    64    63    2
   126    63    62    1
   127    86    87    1
   128    56    55    2
   129   137   136    1
   130   137   138    1
   131   135   132    1
   132    59    58    1
   133   146   145    1
   134   136   133   am
   135   145   148    1
   136   145   144    1
   137    55    54    1
   138    55    61   am
   139    53    54    1
   140    57    58    1
   141    57    54    1
   142   133   132    1
   143   133   134    2
   144    62    61    1
   145    62    65    1
   146   138   139    2
   147   132   131    1
   148    58    60    1
   149    61    67    1
   150    52    50    1
   151    51    50    1
   152    65    66    1
   153    50    49    1
   154    67    66    1
   155    49    46    1
   156    46    45    1
   157    46    47    1
   158    47    48    2
