@<TRIPOS>MOLECULE
tmp/3zzhC00.pdb
 100 94 0 0 0
SMALL
GASTEIGER

@<TRIPOS>ATOM
      1  N        -31.7950   45.3970  -61.0090 N.3    25  TYR25      -0.1241
      2  CA       -31.9500   44.6950  -62.2920 C.3    25  TYR25       0.1605
      3  C        -31.9730   43.1700  -62.1220 C.2    25  TYR25       0.2264
      4  O        -32.7120   42.4880  -62.8240 O.2    25  TYR25      -0.2867
      5  CB       -30.8680   45.1130  -63.3010 C.3    25  TYR25       0.0534
      6  CG       -31.0330   46.5260  -63.8300 C.ar   25  TYR25      -0.0201
      7  CD1      -32.2130   46.9240  -64.4520 C.ar   25  TYR25      -0.0009
      8  CD2      -30.0080   47.4590  -63.7160 C.ar   25  TYR25      -0.0009
      9  CE1      -32.3700   48.2120  -64.9340 C.ar   25  TYR25       0.0417
     10  CE2      -30.1540   48.7500  -64.1960 C.ar   25  TYR25       0.0417
     11  CZ       -31.3380   49.1200  -64.8040 C.ar   25  TYR25       0.1957
     12  OH       -31.4940   50.3960  -65.2880 O.3    25  TYR25      -0.2866
     13  N        -35.2330   41.1300  -63.3290 N.3    29  PHE29      -0.1241
     14  CA       -35.1160   39.9950  -64.2510 C.3    29  PHE29       0.1605
     15  C        -35.5770   38.6820  -63.6070 C.2    29  PHE29       0.2264
     16  O        -36.0620   37.7950  -64.2980 O.2    29  PHE29      -0.2867
     17  CB       -33.6760   39.8440  -64.7660 C.3    29  PHE29       0.0534
     18  CG       -33.1690   41.0300  -65.5560 C.ar   29  PHE29      -0.0203
     19  CD1      -33.9840   41.6970  -66.4640 C.ar   29  PHE29      -0.0042
     20  CD2      -31.8550   41.4570  -65.4100 C.ar   29  PHE29      -0.0042
     21  CE1      -33.4990   42.7760  -67.1900 C.ar   29  PHE29      -0.0003
     22  CE2      -31.3710   42.5340  -66.1320 C.ar   29  PHE29      -0.0003
     23  CZ       -32.1930   43.1920  -67.0230 C.ar   29  PHE29      -0.0000
     24  N        -36.1800   40.9760  -72.3570 N.3   203  LYS203     -0.1245
     25  CA       -35.0320   41.3850  -73.1480 C.3   203  LYS203      0.1561
     26  C        -34.8050   40.4930  -74.3630 C.2   203  LYS203      0.2260
     27  O        -34.9210   39.2650  -74.2860 O.2   203  LYS203     -0.2867
     28  CB       -33.7800   41.3890  -72.2690 C.3   203  LYS203      0.0271
     29  CG       -33.7270   42.5420  -71.2690 C.3   203  LYS203      0.0035
     30  CD       -33.3990   43.8510  -71.9690 C.3   203  LYS203      0.0206
     31  CE       -33.4910   45.0330  -71.0260 C.3   203  LYS203      0.1093
     32  NZ       -33.1300   46.3120  -71.7160 N.3   203  LYS203     -0.1314
     33  N        -26.8660   55.3300  -77.9960 N.3   223  SER223     -0.1202
     34  CA       -27.1830   54.6670  -76.7320 C.3   223  SER223      0.2020
     35  C        -28.6200   54.1440  -76.6840 C.2   223  SER223      0.2618
     36  O        -28.8640   53.0330  -76.2040 O.2   223  SER223     -0.2717
     37  CB       -26.9480   55.6250  -75.5610 C.3   223  SER223      0.2103
     38  OG       -27.3520   55.0430  -74.3360 O.3   223  SER223     -0.2182
     39  N        -29.5600   54.9520  -77.1730 N.am  224  MET224     -0.1979
     40  CA       -30.9910   54.6500  -77.0740 C.3   224  MET224      0.1605
     41  C        -31.7800   55.0740  -78.3140 C.2   224  MET224      0.2287
     42  O        -31.4210   56.0430  -78.9910 O.2   224  MET224     -0.2864
     43  CB       -31.5800   55.3350  -75.8360 C.3   224  MET224      0.0413
     44  CG       -31.7180   54.4130  -74.6370 C.3   224  MET224      0.0598
     45  SD       -33.2460   53.4530  -74.6850 S.3   224  MET224     -0.1393
     46  CE       -34.4070   54.7670  -74.2970 C.3   224  MET224      0.0692
     47  N        -24.3710   46.0740  -70.0830 N.3   275  GLU275     -0.1231
     48  CA       -25.6210   46.4210  -70.7610 C.3   275  GLU275      0.1699
     49  C        -26.8390   46.1190  -69.8920 C.2   275  GLU275      0.2592
     50  O        -27.7290   46.9560  -69.7550 O.2   275  GLU275     -0.2718
     51  CB       -25.7360   45.6660  -72.0960 C.3   275  GLU275      0.0402
     52  CG       -27.0310   45.9190  -72.8740 C.3   275  GLU275      0.1161
     53  CD       -27.2880   47.3860  -73.1280 C.2   275  GLU275      0.3649
     54  OE1      -26.3100   48.1300  -73.3520 O.co2 275  GLU275     -0.2457
     55  OE2      -28.4670   47.8040  -73.1030 O.co2 275  GLU275     -0.2457
     56  N        -26.8560   44.9270  -69.2950 N.am  276  LEU276     -0.1980
     57  CA       -28.0160   44.4320  -68.5500 C.3   276  LEU276      0.1596
     58  C        -28.1530   44.9240  -67.1080 C.2   276  LEU276      0.2287
     59  O        -29.2740   45.0260  -66.6070 O.2   276  LEU276     -0.2864
     60  CB       -28.0200   42.9000  -68.5500 C.3   276  LEU276      0.0297
     61  CG       -28.4050   42.2590  -69.8820 C.3   276  LEU276      0.0022
     62  CD1      -28.3800   40.7380  -69.7740 C.3   276  LEU276      0.0001
     63  CD2      -29.7840   42.7460  -70.3290 C.3   276  LEU276      0.0001
     64  N        -26.6030   47.8470  -65.5670 N.3   278  THR278     -0.1203
     65  CA       -26.3750   49.2720  -65.2830 C.3   278  THR278      0.1994
     66  C        -27.3890   50.1420  -66.0250 C.2   278  THR278      0.2618
     67  O        -27.9420   49.7330  -67.0460 O.2   278  THR278     -0.2717
     68  CB       -24.9490   49.7280  -65.6720 C.3   278  THR278      0.1784
     69  OG1      -24.8180   49.7560  -67.1000 O.3   278  THR278     -0.2211
     70  CG2      -23.8950   48.8010  -65.0690 C.3   278  THR278      0.0376
     71  N        -27.6130   51.3480  -65.5140 N.am  279  ASP279     -0.1959
     72  CA       -28.6130   52.2610  -66.0780 C.3   279  ASP279      0.1840
     73  C        -28.2460   52.7560  -67.4770 C.2   279  ASP279      0.2623
     74  O        -29.1020   52.7970  -68.3580 O.2   279  ASP279     -0.2715
     75  CB       -28.8520   53.4560  -65.1410 C.3   279  ASP279      0.1450
     76  CG       -29.5430   53.0590  -63.8410 C.2   279  ASP279      0.3671
     77  OD1      -30.0060   51.9040  -63.7250 O.co2 279  ASP279     -0.2456
     78  OD2      -29.6200   53.9040  -62.9260 O.co2 279  ASP279     -0.2456
     79  N        -26.9840   53.1210  -67.6860 N.am  280  SER280     -0.1936
     80  CA       -26.5590   53.6790  -68.9760 C.3   280  SER280      0.2055
     81  C        -26.2060   52.6020  -70.0110 C.2   280  SER280      0.2643
     82  O        -26.2060   52.8670  -71.2150 O.2   280  SER280     -0.2714
     83  CB       -25.3990   54.6600  -68.7860 C.3   280  SER280      0.2130
     84  OG       -24.2920   54.0460  -68.1600 O.3   280  SER280     -0.2179
     85  N        -25.9110   51.3920  -69.5470 N.am  281  GLY281     -0.1954
     86  CA       -25.6850   50.2670  -70.4460 C.3   281  GLY281      0.1869
     87  C        -24.3680   50.3450  -71.1950 C.2   281  GLY281      0.2309
     88  O        -23.4120   50.9530  -70.7170 O.2   281  GLY281     -0.2863
     89  N        -24.2820   49.2560  -75.2240 N.3   283  GLY283     -0.1225
     90  CA       -24.5040   49.3610  -76.6630 C.3   283  GLY283      0.1811
     91  C        -25.7480   50.1680  -76.9640 C.2   283  GLY283      0.2280
     92  O        -25.9890   51.2040  -76.3410 O.2   283  GLY283     -0.2866
     93  N        -29.7630   50.3140  -76.9660 N.3   285  MET285     -0.1245
     94  CA       -31.0680   49.8180  -76.5330 C.3   285  MET285      0.1570
     95  C        -32.1470   50.4150  -77.4330 C.2   285  MET285      0.2261
     96  O        -32.0300   51.5590  -77.8810 O.2   285  MET285     -0.2867
     97  CB       -31.3320   50.1750  -75.0670 C.3   285  MET285      0.0387
     98  CG       -32.6930   49.7200  -74.5390 C.3   285  MET285      0.0595
     99  SD       -32.7320   49.5280  -72.7390 S.3   285  MET285     -0.1393
    100  CE       -34.4610   49.8680  -72.3840 C.3   285  MET285      0.0692
@<TRIPOS>BOND
     1    42    41    2
     2    41    40    1
     3    33    34    1
     4    96    95    2
     5    95    94    1
     6    39    40    1
     7    39    35   am
     8    40    43    1
     9    93    94    1
    10    91    90    1
    11    91    92    2
    12    34    35    1
    13    34    37    1
    14    35    36    2
    15    90    89    1
    16    94    97    1
    17    43    44    1
    18    37    38    1
    19    97    98    1
    20    45    44    1
    21    45    46    1
    22    98    99    1
    23    26    27    2
    24    26    25    1
    25    54    53   ar
    26    25    24    1
    27    25    28    1
    28    53    55   ar
    29    53    52    1
    30    52    51    1
    31    99   100    1
    32    28    29    1
    33    51    48    1
    34    30    29    1
    35    30    31    1
    36    32    31    1
    37    82    81    2
    38    87    88    2
    39    87    86    1
    40    48    47    1
    41    48    49    1
    42    86    85    1
    43    63    61    1
    44    81    85   am
    45    81    80    1
    46    49    50    2
    47    49    56   am
    48    61    62    1
    49    61    60    1
    50    56    57    1
    51    80    83    1
    52    80    79    1
    53    83    84    1
    54    57    60    1
    55    57    58    1
    56    74    73    2
    57    79    73   am
    58    73    72    1
    59    21    23   ar
    60    21    19   ar
    61    58    59    2
    62    69    68    1
    63    67    66    2
    64    23    22   ar
    65    19    18   ar
    66    22    20   ar
    67    72    71    1
    68    72    75    1
    69    66    71   am
    70    66    65    1
    71    68    65    1
    72    68    70    1
    73    64    65    1
    74    18    20   ar
    75    18    17    1
    76    12    11    1
    77    75    76    1
    78     9    11   ar
    79     9     7   ar
    80    11    10   ar
    81    17    14    1
    82     7     6   ar
    83    16    15    2
    84    14    15    1
    85    14    13    1
    86    10     8   ar
    87    76    77   ar
    88    76    78   ar
    89     6     8   ar
    90     6     5    1
    91     5     2    1
    92     4     3    2
    93     2     3    1
    94     2     1    1
