@<TRIPOS>MOLECULE
tmp/3zzhB00.pdb
 84 77 0 0 0
SMALL
GASTEIGER

@<TRIPOS>ATOM
      1  N         -4.3500   40.8960  -14.1270 N.3    95  ILE95      -0.1245
      2  CA        -3.8720   39.5490  -14.4490 C.3    95  ILE95       0.1561
      3  C         -4.3170   38.5730  -13.3600 C.2    95  ILE95       0.2260
      4  O         -4.0550   38.8120  -12.1780 O.2    95  ILE95      -0.2867
      5  CB        -2.3260   39.5200  -14.5290 C.3    95  ILE95       0.0252
      6  CG1       -1.8240   40.4920  -15.6020 C.3    95  ILE95       0.0019
      7  CG2       -1.8250   38.1060  -14.8120 C.3    95  ILE95       0.0019
      8  CD1       -0.3100   40.6480  -15.6350 C.3    95  ILE95       0.0001
      9  N          5.5930   34.3540  -16.1220 N.3   141  LEU141     -0.1245
     10  CA         5.6120   35.8210  -16.0580 C.3   141  LEU141      0.1561
     11  C          6.3030   36.2810  -14.7700 C.2   141  LEU141      0.2260
     12  O          7.2430   37.0660  -14.8050 O.2   141  LEU141     -0.2867
     13  CB         4.1910   36.3820  -16.1340 C.3   141  LEU141      0.0270
     14  CG         4.0250   37.9050  -16.0600 C.3   141  LEU141      0.0019
     15  CD1        4.7690   38.6040  -17.1970 C.3   141  LEU141      0.0001
     16  CD2        2.5490   38.2690  -16.0800 C.3   141  LEU141      0.0001
     17  N          0.9380   31.6530  -14.6040 N.3   149  VAL149     -0.1231
     18  CA         0.6440   32.6420  -15.6370 C.3   149  VAL149      0.1692
     19  C          1.8770   32.7930  -16.5120 C.2   149  VAL149      0.2593
     20  O          3.0120   32.8030  -16.0150 O.2   149  VAL149     -0.2718
     21  CB         0.2320   34.0030  -15.0220 C.3   149  VAL149      0.0266
     22  CG1        0.2300   35.1250  -16.0690 C.3   149  VAL149      0.0020
     23  CG2       -1.1330   33.8840  -14.3850 C.3   149  VAL149      0.0020
     24  N          1.6480   32.8960  -17.8140 N.am  150  GLY150     -0.1942
     25  CA         2.7200   32.8630  -18.7850 C.3   150  GLY150      0.2014
     26  C          3.0730   34.2100  -19.3780 C.2   150  GLY150      0.2639
     27  O          2.2370   35.1150  -19.4440 O.2   150  GLY150     -0.2714
     28  N          4.3310   34.3200  -19.7920 N.am  151  ASN151     -0.1958
     29  CA         4.8240   35.3960  -20.6260 C.3   151  ASN151      0.1819
     30  C          5.1720   34.7560  -21.9670 C.2   151  ASN151      0.2621
     31  O          6.1180   33.9670  -22.0510 O.2   151  ASN151     -0.2715
     32  CB         6.0570   36.0210  -19.9640 C.3   151  ASN151      0.1195
     33  CG         6.7500   37.0560  -20.8310 C.2   151  ASN151      0.2630
     34  OD1        7.9370   37.3240  -20.6420 O.2   151  ASN151     -0.2716
     35  ND2        6.0300   37.6470  -21.7640 N.am  151  ASN151     -0.0877
     36  N          4.3900   35.0680  -23.0030 N.am  152  ILE152     -0.1977
     37  CA         4.5380   34.4140  -24.3060 C.3   152  ILE152      0.1596
     38  C          5.8440   34.8110  -24.9990 C.2   152  ILE152      0.2287
     39  O          6.1110   35.9950  -25.2080 O.2   152  ILE152     -0.2864
     40  CB         3.3490   34.7140  -25.2440 C.3   152  ILE152      0.0276
     41  CG1        2.0810   34.0230  -24.7240 C.3   152  ILE152      0.0022
     42  CG2        3.6570   34.2310  -26.6610 C.3   152  ILE152      0.0022
     43  CD1        0.7870   34.5540  -25.3190 C.3   152  ILE152      0.0001
     44  N         -2.8070   32.8200  -19.7760 N.3   186  VAL186     -0.1231
     45  CA        -2.4570   34.0900  -20.4060 C.3   186  VAL186      0.1692
     46  C         -3.7520   34.8280  -20.7290 C.2   186  VAL186      0.2592
     47  O         -4.6930   34.2450  -21.2840 O.2   186  VAL186     -0.2718
     48  CB        -1.6230   33.8980  -21.7060 C.3   186  VAL186      0.0266
     49  CG1       -1.1850   35.2500  -22.2860 C.3   186  VAL186      0.0020
     50  CG2       -0.4020   33.0140  -21.4530 C.3   186  VAL186      0.0020
     51  N         -3.7950   36.0970  -20.3370 N.am  187  ASN187     -0.1974
     52  CA        -4.8900   37.0090  -20.6470 C.3   187  ASN187      0.1688
     53  C         -5.1180   37.0220  -22.1570 C.2   187  ASN187      0.2292
     54  O         -4.1610   37.1640  -22.9270 O.2   187  ASN187     -0.2864
     55  CB        -4.5300   38.4040  -20.1140 C.3   187  ASN187      0.1181
     56  CG        -5.5360   39.4700  -20.4830 C.2   187  ASN187      0.2629
     57  OD1       -6.3310   39.9250  -19.6440 O.2   187  ASN187     -0.2716
     58  ND2       -5.4840   39.9110  -21.7220 N.am  187  ASN187     -0.0877
     59  N         -3.7530   39.8150  -24.4380 N.3   190  VAL190     -0.1245
     60  CA        -2.3140   39.7290  -24.6800 C.3   190  VAL190      0.1561
     61  C         -2.0250   38.6930  -25.7560 C.2   190  VAL190      0.2260
     62  O         -1.3230   38.9820  -26.7190 O.2   190  VAL190     -0.2867
     63  CB        -1.5380   39.3810  -23.3910 C.3   190  VAL190      0.0252
     64  CG1       -0.0350   39.1890  -23.6900 C.3   190  VAL190      0.0019
     65  CG2       -1.7570   40.4670  -22.3320 C.3   190  VAL190      0.0019
     66  N         -4.1540   47.0160  -19.0600 N.3   246  LEU246     -0.1245
     67  CA        -3.4510   45.8830  -19.6620 C.3   246  LEU246      0.1561
     68  C         -3.6870   45.7930  -21.1790 C.2   246  LEU246      0.2260
     69  O         -2.7560   45.5620  -21.9550 O.2   246  LEU246     -0.2867
     70  CB        -3.8890   44.5840  -18.9750 C.3   246  LEU246      0.0270
     71  CG        -3.1880   43.2910  -19.3910 C.3   246  LEU246      0.0019
     72  CD1       -1.6750   43.4500  -19.3720 C.3   246  LEU246      0.0001
     73  CD2       -3.6150   42.1580  -18.4750 C.3   246  LEU246      0.0001
     74  N         -2.0230   48.7750  -23.0560 N.3   249  ARG249     -0.1245
     75  CA        -0.5740   48.5660  -23.1280 C.3   249  ARG249      0.1563
     76  C         -0.2000   47.5220  -24.1780 C.2   249  ARG249      0.2260
     77  O          0.7450   47.7220  -24.9480 O.2   249  ARG249     -0.2867
     78  CB         0.0080   48.1680  -21.7660 C.3   249  ARG249      0.0307
     79  CG         1.5290   48.1320  -21.7530 C.3   249  ARG249      0.0489
     80  CD         2.1060   47.9890  -20.3520 C.3   249  ARG249      0.2205
     81  NE         2.0650   46.5960  -19.9050 N.pl3 249  ARG249     -0.0865
     82  CZ         1.2480   46.1020  -18.9720 C.cat 249  ARG249      0.5346
     83  NH1        0.3780   46.8780  -18.3210 N.pl3 249  ARG249      0.1354
     84  NH2        1.3180   44.8080  -18.6710 N.pl3 249  ARG249      0.1354
@<TRIPOS>BOND
     1    62    61    2
     2    42    40    1
     3    61    60    1
     4    43    41    1
     5    40    41    1
     6    40    37    1
     7    39    38    2
     8    38    37    1
     9    77    76    2
    10    60    59    1
    11    60    63    1
    12    37    36    1
    13    76    75    1
    14    64    63    1
    15    63    65    1
    16    75    74    1
    17    75    78    1
    18    36    30   am
    19    54    53    2
    20    49    48    1
    21    53    52    1
    22    31    30    2
    23    30    29    1
    24    69    68    2
    25    78    79    1
    26    35    33   am
    27    79    80    1
    28    58    56   am
    29    48    50    1
    30    48    45    1
    31    47    46    2
    32    68    67    1
    33    33    34    2
    34    33    32    1
    35    46    45    1
    36    46    51   am
    37    52    51    1
    38    52    55    1
    39    29    32    1
    40    29    28    1
    41    56    55    1
    42    56    57    2
    43    45    44    1
    44    80    81    1
    45    81    82    2
    46    28    26   am
    47    67    66    1
    48    67    70    1
    49    27    26    2
    50    71    72    1
    51    71    70    1
    52    71    73    1
    53    26    25    1
    54    82    84    1
    55    82    83    1
    56    25    24    1
    57    24    19   am
    58    15    14    1
    59    19    20    2
    60    19    18    1
    61    13    14    1
    62    13    10    1
    63     9    10    1
    64    16    14    1
    65    22    21    1
    66    10    11    1
    67    18    21    1
    68    18    17    1
    69     8     6    1
    70     6     5    1
    71    21    23    1
    72     7     5    1
    73    12    11    2
    74     5     2    1
    75     2     1    1
    76     2     3    1
    77     3     4    2
