@<TRIPOS>MOLECULE
tmp/3zzjA01.pdb
 92 89 0 0 0
SMALL
GASTEIGER

@<TRIPOS>ATOM
      1  N         22.8390   49.8370   28.7410 N.3    13  ILE13      -0.1245
      2  CA        23.4270   51.1420   29.0590 C.3    13  ILE13       0.1561
      3  C         23.0740   52.1610   27.9810 C.2    13  ILE13       0.2260
      4  O         22.6890   53.2880   28.2900 O.2    13  ILE13      -0.2867
      5  CB        24.9650   51.0730   29.2110 C.3    13  ILE13       0.0252
      6  CG1       25.3760   50.0080   30.2400 C.3    13  ILE13       0.0019
      7  CG2       25.5140   52.4350   29.6180 C.3    13  ILE13       0.0019
      8  CD1       24.7020   50.1490   31.5970 C.3    13  ILE13       0.0001
      9  N         21.9710   56.9000   35.7920 N.3    32  GLY32      -0.1210
     10  CA        22.4540   55.6540   35.1940 C.3    32  GLY32       0.1956
     11  C         23.7110   55.7560   34.3470 C.2    32  GLY32       0.2612
     12  O         24.2250   54.7380   33.8830 O.2    32  GLY32      -0.2717
     13  N         24.2060   56.9800   34.1580 N.am   33  GLN33      -0.1965
     14  CA        25.3650   57.2480   33.3050 C.3    33  GLN33       0.1733
     15  C         26.6740   57.0200   34.0460 C.2    33  GLN33       0.2617
     16  O         26.6870   56.8840   35.2700 O.2    33  GLN33      -0.2715
     17  CB        25.3340   58.6950   32.8220 C.3    33  GLN33       0.0408
     18  CG        25.7000   59.6970   33.9100 C.3    33  GLN33       0.0908
     19  CD        24.5690   59.9360   34.8940 C.2    33  GLN33       0.2608
     20  OE1       24.6790   60.7700   35.7890 O.2    33  GLN33      -0.2717
     21  NE2       23.4740   59.2090   34.7280 N.am   33  GLN33      -0.0878
     22  N         27.7730   56.9870   33.2960 N.am   34  GLY34      -0.1940
     23  CA        29.1040   56.7850   33.8720 C.3    34  GLY34       0.2014
     24  C         29.9710   58.0220   34.0430 C.2    34  GLY34       0.2638
     25  O         31.0670   57.9280   34.5960 O.2    34  GLY34      -0.2714
     26  N         29.5020   59.1780   33.5840 N.am   35  VAL35      -0.1977
     27  CA        30.3320   60.3860   33.5810 C.3    35  VAL35       0.1596
     28  C         29.9720   61.3520   34.7070 C.2    35  VAL35       0.2287
     29  O         28.8720   61.3060   35.2530 O.2    35  VAL35      -0.2864
     30  CB        30.2540   61.1380   32.2220 C.3    35  VAL35       0.0276
     31  CG1       30.5990   60.1970   31.0780 C.3    35  VAL35       0.0022
     32  CG2       28.8740   61.7710   32.0170 C.3    35  VAL35       0.0022
     33  N         32.4970   46.0880   36.9220 N.3   130  TRP130     -0.1228
     34  CA        32.1430   46.7740   35.6860 C.3   130  TRP130      0.1722
     35  C         32.0820   45.7290   34.5560 C.2   130  TRP130      0.2437
     36  O         33.0650   45.0180   34.3390 O.2   130  TRP130     -0.2733
     37  CB        33.2040   47.8370   35.3980 C.3   130  TRP130      0.0563
     38  CG        32.9470   48.6800   34.2070 C.ar  130  TRP130      0.0003
     39  CD1       31.7450   49.1710   33.7930 C.ar  130  TRP130      0.0946
     40  CD2       33.9240   49.1690   33.2830 C.ar  130  TRP130      0.0152
     41  NE1       31.9100   49.9230   32.6550 N.ar  130  TRP130     -0.2442
     42  CE2       33.2390   49.9410   32.3220 C.ar  130  TRP130      0.0810
     43  CE3       35.3140   49.0210   33.1680 C.ar  130  TRP130      0.0012
     44  CZ2       33.8930   50.5670   31.2580 C.ar  130  TRP130      0.0191
     45  CZ3       35.9660   49.6430   32.1070 C.ar  130  TRP130      0.0001
     46  CH2       35.2520   50.4080   31.1670 C.ar  130  TRP130      0.0015
     47  N         30.9350   45.6150   33.8420 N.am  131  PRO131     -0.2729
     48  CA        30.7860   44.5120   32.8700 C.3   131  PRO131      0.1401
     49  C         31.7530   44.5380   31.6780 C.2   131  PRO131      0.2269
     50  O         31.8950   43.5260   30.9860 O.2   131  PRO131     -0.2865
     51  CB        29.3380   44.6620   32.3700 C.3   131  PRO131      0.0296
     52  CG        28.6580   45.5310   33.3720 C.3   131  PRO131      0.0237
     53  CD        29.7210   46.4520   33.8880 C.3   131  PRO131      0.0939
     54  N         33.8190   50.4540   41.1120 N.3   183  ASN183     -0.1240
     55  CA        32.6850   50.4880   40.1900 C.3   183  ASN183      0.1653
     56  C         32.0840   49.0850   40.1630 C.2   183  ASN183      0.2266
     57  O         32.7410   48.1530   39.7110 O.2   183  ASN183     -0.2867
     58  CB        33.1610   50.9080   38.7920 C.3   183  ASN183      0.1155
     59  CG        32.0220   51.0480   37.7770 C.2   183  ASN183      0.2627
     60  OD1       30.8390   50.9340   38.1070 O.2   183  ASN183     -0.2716
     61  ND2       32.3900   51.3020   36.5240 N.am  183  ASN183     -0.0877
     62  N         37.8360   60.5830   33.7120 N.3   246  LYS246     -0.1245
     63  CA        36.9730   61.1920   34.7100 C.3   246  LYS246      0.1561
     64  C         37.6530   62.3630   35.4210 C.2   246  LYS246      0.2260
     65  O         37.0280   63.4000   35.6300 O.2   246  LYS246     -0.2867
     66  CB        36.4850   60.1290   35.7060 C.3   246  LYS246      0.0271
     67  CG        35.4960   59.1360   35.0860 C.3   246  LYS246      0.0035
     68  CD        35.2310   57.9160   35.9600 C.3   246  LYS246      0.0206
     69  CE        34.4640   56.8130   35.1990 C.3   246  LYS246      0.1093
     70  NZ        35.3660   55.9870   34.2900 N.3   246  LYS246     -0.1314
     71  N         30.2070   56.4190   41.9940 N.3   348  PHE348     -0.1241
     72  CA        29.1550   55.4150   42.0860 C.3   348  PHE348      0.1605
     73  C         28.8390   54.9620   43.5030 C.2   348  PHE348      0.2264
     74  O         29.6530   55.0870   44.4200 O.2   348  PHE348     -0.2867
     75  CB        29.5240   54.2070   41.2270 C.3   348  PHE348      0.0534
     76  CG        29.8560   54.5670   39.8130 C.ar  348  PHE348     -0.0203
     77  CD1       28.9020   55.1570   39.0030 C.ar  348  PHE348     -0.0042
     78  CD2       31.1270   54.3420   39.2980 C.ar  348  PHE348     -0.0042
     79  CE1       29.1970   55.5080   37.6970 C.ar  348  PHE348     -0.0003
     80  CE2       31.4340   54.6870   37.9890 C.ar  348  PHE348     -0.0003
     81  CZ        30.4620   55.2740   37.1860 C.ar  348  PHE348     -0.0000
     82  N         22.9340   50.5010   40.8660 N.3   374  ARG374     -0.1245
     83  CA        24.0030   51.4950   40.8730 C.3   374  ARG374      0.1563
     84  C         23.4400   52.8700   40.5490 C.2   374  ARG374      0.2260
     85  O         22.6700   53.0270   39.5980 O.2   374  ARG374     -0.2867
     86  CB        25.0940   51.1550   39.8540 C.3   374  ARG374      0.0307
     87  CG        26.3380   52.0370   39.9880 C.3   374  ARG374      0.0489
     88  CD        27.2750   51.8950   38.8070 C.3   374  ARG374      0.2205
     89  NE        26.8740   52.7000   37.6560 N.pl3 374  ARG374     -0.0865
     90  CZ        27.5330   52.7370   36.4990 C.cat 374  ARG374      0.5346
     91  NH1       28.6340   52.0140   36.3310 N.pl3 374  ARG374      0.1354
     92  NH2       27.0900   53.4980   35.5030 N.pl3 374  ARG374      0.1354
@<TRIPOS>BOND
     1     3     4    2
     2     3     2    1
     3     1     2    1
     4     2     5    1
     5     5     7    1
     6     5     6    1
     7     6     8    1
     8    50    49    2
     9    31    30    1
    10    46    44   ar
    11    46    45   ar
    12    44    42   ar
    13    49    48    1
    14    32    30    1
    15    45    43   ar
    16    30    27    1
    17    42    41   ar
    18    42    40   ar
    19    51    48    1
    20    51    52    1
    21    41    39   ar
    22    17    14    1
    23    17    18    1
    24    48    47    1
    25    43    40   ar
    26    40    38   ar
    27    22    23    1
    28    22    15   am
    29    14    15    1
    30    14    13    1
    31    52    53    1
    32    27    26    1
    33    27    28    1
    34    26    24   am
    35    62    63    1
    36    39    38   ar
    37    47    53    1
    38    47    35   am
    39    23    24    1
    40    12    11    2
    41    18    19    1
    42    24    25    2
    43    15    16    2
    44    13    11   am
    45    38    37    1
    46    70    69    1
    47    36    35    2
    48    11    10    1
    49    35    34    1
    50    28    29    2
    51    63    64    1
    52    63    66    1
    53    21    19   am
    54    19    20    2
    55    67    66    1
    56    67    68    1
    57    10     9    1
    58    69    68    1
    59    37    34    1
    60    64    65    2
    61    92    90    1
    62    34    33    1
    63    91    90    1
    64    90    89    2
    65    61    59   am
    66    81    79   ar
    67    81    80   ar
    68    89    88    1
    69    79    77   ar
    70    59    60    2
    71    59    58    1
    72    80    78   ar
    73    58    55    1
    74    88    87    1
    75    77    76   ar
    76    78    76   ar
    77    85    84    2
    78    57    56    2
    79    76    75    1
    80    86    87    1
    81    86    83    1
    82    56    55    1
    83    55    54    1
    84    84    83    1
    85    82    83    1
    86    75    72    1
    87    71    72    1
    88    72    73    1
    89    73    74    2
