@<TRIPOS>MOLECULE
tmp/3zzlC00.pdb
 106 103 0 0 0
SMALL
GASTEIGER

@<TRIPOS>ATOM
      1  N         37.2020  -12.4950   16.0580 N.3     4  PHE4       -0.1241
      2  CA        36.9100  -13.1600   14.7980 C.3     4  PHE4        0.1605
      3  C         35.4600  -12.8750   14.4070 C.2     4  PHE4        0.2264
      4  O         34.6520  -12.4740   15.2380 O.2     4  PHE4       -0.2867
      5  CB        37.1620  -14.6640   14.9520 C.3     4  PHE4        0.0534
      6  CG        36.8160  -15.1800   16.3090 C.ar    4  PHE4       -0.0203
      7  CD1       37.7110  -15.0780   17.3620 C.ar    4  PHE4       -0.0042
      8  CD2       35.5630  -15.7130   16.5480 C.ar    4  PHE4       -0.0042
      9  CE1       37.3610  -15.5200   18.6170 C.ar    4  PHE4       -0.0003
     10  CE2       35.2120  -16.1700   17.7730 C.ar    4  PHE4       -0.0003
     11  CZ        36.0930  -16.0750   18.8260 C.ar    4  PHE4       -0.0000
     12  N         28.3620  -22.0410   16.6730 N.3    15  VAL15      -0.1231
     13  CA        29.6210  -21.5420   17.2040 C.3    15  VAL15       0.1692
     14  C         29.7120  -21.9730   18.6460 C.2    15  VAL15       0.2592
     15  O         28.8980  -21.5550   19.4760 O.2    15  VAL15      -0.2718
     16  CB        29.7600  -19.9970   17.0820 C.3    15  VAL15       0.0266
     17  CG1       31.1180  -19.5430   17.6230 C.3    15  VAL15       0.0020
     18  CG2       29.6080  -19.5750   15.6170 C.3    15  VAL15       0.0020
     19  N         30.6910  -22.8280   18.9300 N.am   16  PHE16      -0.1962
     20  CA        30.9160  -23.3030   20.2980 C.3    16  PHE16       0.1771
     21  C         32.0980  -22.5770   20.9080 C.2    16  PHE16       0.2620
     22  O         33.1850  -22.6020   20.3460 O.2    16  PHE16      -0.2715
     23  CB        31.2700  -24.7870   20.3170 C.3    16  PHE16       0.0574
     24  CG        30.1560  -25.6880   19.9120 C.ar   16  PHE16      -0.0200
     25  CD1       29.9560  -26.0130   18.5780 C.ar   16  PHE16      -0.0042
     26  CD2       29.2980  -26.1860   20.8600 C.ar   16  PHE16      -0.0042
     27  CE1       28.9070  -26.8780   18.2030 C.ar   16  PHE16      -0.0003
     28  CE2       28.2570  -27.0570   20.5040 C.ar   16  PHE16      -0.0003
     29  CZ        28.0660  -27.3890   19.1770 C.ar   16  PHE16      -0.0000
     30  N         31.9060  -22.0070   22.0900 N.am   17  GLY17      -0.1954
     31  CA        32.9960  -21.4210   22.8550 C.3    17  GLY17       0.1869
     32  C         33.6060  -22.5070   23.7430 C.2    17  GLY17       0.2309
     33  O         32.8630  -23.2410   24.4040 O.2    17  GLY17      -0.2863
     34  N         31.3090  -24.2330   26.6180 N.3    27  HIS27      -0.1226
     35  CA        30.5500  -23.5670   27.6850 C.3    27  HIS27       0.1752
     36  C         29.3500  -22.7850   27.1290 C.2    27  HIS27       0.2596
     37  O         28.4720  -22.3550   27.8740 O.2    27  HIS27      -0.2718
     38  CB        31.4420  -22.6450   28.4950 C.3    27  HIS27       0.0759
     39  CG        31.9450  -21.4740   27.7250 C.ar   27  HIS27       0.0818
     40  ND1       31.1680  -20.3630   27.4700 N.ar   27  HIS27      -0.2268
     41  CD2       33.1630  -21.2170   27.1890 C.ar   27  HIS27       0.1154
     42  CE1       31.8760  -19.4960   26.7620 C.ar   27  HIS27       0.1986
     43  NE2       33.0980  -19.9850   26.5950 N.ar   27  HIS27      -0.2212
     44  N         29.3120  -22.6330   25.8120 N.am   28  HIS28      -0.1975
     45  CA        28.2610  -21.9200   25.1530 C.3    28  HIS28       0.1656
     46  C         28.2070  -22.3280   23.6870 C.2    28  HIS28       0.2291
     47  O         29.2370  -22.5710   23.0340 O.2    28  HIS28      -0.2864
     48  CB        28.4960  -20.4030   25.2270 C.3    28  HIS28       0.0771
     49  CG        27.3710  -19.6080   24.6670 C.ar   28  HIS28       0.0820
     50  ND1       26.1700  -19.4540   25.3200 N.ar   28  HIS28      -0.2267
     51  CD2       27.2130  -19.0490   23.4450 C.ar   28  HIS28       0.1154
     52  CE1       25.3500  -18.7510   24.5630 C.ar   28  HIS28       0.1986
     53  NE2       25.9530  -18.5020   23.4110 N.ar   28  HIS28      -0.2212
     54  N         28.1560  -13.2510   13.8480 N.3    38  MET38      -0.1245
     55  CA        28.6830  -13.1130   15.1990 C.3    38  MET38       0.1570
     56  C         30.0780  -12.5130   15.0760 C.2    38  MET38       0.2261
     57  O         30.8890  -12.9510   14.2440 O.2    38  MET38      -0.2867
     58  CB        28.7610  -14.4540   15.9080 C.3    38  MET38       0.0387
     59  CG        29.2190  -14.4330   17.3640 C.3    38  MET38       0.0595
     60  SD        28.9470  -16.1150   18.0040 S.3    38  MET38      -0.1393
     61  CE        29.5500  -15.9540   19.6900 C.3    38  MET38       0.0692
     62  N         33.1380  -11.9340   17.7070 N.3    40  ALA40      -0.1231
     63  CA        33.4090  -12.3750   19.0820 C.3    40  ALA40       0.1694
     64  C         34.8960  -12.2820   19.3940 C.2    40  ALA40       0.2591
     65  O         35.7270  -12.4690   18.5450 O.2    40  ALA40      -0.2718
     66  CB        32.8920  -13.8290   19.3120 C.3    40  ALA40       0.0304
     67  N         35.2150  -12.0390   20.6540 N.am   41  GLN41      -0.1979
     68  CA        36.6030  -12.0040   21.1180 C.3    41  GLN41       0.1601
     69  C         37.0180  -13.2980   21.7900 C.2    41  GLN41       0.2287
     70  O         36.1710  -14.0940   22.2650 O.2    41  GLN41      -0.2864
     71  CB        36.7780  -10.8880   22.1440 C.3    41  GLN41       0.0394
     72  CG        36.4290   -9.5010   21.6620 C.3    41  GLN41       0.0908
     73  CD        36.7600   -8.4570   22.6760 C.2    41  GLN41       0.2608
     74  OE1       36.1750   -8.4260   23.7520 O.2    41  GLN41      -0.2717
     75  NE2       37.6990   -7.5970   22.3530 N.am   41  GLN41      -0.0878
     76  N         38.7100  -14.2690   25.2920 N.3    43  THR43      -0.1218
     77  CA        38.4720  -13.6670   26.5880 C.3    43  THR43       0.1862
     78  C         39.0330  -14.4480   27.7250 C.2    43  THR43       0.2287
     79  O         39.6650  -15.4890   27.5340 O.2    43  THR43      -0.2866
     80  CB        36.9370  -13.6100   26.8150 C.3    43  THR43       0.1770
     81  OG1       36.4640  -14.9500   26.9500 O.3    43  THR43      -0.2211
     82  CG2       36.2170  -12.9470   25.6220 C.3    43  THR43       0.0375
     83  N         37.4270  -16.2180   29.5990 N.3    45  HIS45      -0.1226
     84  CA        36.7130  -17.4860   29.6640 C.3    45  HIS45       0.1752
     85  C         36.7550  -18.3100   28.4110 C.2    45  HIS45       0.2596
     86  O         36.4930  -19.5160   28.4470 O.2    45  HIS45      -0.2718
     87  CB        35.3020  -17.1900   30.1430 C.3    45  HIS45       0.0759
     88  CG        35.3180  -16.6400   31.5450 C.ar   45  HIS45       0.0818
     89  ND1       35.2230  -15.2890   31.8080 N.ar   45  HIS45      -0.2268
     90  CD2       35.5510  -17.2400   32.7380 C.ar   45  HIS45       0.1154
     91  CE1       35.3430  -15.0880   33.1080 C.ar   45  HIS45       0.1986
     92  NE2       35.5460  -16.2560   33.6970 N.ar   45  HIS45      -0.2212
     93  N         37.0880  -17.6870   27.3090 N.am   46  THR46      -0.1953
     94  CA        37.0850  -18.3550   26.0170 C.3    46  THR46       0.1897
     95  C         38.4400  -18.2700   25.3240 C.2    46  THR46       0.2313
     96  O         38.8710  -17.1840   24.9270 O.2    46  THR46      -0.2863
     97  CB        35.9980  -17.7920   25.0890 C.3    46  THR46       0.1794
     98  OG1       34.7230  -17.9430   25.7230 O.3    46  THR46      -0.2208
     99  CG2       36.0060  -18.5450   23.7500 C.3    46  THR46       0.0378
    100  N         37.4620  -21.6030   19.8380 N.3    49  VAL49      -0.1245
    101  CA        36.0990  -21.8110   19.3560 C.3    49  VAL49       0.1561
    102  C         36.0880  -22.9060   18.3030 C.2    49  VAL49       0.2260
    103  O         37.0840  -23.1560   17.6440 O.2    49  VAL49      -0.2867
    104  CB        35.4680  -20.5230   18.7560 C.3    49  VAL49       0.0252
    105  CG1       35.1150  -19.5550   19.8590 C.3    49  VAL49       0.0019
    106  CG2       36.3850  -19.8650   17.7170 C.3    49  VAL49       0.0019
@<TRIPOS>BOND
     1    54    55    1
     2    57    56    2
     3     3     2    1
     4     3     4    2
     5     2     5    1
     6     2     1    1
     7     5     6    1
     8    56    55    1
     9    55    58    1
    10    18    16    1
    11    58    59    1
    12     6     8   ar
    13     6     7   ar
    14     8    10   ar
    15    12    13    1
    16    16    13    1
    17    16    17    1
    18    13    14    1
    19     7     9   ar
    20    59    60    1
    21   103   102    2
    22    62    63    1
    23   106   104    1
    24    10    11   ar
    25    60    61    1
    26    27    25   ar
    27    27    29   ar
    28   102   101    1
    29    65    64    2
    30    25    24   ar
    31     9    11   ar
    32    14    19   am
    33    14    15    2
    34   104   101    1
    35   104   105    1
    36    19    20    1
    37    63    66    1
    38    63    64    1
    39    29    28   ar
    40   101   100    1
    41    64    67   am
    42    24    23    1
    43    24    26   ar
    44    20    23    1
    45    20    21    1
    46    22    21    2
    47    28    26   ar
    48    67    68    1
    49    21    30   am
    50    68    69    1
    51    68    71    1
    52    72    71    1
    53    72    73    1
    54    69    70    2
    55    30    31    1
    56    75    73   am
    57    73    74    2
    58    31    32    1
    59    47    46    2
    60    53    51   ar
    61    53    52   ar
    62    51    49   ar
    63    46    45    1
    64    32    33    2
    65    99    97    1
    66    52    50   ar
    67    49    48    1
    68    49    50   ar
    69    96    95    2
    70    97    98    1
    71    97    94    1
    72    45    48    1
    73    45    44    1
    74    76    77    1
    75    95    94    1
    76    82    80    1
    77    44    36   am
    78    94    93    1
    79    77    80    1
    80    77    78    1
    81    43    42   ar
    82    43    41   ar
    83    34    35    1
    84    42    40   ar
    85    80    81    1
    86    36    35    1
    87    36    37    2
    88    41    39   ar
    89    93    85   am
    90    40    39   ar
    91    79    78    2
    92    35    38    1
    93    39    38    1
    94    85    86    2
    95    85    84    1
    96    83    84    1
    97    84    87    1
    98    87    88    1
    99    88    89   ar
   100    88    90   ar
   101    89    91   ar
   102    90    92   ar
   103    91    92   ar
