@<TRIPOS>MOLECULE
tmp/3zzmA00.pdb
 180 173 0 0 0
SMALL
GASTEIGER

@<TRIPOS>ATOM
      1  N         72.5320  120.0710  -10.1520 N.3    13  SER13      -0.1202
      2  CA        72.4010  120.7630   -8.8860 C.3    13  SER13       0.2020
      3  C         72.8620  119.7920   -7.8340 C.2    13  SER13       0.2619
      4  O         72.1370  118.8570   -7.4870 O.2    13  SER13      -0.2717
      5  CB        70.9560  121.2130   -8.6700 C.3    13  SER13       0.2103
      6  OG        70.8520  122.0610   -7.5440 O.3    13  SER13      -0.2182
      7  N         74.1300  119.9120   -7.4580 N.am   14  VAL14      -0.1965
      8  CA        74.7290  118.9570   -6.5340 C.3    14  VAL14       0.1727
      9  C         75.2950  119.6500   -5.2930 C.2    14  VAL14       0.2616
     10  O         75.9880  120.6730   -5.4090 O.2    14  VAL14      -0.2715
     11  CB        75.8180  118.0720   -7.2350 C.3    14  VAL14       0.0290
     12  CG1       75.1970  117.1470   -8.2820 C.3    14  VAL14       0.0023
     13  CG2       76.9470  118.9090   -7.8490 C.3    14  VAL14       0.0023
     14  N         75.0230  119.0750   -4.1090 N.am   15  TYR15      -0.1974
     15  CA        75.6430  119.5890   -2.8950 C.3    15  TYR15       0.1639
     16  C         77.1600  119.3010   -2.9650 C.2    15  TYR15       0.2290
     17  O         77.9920  120.2100   -2.8700 O.2    15  TYR15      -0.2864
     18  CB        75.0270  118.9840   -1.6140 C.3    15  TYR15       0.0560
     19  CG        75.7600  119.4990   -0.3910 C.ar   15  TYR15      -0.0198
     20  CD1       75.4440  120.7370    0.1640 C.ar   15  TYR15      -0.0009
     21  CD2       76.8690  118.8220    0.1170 C.ar   15  TYR15      -0.0009
     22  CE1       76.1730  121.2600    1.2330 C.ar   15  TYR15       0.0417
     23  CE2       77.6190  119.3460    1.1680 C.ar   15  TYR15       0.0417
     24  CZ        77.2520  120.5540    1.7430 C.ar   15  TYR15       0.1957
     25  OH        77.9570  121.0540    2.8180 O.3    15  TYR15      -0.2866
     26  N         80.3430  118.3560   -4.9470 N.3    17  LYS17      -0.1245
     27  CA        80.8220  118.5760   -6.3100 C.3    17  LYS17       0.1561
     28  C         81.9470  117.5780   -6.7260 C.2    17  LYS17       0.2260
     29  O         82.6520  117.8660   -7.6840 O.2    17  LYS17      -0.2867
     30  CB        81.2960  120.0400   -6.5080 C.3    17  LYS17       0.0271
     31  CG        80.5040  121.1070   -5.7400 C.3    17  LYS17       0.0035
     32  CD        79.2560  121.5950   -6.4550 C.3    17  LYS17       0.0206
     33  CE        78.6470  122.8100   -5.7910 C.3    17  LYS17       0.1093
     34  NZ        78.0560  122.5030   -4.4650 N.3    17  LYS17      -0.1314
     35  N         72.2870  125.5410  -10.8240 N.3    37  THR37      -0.1203
     36  CA        72.0140  126.4660   -9.7290 C.3    37  THR37       0.1994
     37  C         73.3430  127.1540   -9.3540 C.2    37  THR37       0.2618
     38  O         74.3810  126.7810   -9.8940 O.2    37  THR37      -0.2717
     39  CB        71.3700  125.7060   -8.5410 C.3    37  THR37       0.1784
     40  OG1       72.0150  124.4380   -8.3590 O.3    37  THR37      -0.2211
     41  CG2       69.8810  125.5140   -8.7090 C.3    37  THR37       0.0376
     42  N         73.2780  128.1320   -8.4450 N.am   38  GLY38      -0.1942
     43  CA        74.3780  128.9440   -7.9220 C.3    38  GLY38       0.2014
     44  C         75.8140  128.4270   -7.9230 C.2    38  GLY38       0.2640
     45  O         76.5510  128.7100   -8.8710 O.2    38  GLY38      -0.2714
     46  N         76.2490  127.7400   -6.8330 N.am   39  SER39      -0.1935
     47  CA        77.6350  127.2490   -6.6780 C.3    39  SER39       0.2055
     48  C         78.0090  126.0900   -7.6330 C.2    39  SER39       0.2643
     49  O         79.1880  125.9720   -7.9930 O.2    39  SER39      -0.2714
     50  CB        77.9610  126.8670   -5.2370 C.3    39  SER39       0.2130
     51  OG        76.8710  126.3460   -4.5000 O.3    39  SER39      -0.2179
     52  N         77.0270  125.2640   -8.0690 N.am   40  THR40      -0.1950
     53  CA        77.2810  124.2080   -9.0530 C.3    40  THR40       0.1897
     54  C         77.6950  124.9100  -10.3430 C.2    40  THR40       0.2313
     55  O         78.7280  124.5640  -10.9320 O.2    40  THR40      -0.2863
     56  CB        76.0450  123.2920   -9.2210 C.3    40  THR40       0.1794
     57  OG1       75.7540  122.6650   -7.9690 O.3    40  THR40      -0.2208
     58  CG2       76.2350  122.2410  -10.3050 C.3    40  THR40       0.0378
     59  N         67.1080  133.0160   -7.3430 N.3    62  GLU62      -0.1245
     60  CA        67.3180  132.1130   -6.1960 C.3    62  GLU62       0.1567
     61  C         67.0270  132.9770   -4.9610 C.2    62  GLU62       0.2260
     62  O         67.6180  134.0620   -4.8590 O.2    62  GLU62      -0.2867
     63  CB        68.7480  131.5320   -6.1690 C.3    62  GLU62       0.0388
     64  CG        69.0540  130.5410   -7.2770 C.3    62  GLU62       0.1160
     65  CD        70.2090  129.5830   -7.0400 C.2    62  GLU62       0.3649
     66  OE1       70.7860  129.5850   -5.9290 O.co2  62  GLU62      -0.2457
     67  OE2       70.5200  128.8040   -7.9670 O.co2  62  GLU62      -0.2457
     68  N         68.7230  130.3760   -0.6770 N.3    66  GLY66      -0.1210
     69  CA        68.7440  129.1150   -1.4060 C.3    66  GLY66       0.1956
     70  C         67.6520  128.1290   -1.0450 C.2    66  GLY66       0.2612
     71  O         67.8750  126.9230   -1.1570 O.2    66  GLY66      -0.2717
     72  N         66.4530  128.6220   -0.6420 N.am   67  ARG67      -0.1965
     73  CA        65.3230  127.7470   -0.3040 C.3    67  ARG67       0.1729
     74  C         64.3520  127.4590   -1.4890 C.2    67  ARG67       0.2616
     75  O         63.7850  126.3650   -1.5170 O.2    67  ARG67      -0.2715
     76  CB        64.4960  128.3010    0.8800 C.3    67  ARG67       0.0348
     77  CG        65.0750  127.9560    2.2430 C.3    67  ARG67       0.0492
     78  CD        64.3550  128.6050    3.4190 C.3    67  ARG67       0.2205
     79  NE        64.7870  128.0380    4.7050 N.pl3  67  ARG67      -0.0865
     80  CZ        63.9720  127.7600    5.7270 C.cat  67  ARG67       0.5346
     81  NH1       62.6710  128.0070    5.6380 N.pl3  67  ARG67       0.1354
     82  NH2       64.4570  127.2370    6.8460 N.pl3  67  ARG67       0.1354
     83  N         64.1070  128.4330   -2.4140 N.am   68  VAL68      -0.1963
     84  CA        63.0970  128.2700   -3.4870 C.3    68  VAL68       0.1727
     85  C         63.6360  128.4190   -4.9540 C.2    68  VAL68       0.2616
     86  O         62.8390  128.7070   -5.8700 O.2    68  VAL68      -0.2715
     87  CB        61.9040  129.2460   -3.2730 C.3    68  VAL68       0.0290
     88  CG1       61.1740  128.9620   -1.9610 C.3    68  VAL68       0.0023
     89  CG2       62.3480  130.7170   -3.3550 C.3    68  VAL68       0.0023
     90  N         64.9370  128.1480   -5.1820 N.am   69  LYS69      -0.1963
     91  CA        65.6340  128.2730   -6.4850 C.3    69  LYS69       0.1728
     92  C         65.0660  127.4670   -7.7160 C.2    69  LYS69       0.2617
     93  O         64.9940  128.0360   -8.8050 O.2    69  LYS69      -0.2715
     94  CB        67.1230  127.9150   -6.3500 C.3    69  LYS69       0.0311
     95  CG        67.5000  126.8620   -5.3000 C.3    69  LYS69       0.0038
     96  CD        69.0210  126.7690   -5.1820 C.3    69  LYS69       0.0206
     97  CE        69.4960  125.9690   -3.9960 C.3    69  LYS69       0.1093
     98  NZ        70.9810  125.9370   -3.9160 N.3    69  LYS69      -0.1314
     99  N         64.7580  126.1650   -7.5740 N.am   70  THR70      -0.1937
    100  CA        64.3190  125.3130   -8.6970 C.3    70  THR70       0.2028
    101  C         62.8440  124.8840   -8.6310 C.2    70  THR70       0.2642
    102  O         62.3920  124.1460   -9.5130 O.2    70  THR70      -0.2714
    103  CB        65.1710  124.0500   -8.7640 C.3    70  THR70       0.1808
    104  OG1       65.0140  123.3570   -7.5330 O.3    70  THR70      -0.2208
    105  CG2       66.6350  124.3330   -9.0510 C.3    70  THR70       0.0379
    106  N         62.0980  125.3330   -7.6070 N.am   71  LEU71      -0.1977
    107  CA        60.6790  124.9990   -7.4600 C.3    71  LEU71       0.1596
    108  C         59.8980  125.9530   -8.3250 C.2    71  LEU71       0.2287
    109  O         59.2240  126.8710   -7.8430 O.2    71  LEU71      -0.2864
    110  CB        60.2400  125.0200   -5.9920 C.3    71  LEU71       0.0297
    111  CG        60.9290  123.9540   -5.1350 C.3    71  LEU71       0.0022
    112  CD1       60.9540  124.3630   -3.6640 C.3    71  LEU71       0.0001
    113  CD2       60.2880  122.5780   -5.3540 C.3    71  LEU71       0.0001
    114  N         71.7490  115.2820   -9.6040 N.3   105  VAL105     -0.1231
    115  CA        71.4590  115.8980   -8.3160 C.3   105  VAL105      0.1692
    116  C         71.9030  114.9750   -7.1760 C.2   105  VAL105      0.2592
    117  O         71.6480  113.7790   -7.2380 O.2   105  VAL105     -0.2718
    118  CB        69.9340  116.2100   -8.1970 C.3   105  VAL105      0.0266
    119  CG1       69.5720  116.6840   -6.7960 C.3   105  VAL105      0.0020
    120  CG2       69.4710  117.2260   -9.2540 C.3   105  VAL105      0.0020
    121  N         72.5250  115.5450   -6.1280 N.am  106  ASN106     -0.1974
    122  CA        72.8230  114.8720   -4.8550 C.3   106  ASN106      0.1688
    123  C         72.4350  115.8570   -3.7490 C.2   106  ASN106      0.2292
    124  O         72.6160  117.0740   -3.8620 O.2   106  ASN106     -0.2864
    125  CB        74.2540  114.2870   -4.7100 C.3   106  ASN106      0.1181
    126  CG        75.3840  115.2690   -4.7170 C.2   106  ASN106      0.2629
    127  OD1       75.4890  116.1480   -3.8550 O.2   106  ASN106     -0.2716
    128  ND2       76.3320  115.0490   -5.6170 N.am  106  ASN106     -0.0877
    129  N         71.4580  117.6600    0.1530 N.3   108  TYR108     -0.1241
    130  CA        72.0810  118.3110    1.3050 C.3   108  TYR108      0.1605
    131  C         72.5670  117.1990    2.2550 C.2   108  TYR108      0.2264
    132  O         71.9060  116.1570    2.3360 O.2   108  TYR108     -0.2867
    133  CB        71.1040  119.2670    2.0200 C.3   108  TYR108      0.0534
    134  CG        70.7750  120.5680    1.3160 C.ar  108  TYR108     -0.0201
    135  CD1       71.4030  120.9200    0.1230 C.ar  108  TYR108     -0.0009
    136  CD2       69.8270  121.4450    1.8400 C.ar  108  TYR108     -0.0009
    137  CE1       71.0730  122.0970   -0.5480 C.ar  108  TYR108      0.0417
    138  CE2       69.4880  122.6240    1.1800 C.ar  108  TYR108      0.0417
    139  CZ        70.1100  122.9430   -0.0180 C.ar  108  TYR108      0.1957
    140  OH        69.8100  124.1180   -0.6660 O.3   108  TYR108     -0.2866
    141  N         67.8140  120.1590    5.3880 N.3   127  ILE127     -0.1231
    142  CA        66.7050  119.4000    4.8060 C.3   127  ILE127      0.1692
    143  C         66.5030  119.9660    3.3850 C.2   127  ILE127      0.2592
    144  O         66.1330  121.1350    3.2240 O.2   127  ILE127     -0.2718
    145  CB        65.4020  119.4180    5.6370 C.3   127  ILE127      0.0266
    146  CG1       65.5950  118.7480    7.0280 C.3   127  ILE127      0.0019
    147  CG2       64.2440  118.7530    4.8300 C.3   127  ILE127      0.0020
    148  CD1       64.4810  119.0720    8.0370 C.3   127  ILE127      0.0001
    149  N         66.8260  119.1630    2.3730 N.am  128  ASP128     -0.1960
    150  CA        66.7120  119.5830    0.9710 C.3   128  ASP128      0.1840
    151  C         65.2630  119.4330    0.4720 C.2   128  ASP128      0.2622
    152  O         64.6870  118.3500    0.6050 O.2   128  ASP128     -0.2715
    153  CB        67.6810  118.7520    0.1010 C.3   128  ASP128      0.1450
    154  CG        68.0310  119.3510   -1.2610 C.2   128  ASP128      0.3671
    155  OD1       67.2930  120.2650   -1.7280 O.co2 128  ASP128     -0.2456
    156  OD2       69.0380  118.9060   -1.8620 O.co2 128  ASP128     -0.2456
    157  N         64.6850  120.5110   -0.0920 N.am  129  ILE129     -0.1963
    158  CA        63.3300  120.4710   -0.6540 C.3   129  ILE129      0.1727
    159  C         63.3960  120.2960   -2.1870 C.2   129  ILE129      0.2617
    160  O         62.8520  119.3140   -2.7010 O.2   129  ILE129     -0.2715
    161  CB        62.4590  121.6930   -0.2510 C.3   129  ILE129      0.0290
    162  CG1       62.4550  121.9290    1.2950 C.3   129  ILE129      0.0022
    163  CG2       61.0290  121.6010   -0.8350 C.3   129  ILE129      0.0023
    164  CD1       61.9550  120.7980    2.1700 C.3   129  ILE129      0.0001
    165  N         64.0440  121.2460   -2.8750 N.am  130  GLY130     -0.1940
    166  CA        64.1870  121.2560   -4.3310 C.3   130  GLY130      0.2014
    167  C         64.8800  120.0530   -4.9280 C.2   130  GLY130      0.2639
    168  O         64.4340  119.5320   -5.9620 O.2   130  GLY130     -0.2714
    169  N         65.9640  119.6290   -4.2770 N.am  131  GLY131     -0.1954
    170  CA        66.7520  118.4580   -4.6460 C.3   131  GLY131      0.1869
    171  C         65.8860  117.2160   -4.7900 C.2   131  GLY131      0.2309
    172  O         65.7380  116.7170   -5.9000 O.2   131  GLY131     -0.2863
    173  N         63.2960  117.5100   -7.7040 N.3   134  MET134     -0.1245
    174  CA        63.9100  117.2880   -9.0190 C.3   134  MET134      0.1570
    175  C         64.1940  115.8040   -9.2650 C.2   134  MET134      0.2261
    176  O         63.9630  115.3150  -10.3690 O.2   134  MET134     -0.2867
    177  CB        65.2240  118.0680   -9.1430 C.3   134  MET134      0.0387
    178  CG        65.0510  119.5460   -9.3410 C.3   134  MET134      0.0595
    179  SD        66.6210  120.3760   -9.6590 S.3   134  MET134     -0.1393
    180  CE        67.3270  120.5950   -7.9750 C.3   134  MET134      0.0692
@<TRIPOS>BOND
     1    55    54    2
     2    35    36    1
     3   176   175    2
     4    54    53    1
     5    58    56    1
     6     1     2    1
     7    38    37    2
     8    36    37    1
     9    36    39    1
    10   179   178    1
    11   179   180    1
    12   114   115    1
    13   102   101    2
    14    37    42   am
    15   178   177    1
    16   175   174    1
    17   120   118    1
    18    56    53    1
    19    56    57    1
    20   177   174    1
    21    53    52    1
    22   105   103    1
    23   174   173    1
    24     2     5    1
    25     2     3    1
    26    45    44    2
    27    93    92    2
    28   103   100    1
    29   103   104    1
    30    41    39    1
    31   100   101    1
    32   100    99    1
    33     5     6    1
    34   101   106   am
    35    39    40    1
    36    42    43    1
    37   108   109    2
    38   108   107    1
    39   115   118    1
    40   115   116    1
    41    12    11    1
    42   118   119    1
    43    52    48   am
    44    49    48    2
    45    67    65   ar
    46    44    43    1
    47    44    46   am
    48    13    11    1
    49     3     4    2
    50     3     7   am
    51    92    99   am
    52    92    91    1
    53    29    28    2
    54    48    47    1
    55   106   107    1
    56   107   110    1
    57     7     8    1
    58    59    60    1
    59    64    65    1
    60    64    63    1
    61   117   116    2
    62    11     8    1
    63   116   121   am
    64    65    66   ar
    65    46    47    1
    66    28    27    1
    67    47    50    1
    68     8     9    1
    69    30    27    1
    70    30    31    1
    71    91    94    1
    72    91    90    1
    73    32    33    1
    74    32    31    1
    75    94    95    1
    76    27    26    1
    77    60    63    1
    78    60    61    1
    79   121   122    1
    80   110   111    1
    81   168   167    2
    82   172   171    2
    83    86    85    2
    84    33    34    1
    85   128   126   am
    86    10     9    2
    87   113   111    1
    88    95    96    1
    89     9    14   am
    90    50    51    1
    91    90    85   am
    92    96    97    1
    93   111   112    1
    94    61    62    2
    95    85    84    1
    96   167   166    1
    97   167   169   am
    98   122   125    1
    99   122   123    1
   100   171   170    1
   101   126   125    1
   102   126   127    2
   103   170   169    1
   104   166   165    1
   105    14    15    1
   106    97    98    1
   107   124   123    2
   108    84    87    1
   109    84    83    1
   110    89    87    1
   111    87    88    1
   112    16    15    1
   113    16    17    2
   114    15    18    1
   115   165   159   am
   116   160   159    2
   117    83    74   am
   118   159   158    1
   119   156   154   ar
   120   155   154   ar
   121    18    19    1
   122    75    74    2
   123    74    73    1
   124    69    70    1
   125    69    68    1
   126   154   153    1
   127    71    70    2
   128    70    72   am
   129   163   161    1
   130   140   139    1
   131   158   161    1
   132   158   157    1
   133    72    73    1
   134   137   139   ar
   135   137   135   ar
   136    19    21   ar
   137    19    20   ar
   138    73    76    1
   139   161   162    1
   140   157   151   am
   141   139   138   ar
   142   153   150    1
   143    21    23   ar
   144   135   134   ar
   145   129   130    1
   146    20    22   ar
   147   151   152    2
   148   151   150    1
   149    76    77    1
   150   150   149    1
   151    23    24   ar
   152   138   136   ar
   153    22    24   ar
   154   162   164    1
   155   130   133    1
   156   130   131    1
   157   134   136   ar
   158   134   133    1
   159    24    25    1
   160    77    78    1
   161   131   132    2
   162   149   143   am
   163   144   143    2
   164   143   142    1
   165    78    79    1
   166    79    80    2
   167   142   141    1
   168   142   145    1
   169   147   145    1
   170   145   146    1
   171    81    80    1
   172    80    82    1
   173   146   148    1
