@<TRIPOS>MOLECULE
tmp/3zznA00.pdb
 161 152 0 0 0
SMALL
GASTEIGER

@<TRIPOS>ATOM
      1  N         25.8550   -6.3620   62.3640 N.3     6  VAL6       -0.1231
      2  CA        25.9210   -6.2670   63.8120 C.3     6  VAL6        0.1692
      3  C         25.3370   -7.5490   64.3840 C.2     6  VAL6        0.2592
      4  O         24.2240   -7.9380   64.0500 O.2     6  VAL6       -0.2718
      5  CB        25.1590   -5.0430   64.3370 C.3     6  VAL6        0.0266
      6  CG1       25.2420   -4.9730   65.8470 C.3     6  VAL6        0.0020
      7  CG2       25.7110   -3.7780   63.7150 C.3     6  VAL6        0.0020
      8  N         26.1130   -8.2010   65.2400 N.am    7  GLY7       -0.1957
      9  CA        25.8330   -9.5440   65.7090 C.3     7  GLY7        0.1869
     10  C         26.7060  -10.5040   64.9260 C.2     7  GLY7        0.2309
     11  O         26.4230  -10.8300   63.7780 O.2     7  GLY7       -0.2863
     12  N         27.6310  -13.6830   65.7280 N.3     9  GLY9       -0.1210
     13  CA        27.4520  -15.1090   65.9510 C.3     9  GLY9        0.1956
     14  C         27.2200  -15.9120   64.6750 C.2     9  GLY9        0.2612
     15  O         27.6760  -15.5240   63.6070 O.2     9  GLY9       -0.2717
     16  N         26.6600  -17.1070   64.7940 N.am   10  MET10      -0.1965
     17  CA        26.5840  -17.9950   63.6460 C.3    10  MET10       0.1736
     18  C         25.9170  -17.3720   62.4250 C.2    10  MET10       0.2616
     19  O         26.4770  -17.4440   61.3280 O.2    10  MET10      -0.2715
     20  CB        25.9630  -19.3390   64.0140 C.3    10  MET10       0.0427
     21  CG        26.8720  -20.2420   64.8660 C.3    10  MET10       0.0599
     22  SD        28.6150  -20.2410   64.3780 S.3    10  MET10      -0.1393
     23  CE        28.5830  -20.8460   62.6920 C.3    10  MET10       0.0692
     24  N         24.7570  -16.7350   62.6040 N.am   11  VAL11      -0.1963
     25  CA        24.0890  -16.0810   61.4780 C.3    11  VAL11       0.1727
     26  C         24.8930  -14.8980   60.8900 C.2    11  VAL11       0.2616
     27  O         25.1010  -14.8040   59.6760 O.2    11  VAL11      -0.2715
     28  CB        22.6870  -15.6090   61.8480 C.3    11  VAL11       0.0290
     29  CG1       22.1040  -14.7510   60.7340 C.3    11  VAL11       0.0023
     30  CG2       21.8080  -16.7690   62.1060 C.3    11  VAL11       0.0023
     31  N         25.3390  -13.9860   61.7420 N.am   12  GLY12      -0.1955
     32  CA        26.1690  -12.8870   61.2770 C.3    12  GLY12       0.1869
     33  C         27.3990  -13.3570   60.5240 C.2    12  GLY12       0.2309
     34  O         27.6810  -12.8810   59.4160 O.2    12  GLY12      -0.2863
     35  N         30.5290   -6.0950   63.6400 N.3    31  VAL31      -0.1231
     36  CA        30.4270   -5.3920   64.9080 C.3    31  VAL31       0.1692
     37  C         29.7720   -6.3390   65.8920 C.2    31  VAL31       0.2592
     38  O         28.6760   -6.8530   65.6410 O.2    31  VAL31      -0.2718
     39  CB        29.5580   -4.1230   64.7860 C.3    31  VAL31       0.0266
     40  CG1       29.3950   -3.4870   66.1390 C.3    31  VAL31       0.0020
     41  CG2       30.1680   -3.1520   63.8040 C.3    31  VAL31       0.0020
     42  N         30.4470   -6.5940   67.0010 N.am   32  ASP32      -0.1960
     43  CA        29.8610   -7.4250   68.0440 C.3    32  ASP32       0.1840
     44  C         30.2920   -7.0170   69.4470 C.2    32  ASP32       0.2622
     45  O         31.3900   -6.5810   69.6850 O.2    32  ASP32      -0.2715
     46  CB        30.1640   -8.9050   67.8110 C.3    32  ASP32       0.1450
     47  CG        29.3690   -9.8160   68.7160 C.2    32  ASP32       0.3671
     48  OD1       29.5390   -9.7540   69.9340 O.co2  32  ASP32      -0.2456
     49  OD2       28.5890  -10.6220   68.2210 O.co2  32  ASP32      -0.2456
     50  N         29.3970   -7.2050   70.3890 N.am   33  LEU33      -0.1963
     51  CA        29.6840   -6.9610   71.7850 C.3    33  LEU33       0.1728
     52  C         30.9760   -7.6070   72.2330 C.2    33  LEU33       0.2616
     53  O         31.7800   -6.9930   72.9410 O.2    33  LEU33      -0.2715
     54  CB        28.5580   -7.5340   72.6190 C.3    33  LEU33       0.0311
     55  CG        27.9420   -6.4970   73.5220 C.3    33  LEU33       0.0022
     56  CD1       27.2950   -7.2310   74.6530 C.3    33  LEU33       0.0001
     57  CD2       29.0550   -5.5860   74.0000 C.3    33  LEU33       0.0001
     58  N         31.1900   -8.8400   71.7940 N.am   34  ASP34      -0.1971
     59  CA        32.4190   -9.5410   72.1190 C.3    34  ASP34       0.1709
     60  C         33.3450   -9.1980   70.9660 C.2    34  ASP34       0.2293
     61  O         33.2010   -9.7580   69.8630 O.2    34  ASP34      -0.2864
     62  CB        32.1070  -11.0400   72.0900 C.3    34  ASP34       0.1436
     63  CG        33.3190  -11.9050   72.3130 C.2    34  ASP34       0.3671
     64  OD1       34.4470  -11.3770   72.3410 O.co2  34  ASP34      -0.2456
     65  OD2       33.1340  -13.1290   72.4500 O.co2  34  ASP34      -0.2456
     66  N         35.5200  -12.0120   69.2890 N.3    37  LEU37      -0.1245
     67  CA        34.7640  -12.9250   68.4540 C.3    37  LEU37       0.1561
     68  C         34.6180  -12.3610   67.0420 C.2    37  LEU37       0.2260
     69  O         34.8730  -13.0520   66.0370 O.2    37  LEU37      -0.2867
     70  CB        33.3930  -13.1700   69.0690 C.3    37  LEU37       0.0270
     71  CG        32.3950  -13.9550   68.2240 C.3    37  LEU37       0.0019
     72  CD1       32.8580  -15.3810   68.0590 C.3    37  LEU37       0.0001
     73  CD2       31.0150  -13.9170   68.8510 C.3    37  LEU37       0.0001
     74  N         30.6100    0.4400   65.9740 N.3    62  TYR62      -0.1241
     75  CA        29.4920    1.0510   65.2880 C.3    62  TYR62       0.1605
     76  C         29.9160    2.1670   64.3740 C.2    62  TYR62       0.2264
     77  O         29.3630    2.3260   63.2830 O.2    62  TYR62      -0.2867
     78  CB        28.4850    1.5890   66.2830 C.3    62  TYR62       0.0534
     79  CG        27.7000    0.5140   67.0040 C.ar   62  TYR62      -0.0201
     80  CD1       26.6280   -0.1040   66.4050 C.ar   62  TYR62      -0.0009
     81  CD2       28.0290    0.1340   68.2950 C.ar   62  TYR62      -0.0009
     82  CE1       25.9070   -1.0890   67.0750 C.ar   62  TYR62       0.0417
     83  CE2       27.3180   -0.8370   68.9650 C.ar   62  TYR62       0.0417
     84  CZ        26.2630   -1.4490   68.3540 C.ar   62  TYR62       0.1957
     85  OH        25.5630   -2.4120   69.0340 O.3    62  TYR62      -0.2866
     86  N         21.9210   -9.0080   63.0110 N.3    74  ALA74      -0.1231
     87  CA        21.9970  -10.3990   63.4870 C.3    74  ALA74       0.1694
     88  C         22.1650  -10.6580   64.9740 C.2    74  ALA74       0.2592
     89  O         22.4650  -11.7740   65.3690 O.2    74  ALA74      -0.2718
     90  CB        22.9510  -11.2420   62.6610 C.3    74  ALA74       0.0304
     91  N         22.1600   -9.6040   65.7640 N.am   75  ALA75      -0.1966
     92  CA        22.4360   -9.6850   67.1890 C.3    75  ALA75       0.1728
     93  C         21.3420  -10.3970   67.9640 C.2    75  ALA75       0.2617
     94  O         20.2390  -10.5760   67.4710 O.2    75  ALA75      -0.2715
     95  CB        22.6400   -8.3020   67.7490 C.3    75  ALA75       0.0334
     96  N         21.6850  -10.8580   69.1550 N.am   76  GLY76      -0.1940
     97  CA        20.7290  -11.4280   70.0670 C.3    76  GLY76       0.2014
     98  C         21.4070  -12.2230   71.1600 C.2    76  GLY76       0.2639
     99  O         22.5630  -12.6280   71.0740 O.2    76  GLY76      -0.2714
    100  N         20.6350  -12.4730   72.1940 N.am   77  VAL77      -0.1963
    101  CA        21.1060  -13.0930   73.4200 C.3    77  VAL77       0.1727
    102  C         21.2200  -14.5940   73.4060 C.2    77  VAL77       0.2616
    103  O         20.5920  -15.2620   72.5990 O.2    77  VAL77      -0.2715
    104  CB        20.2460  -12.6800   74.5980 C.3    77  VAL77       0.0290
    105  CG1       20.3260  -11.1780   74.7940 C.3    77  VAL77       0.0023
    106  CG2       18.8070  -13.1400   74.3800 C.3    77  VAL77       0.0023
    107  N         22.0370  -15.1160   74.3070 N.am   78  ALA78      -0.1977
    108  CA        22.0790  -16.5490   74.5320 C.3    78  ALA78       0.1597
    109  C         20.7150  -17.0390   74.9560 C.2    78  ALA78       0.2287
    110  O         20.1050  -16.4700   75.8620 O.2    78  ALA78      -0.2864
    111  CB        23.0770  -16.8630   75.5850 C.3    78  ALA78       0.0319
    112  N         18.1370   -5.6730   73.3600 N.3    95  VAL95      -0.1245
    113  CA        19.3420   -5.6560   72.5360 C.3    95  VAL95       0.1561
    114  C         19.1510   -4.6750   71.3900 C.2    95  VAL95       0.2260
    115  O         20.0070   -3.8420   71.1380 O.2    95  VAL95      -0.2867
    116  CB        19.6900   -7.0340   71.9670 C.3    95  VAL95       0.0252
    117  CG1       20.8270   -6.9260   70.9940 C.3    95  VAL95       0.0019
    118  CG2       20.0570   -7.9830   73.0810 C.3    95  VAL95       0.0019
    119  N         19.3100   -1.1200   72.1230 N.3    98  GLN98      -0.1231
    120  CA        20.6930   -0.6160   72.0940 C.3    98  GLN98       0.1698
    121  C         21.1850   -0.3940   70.6770 C.2    98  GLN98       0.2592
    122  O         21.7300    0.6580   70.3440 O.2    98  GLN98      -0.2718
    123  CB        21.6760   -1.6000   72.7280 C.3    98  GLN98       0.0381
    124  CG        21.6980   -1.6250   74.2320 C.3    98  GLN98       0.0905
    125  CD        21.5810   -0.2540   74.8250 C.2    98  GLN98       0.2608
    126  OE1       22.1220    0.7080   74.2990 O.2    98  GLN98      -0.2717
    127  NE2       20.8650   -0.1560   75.9310 N.am   98  GLN98      -0.0878
    128  N         20.9970   -1.4130   69.8460 N.am   99  VAL99      -0.1980
    129  CA        21.7110   -1.4970   68.5820 C.3    99  VAL99       0.1595
    130  C         21.2200   -0.4870   67.5560 C.2    99  VAL99       0.2287
    131  O         22.0070    0.2230   66.9470 O.2    99  VAL99      -0.2864
    132  CB        21.6400   -2.9260   67.9840 C.3    99  VAL99       0.0276
    133  CG1       22.0460   -2.8970   66.5210 C.3    99  VAL99       0.0022
    134  CG2       22.5260   -3.8830   68.7570 C.3    99  VAL99       0.0022
    135  N         17.5390  -11.5230   63.1670 N.3   116  THR116     -0.1203
    136  CA        17.2560  -12.1290   64.4570 C.3   116  THR116      0.1994
    137  C         15.8230  -12.6430   64.6320 C.2   116  THR116      0.2617
    138  O         14.8570  -11.9220   64.3700 O.2   116  THR116     -0.2717
    139  CB        17.3890  -11.0170   65.5270 C.3   116  THR116      0.1784
    140  OG1       18.6660  -10.3800   65.4340 O.3   116  THR116     -0.2211
    141  CG2       17.1380  -11.5600   66.9460 C.3   116  THR116      0.0376
    142  N         15.6860  -13.8820   65.1070 N.am  117  ASN117     -0.1974
    143  CA        14.3680  -14.4760   65.3760 C.3   117  ASN117      0.1688
    144  C         13.6970  -14.0980   66.6850 C.2   117  ASN117      0.2292
    145  O         14.3500  -13.7890   67.6600 O.2   117  ASN117     -0.2864
    146  CB        14.4270  -15.9980   65.2830 C.3   117  ASN117      0.1181
    147  CG        14.6370  -16.4720   63.8730 C.2   117  ASN117      0.2629
    148  OD1       13.7600  -16.3080   63.0170 O.2   117  ASN117     -0.2716
    149  ND2       15.8030  -17.0550   63.6070 N.am  117  ASN117     -0.0877
    150  N         20.9220  -25.1620   65.2710 N.3   226  ALA226     -0.1231
    151  CA        20.6790  -23.8060   64.8120 C.3   226  ALA226      0.1694
    152  C         20.6850  -23.7530   63.3000 C.2   226  ALA226      0.2592
    153  O         21.2670  -24.6150   62.6630 O.2   226  ALA226     -0.2718
    154  CB        21.7140  -22.8670   65.3800 C.3   226  ALA226      0.0304
    155  N         20.0940  -22.7210   62.7140 N.am  227  THR227     -0.1953
    156  CA        20.2160  -22.5300   61.2710 C.3   227  THR227      0.1897
    157  C         21.0700  -21.2970   61.0810 C.2   227  THR227      0.2313
    158  O         20.9310  -20.3160   61.7950 O.2   227  THR227     -0.2863
    159  CB        18.8310  -22.3840   60.5250 C.3   227  THR227      0.1794
    160  OG1       18.2010  -21.1960   60.9590 O.3   227  THR227     -0.2208
    161  CG2       17.9110  -23.5530   60.8130 C.3   227  THR227      0.0378
@<TRIPOS>BOND
     1    34    33    2
     2    27    26    2
     3    33    32    1
     4   159   161    1
     5   159   160    1
     6   159   156    1
     7    29    28    1
     8    26    25    1
     9    26    31   am
    10   157   156    1
    11   157   158    2
    12   156   155    1
    13    32    31    1
    14    19    18    2
    15    25    28    1
    16    25    24    1
    17    28    30    1
    18     1     2    1
    19    18    24   am
    20    18    17    1
    21    90    87    1
    22   153   152    2
    23    23    22    1
    24   155   152   am
    25    86    87    1
    26   148   147    2
    27   135   136    1
    28    77    76    2
    29   152   151    1
    30    87    88    1
    31    15    14    2
    32   149   147   am
    33    35    36    1
    34    17    20    1
    35    17    16    1
    36     7     5    1
    37    11    10    2
    38    41    39    1
    39     2     5    1
    40     2     3    1
    41   147   146    1
    42    20    21    1
    43     4     3    2
    44     5     6    1
    45   138   137    2
    46    76    75    1
    47    22    21    1
    48     3     8   am
    49   136   137    1
    50   136   139    1
    51   137   142   am
    52    14    16   am
    53    14    13    1
    54    39    36    1
    55    39    40    1
    56   151   150    1
    57   151   154    1
    58    36    37    1
    59    10     9    1
    60    88    89    2
    61    88    91   am
    62   142   143    1
    63     8     9    1
    64   146   143    1
    65    75    74    1
    66    75    78    1
    67   143   144    1
    68   140   139    1
    69   139   141    1
    70    38    37    2
    71    12    13    1
    72    91    92    1
    73    37    42   am
    74    69    68    2
    75    78    79    1
    76    80    79   ar
    77    80    82   ar
    78   133   132    1
    79   144   145    2
    80   131   130    2
    81    42    43    1
    82    79    81   ar
    83    68    67    1
    84    82    84   ar
    85    92    95    1
    86    92    93    1
    87    94    93    2
    88   130   129    1
    89    46    43    1
    90    46    47    1
    91    93    96   am
    92   132   129    1
    93   132   134    1
    94    43    44    1
    95    72    71    1
    96    49    47   ar
    97    71    73    1
    98    71    70    1
    99    81    83   ar
   100    84    83   ar
   101    84    85    1
   102    67    70    1
   103    67    66    1
   104   129   128    1
   105    47    48   ar
   106    96    97    1
   107    44    45    2
   108    44    50   am
   109   128   121   am
   110    61    60    2
   111    97    98    1
   112   122   121    2
   113    50    51    1
   114   121   120    1
   115    60    59    1
   116   117   116    1
   117    99    98    2
   118   115   114    2
   119    98   100   am
   120   114   113    1
   121    51    52    1
   122    51    54    1
   123    58    59    1
   124    58    52   am
   125   116   113    1
   126   116   118    1
   127    62    59    1
   128    62    63    1
   129   120   119    1
   130   120   123    1
   131   100   101    1
   132    52    53    2
   133    63    64   ar
   134    63    65   ar
   135   113   112    1
   136   103   102    2
   137    54    55    1
   138   123   124    1
   139   102   101    1
   140   102   107   am
   141   101   104    1
   142    55    57    1
   143    55    56    1
   144   124   125    1
   145   126   125    2
   146   107   108    1
   147   106   104    1
   148   108   109    1
   149   108   111    1
   150   104   105    1
   151   125   127   am
   152   109   110    2
