@<TRIPOS>MOLECULE
tmp/3zzrA00.pdb
 90 87 0 0 0
SMALL
GASTEIGER

@<TRIPOS>ATOM
      1  N          9.8470   22.6280   -5.5390 N.3    20  ALA20      -0.1231
      2  CA         8.4800   22.9900   -5.9080 C.3    20  ALA20       0.1694
      3  C          8.0860   24.3690   -5.4520 C.2    20  ALA20       0.2592
      4  O          7.1560   24.9790   -6.0360 O.2    20  ALA20      -0.2718
      5  CB         7.5220   21.9910   -5.3620 C.3    20  ALA20       0.0304
      6  N          8.7350   24.8810   -4.4060 N.am   21  VAL21      -0.1966
      7  CA         8.5240   26.2320   -3.9060 C.3    21  VAL21       0.1727
      8  C          9.7700   27.1260   -4.1440 C.2    21  VAL21       0.2616
      9  O          9.9290   28.1320   -3.4950 O.2    21  VAL21      -0.2715
     10  CB         8.0520   26.2270   -2.4480 C.3    21  VAL21       0.0290
     11  CG1        6.6940   25.5360   -2.3450 C.3    21  VAL21       0.0023
     12  CG2        9.0880   25.5540   -1.5260 C.3    21  VAL21       0.0023
     13  N         10.6290   26.7290   -5.0740 N.am   22  ARG22      -0.1977
     14  CA        11.7870   27.4910   -5.4700 C.3    22  ARG22       0.1597
     15  C         12.8460   27.5840   -4.3910 C.2    22  ARG22       0.2287
     16  O         13.6470   28.5210   -4.3580 O.2    22  ARG22      -0.2864
     17  CB        11.4200   28.8980   -5.9680 C.3    22  ARG22       0.0334
     18  CG        10.2630   28.8920   -6.9820 C.3    22  ARG22       0.0492
     19  CD         9.9540   30.2700   -7.4350 C.3    22  ARG22       0.2205
     20  NE         8.8070   30.2350   -8.3130 N.pl3  22  ARG22      -0.0865
     21  CZ         8.3430   31.2950   -8.9570 C.cat  22  ARG22       0.5346
     22  NH1        8.8720   32.4950   -8.8530 N.pl3  22  ARG22       0.1354
     23  NH2        7.2750   31.1310   -9.6980 N.pl3  22  ARG22       0.1354
     24  N          6.7320   36.9080    0.2340 N.3    39  GLY39      -0.1210
     25  CA         6.6710   35.5070    0.4910 C.3    39  GLY39       0.1956
     26  C          7.0070   34.6240   -0.7150 C.2    39  GLY39       0.2612
     27  O          6.5920   33.4790   -0.7770 O.2    39  GLY39      -0.2717
     28  N          7.7320   35.2040   -1.6800 N.am   40  VAL40      -0.1965
     29  CA         8.2110   34.5070   -2.8730 C.3    40  VAL40       0.1727
     30  C          9.7330   34.5650   -2.8460 C.2    40  VAL40       0.2616
     31  O         10.3270   35.5610   -2.4770 O.2    40  VAL40      -0.2715
     32  CB         7.6700   35.1660   -4.1480 C.3    40  VAL40       0.0290
     33  CG1        8.1760   34.4570   -5.4160 C.3    40  VAL40       0.0023
     34  CG2        6.1770   35.0820   -4.1560 C.3    40  VAL40       0.0023
     35  N         10.3710   33.4530   -3.2590 N.am   41  ALA41      -0.1977
     36  CA        11.8120   33.4010   -3.3780 C.3    41  ALA41       0.1597
     37  C         12.3470   34.6130   -4.1400 C.2    41  ALA41       0.2287
     38  O         11.7390   35.0380   -5.1160 O.2    41  ALA41      -0.2864
     39  CB        12.2470   32.1000   -4.0310 C.3    41  ALA41       0.0319
     40  N          4.7240   33.2620    2.7560 N.3    72  PHE72      -0.1241
     41  CA         5.3500   32.0380    2.1340 C.3    72  PHE72       0.1605
     42  C          4.5730   30.8010    2.5380 C.2    72  PHE72       0.2264
     43  O          4.3050   29.8970    1.7330 O.2    72  PHE72      -0.2867
     44  CB         6.8170   31.9280    2.5720 C.3    72  PHE72       0.0534
     45  CG         7.5320   30.7500    1.9600 C.ar   72  PHE72      -0.0203
     46  CD1        7.9910   30.7790    0.6350 C.ar   72  PHE72      -0.0042
     47  CD2        7.7530   29.6010    2.7210 C.ar   72  PHE72      -0.0042
     48  CE1        8.6410   29.6800    0.1070 C.ar   72  PHE72      -0.0003
     49  CE2        8.4160   28.5150    2.1640 C.ar   72  PHE72      -0.0003
     50  CZ         8.8210   28.5560    0.8580 C.ar   72  PHE72      -0.0000
     51  N          0.9250   31.0020    0.7330 N.3    75  ARG75      -0.1231
     52  CA         1.0180   30.7860   -0.7340 C.3    75  ARG75       0.1694
     53  C          1.1700   29.3450   -1.0780 C.2    75  ARG75       0.2592
     54  O          0.7110   28.8880   -2.1370 O.2    75  ARG75      -0.2718
     55  CB         2.2050   31.5960   -1.3060 C.3    75  ARG75       0.0321
     56  CG         1.9280   33.0710   -1.5070 C.3    75  ARG75       0.0489
     57  CD         3.1680   33.7420   -2.1240 C.3    75  ARG75       0.2205
     58  NE         3.0230   35.1600   -2.3500 N.pl3  75  ARG75      -0.0865
     59  CZ         2.4990   35.7240   -3.4060 C.cat  75  ARG75       0.5346
     60  NH1        2.0190   34.9820   -4.3860 N.pl3  75  ARG75       0.1354
     61  NH2        2.4700   37.0590   -3.4900 N.pl3  75  ARG75       0.1354
     62  N          1.8500   28.6170   -0.2150 N.am   76  ASN76      -0.1974
     63  CA         2.2970   27.2720   -0.4730 C.3    76  ASN76       0.1688
     64  C          1.5880   26.2590    0.4490 C.2    76  ASN76       0.2292
     65  O          2.0870   25.1610    0.7230 O.2    76  ASN76      -0.2864
     66  CB         3.8170   27.2190   -0.2770 C.3    76  ASN76       0.1181
     67  CG         4.5320   28.0920   -1.2270 C.2    76  ASN76       0.2629
     68  OD1        5.3710   28.9700   -0.8130 O.2    76  ASN76      -0.2716
     69  ND2        4.2140   28.0000   -2.4700 N.am   76  ASN76      -0.0877
     70  N         -0.6880   24.1890   -0.0040 N.3    78  GLN78      -0.1231
     71  CA        -0.8900   22.8220   -0.5130 C.3    78  GLN78       0.1698
     72  C          0.2530   21.9170   -0.1720 C.2    78  GLN78       0.2592
     73  O          0.1090   20.6760   -0.1720 O.2    78  GLN78      -0.2718
     74  CB        -1.0760   22.8370   -2.0200 C.3    78  GLN78       0.0381
     75  CG         0.1560   23.0780   -2.8370 C.3    78  GLN78       0.0905
     76  CD        -0.0320   23.5640   -4.2300 C.2    78  GLN78       0.2608
     77  OE1        0.2060   24.7640   -4.5260 O.2    78  GLN78      -0.2717
     78  NE2       -0.3760   22.6340   -5.1300 N.am   78  GLN78      -0.0878
     79  N          1.4440   22.4640    0.1410 N.am   79  TYR79      -0.1976
     80  CA         2.6180   21.6460    0.5300 C.3    79  TYR79       0.1639
     81  C          2.7450   21.5330    2.0320 C.2    79  TYR79       0.2290
     82  O          3.5500   20.7010    2.5440 O.2    79  TYR79      -0.2864
     83  CB         3.8820   22.2760   -0.0700 C.3    79  TYR79       0.0560
     84  CG         3.8580   22.3220   -1.5610 C.ar   79  TYR79      -0.0198
     85  CD1        3.9600   21.1780   -2.3090 C.ar   79  TYR79      -0.0009
     86  CD2        3.6820   23.5460   -2.2550 C.ar   79  TYR79      -0.0009
     87  CE1        3.9660   21.2370   -3.6950 C.ar   79  TYR79       0.0417
     88  CE2        3.6640   23.6170   -3.6060 C.ar   79  TYR79       0.0417
     89  CZ         3.7930   22.4560   -4.3430 C.ar   79  TYR79       0.1957
     90  OH         3.7690   22.5340   -5.7100 O.3    79  TYR79      -0.2866
@<TRIPOS>BOND
     1    23    21    1
     2    21    22    1
     3    21    20    2
     4    20    19    1
     5    19    18    1
     6    18    17    1
     7     4     3    2
     8    17    14    1
     9     2     1    1
    10     2     3    1
    11     2     5    1
    12    90    89    1
    13    14    13    1
    14    14    15    1
    15     3     6   am
    16    33    32    1
    17    78    76   am
    18    38    37    2
    19    13     8   am
    20    77    76    2
    21     6     7    1
    22    15    16    2
    23    60    59    1
    24    89    87   ar
    25    89    88   ar
    26    76    75    1
    27    34    32    1
    28    32    29    1
    29     8     7    1
    30     8     9    2
    31    37    36    1
    32    39    36    1
    33     7    10    1
    34    87    85   ar
    35    88    86   ar
    36    61    59    1
    37    59    58    2
    38    36    35    1
    39    35    30   am
    40    29    30    1
    41    29    28    1
    42    30    31    2
    43    75    74    1
    44    69    67   am
    45    10    11    1
    46    10    12    1
    47    58    57    1
    48    85    84   ar
    49    86    84   ar
    50    54    53    2
    51    57    56    1
    52    74    71    1
    53    28    26   am
    54    84    83    1
    55    56    55    1
    56    55    52    1
    57    67    68    2
    58    67    66    1
    59    53    52    1
    60    53    62   am
    61    27    26    2
    62    52    51    1
    63    26    25    1
    64    71    72    1
    65    71    70    1
    66    63    66    1
    67    63    62    1
    68    63    64    1
    69    73    72    2
    70    72    79   am
    71    83    80    1
    72    48    46   ar
    73    48    50   ar
    74    79    80    1
    75    24    25    1
    76    64    65    2
    77    80    81    1
    78    46    45   ar
    79    50    49   ar
    80    43    42    2
    81    45    44    1
    82    45    47   ar
    83    81    82    2
    84    41    42    1
    85    41    44    1
    86    41    40    1
    87    49    47   ar
