@<TRIPOS>MOLECULE
tmp/3zzrA02.pdb
 79 79 0 0 0
SMALL
GASTEIGER

@<TRIPOS>ATOM
      1  N         11.5420   37.7590   -0.3630 N.3    36  CYS36      -0.1235
      2  CA        11.1470   39.1460   -0.0990 C.3    36  CYS36       0.1677
      3  C          9.8360   39.1850    0.7190 C.2    36  CYS36       0.2270
      4  O          9.2960   38.1270    1.0960 O.2    36  CYS36      -0.2867
      5  CB        10.9660   39.9170   -1.4210 C.3    36  CYS36       0.0956
      6  SG        12.5310   40.0210   -2.3580 S.3    36  CYS36      -0.0801
      7  N         13.8930   36.9130   -6.6240 N.3    43  LEU43      -0.1231
      8  CA        14.2760   36.9020   -8.0560 C.3    43  LEU43       0.1693
      9  C         15.6250   37.4740   -8.3360 C.2    43  LEU43       0.2593
     10  O         16.2200   37.2220   -9.3700 O.2    43  LEU43      -0.2718
     11  CB        13.2330   37.5920   -8.9290 C.3    43  LEU43       0.0284
     12  CG        11.8960   36.8320   -9.1390 C.3    43  LEU43       0.0019
     13  CD1       10.9840   36.9070   -7.9190 C.3    43  LEU43       0.0001
     14  CD2       11.2660   37.4880  -10.3700 C.3    43  LEU43       0.0001
     15  N         16.1570   38.2840   -7.4250 N.am   44  GLY44      -0.1942
     16  CA        17.4210   38.9610   -7.6140 C.3    44  GLY44       0.2014
     17  C         18.2010   39.1670   -6.3450 C.2    44  GLY44       0.2639
     18  O         18.1470   38.3580   -5.4340 O.2    44  GLY44      -0.2714
     19  N         18.9240   40.2620   -6.2830 N.am   45  ALA45      -0.1963
     20  CA        19.6740   40.6610   -5.1250 C.3    45  ALA45       0.1728
     21  C         18.8780   41.4520   -4.1220 C.2    45  ALA45       0.2616
     22  O         19.0480   41.2730   -2.8980 O.2    45  ALA45      -0.2715
     23  CB        20.8890   41.4670   -5.5540 C.3    45  ALA45       0.0334
     24  N         17.9890   42.3050   -4.6210 N.am   46  TYR46      -0.1960
     25  CA        17.1910   43.2000   -3.8190 C.3    46  TYR46       0.1771
     26  C         15.7000   43.0100   -4.0210 C.2    46  TYR46       0.2620
     27  O         15.2650   42.3350   -4.9780 O.2    46  TYR46      -0.2715
     28  CB        17.5820   44.6640   -4.1160 C.3    46  TYR46       0.0574
     29  CG        19.0130   44.9680   -3.8170 C.ar   46  TYR46      -0.0198
     30  CD1       19.4950   44.8140   -2.5300 C.ar   46  TYR46      -0.0009
     31  CD2       19.8540   45.4660   -4.8030 C.ar   46  TYR46      -0.0009
     32  CE1       20.8250   45.1050   -2.2320 C.ar   46  TYR46       0.0417
     33  CE2       21.1890   45.7970   -4.5210 C.ar   46  TYR46       0.0417
     34  CZ        21.6260   45.6000   -3.2480 C.ar   46  TYR46       0.1957
     35  OH        22.9350   45.9550   -2.8930 O.3    46  TYR46      -0.2866
     36  N         14.8820   43.6100   -3.1370 N.am   47  CYS47      -0.1954
     37  CA        13.4460   43.3320   -3.1080 C.3    47  CYS47       0.1843
     38  C         12.6130   44.5080   -3.5810 C.2    47  CYS47       0.2626
     39  O         11.4950   44.7330   -3.1200 O.2    47  CYS47      -0.2714
     40  CB        13.0360   42.8940   -1.6930 C.3    47  CYS47       0.0997
     41  SG        13.6700   41.2770   -1.2200 S.3    47  CYS47      -0.0797
     42  N         13.1420   45.2630   -4.5510 N.am   48  GLY48      -0.1940
     43  CA        12.3170   46.2730   -5.2020 C.3    48  GLY48       0.2014
     44  C         11.2100   45.6320   -6.0370 C.2    48  GLY48       0.2639
     45  O         11.3560   44.5160   -6.5360 O.2    48  GLY48      -0.2714
     46  N         10.1250   46.3650   -6.2550 N.am   49  GLN49      -0.1963
     47  CA         9.1050   45.9550   -7.2030 C.3    49  GLN49       0.1733
     48  C          9.6880   45.9120   -8.5850 C.2    49  GLN49       0.2617
     49  O          9.4100   45.0070   -9.4230 O.2    49  GLN49      -0.2715
     50  CB         7.8900   46.9050   -7.1480 C.3    49  GLN49       0.0408
     51  CG         7.2230   46.9890   -5.7720 C.3    49  GLN49       0.0908
     52  CD         5.9300   46.2950   -5.6150 C.2    49  GLN49       0.2608
     53  OE1        5.1600   46.5740   -4.6140 O.2    49  GLN49      -0.2717
     54  NE2        5.6610   45.3170   -6.5360 N.am   49  GLN49      -0.0878
     55  N         10.5910   46.8730   -8.8300 N.am   50  GLY50      -0.1941
     56  CA        11.3740   46.9400  -10.0390 C.3    50  GLY50       0.1998
     57  C         12.8290   47.1670   -9.6340 C.2    50  GLY50       0.2481
     58  O         13.2080   46.9980   -8.4800 O.2    50  GLY50      -0.2729
     59  N         13.6920   47.5470  -10.5770 N.am   51  PRO51      -0.2715
     60  CA        15.1160   47.7400  -10.2990 C.3    51  PRO51       0.1536
     61  C         15.4400   48.7770   -9.2220 C.2    51  PRO51       0.2598
     62  O         14.8320   49.8680   -9.2290 O.2    51  PRO51      -0.2715
     63  CB        15.6310   48.2040  -11.6610 C.3    51  PRO51       0.0310
     64  CG        14.6930   47.5600  -12.6250 C.3    51  PRO51       0.0237
     65  CD        13.3850   47.6800  -12.0030 C.3    51  PRO51       0.0939
     66  N         16.3820   48.4430   -8.3590 N.am   52  CYS52      -0.1968
     67  CA        17.1260   49.3320   -7.5060 C.3    52  CYS52       0.1712
     68  C         18.4790   49.6610   -8.1050 C.2    52  CYS52       0.2296
     69  O         18.8550   49.0850   -9.1220 O.2    52  CYS52      -0.2864
     70  CB        17.2980   48.7720   -6.0880 C.3    52  CYS52       0.0983
     71  SG        15.8220   48.0370   -5.3040 S.3    52  CYS52      -0.0798
     72  N          8.7250   45.2750   -2.8320 N.3    64  LEU64      -0.1245
     73  CA         7.7290   44.1910   -2.7340 C.3    64  LEU64       0.1561
     74  C          7.1240   44.1990   -1.3260 C.2    64  LEU64       0.2260
     75  O          7.7940   44.4400   -0.3360 O.2    64  LEU64      -0.2867
     76  CB         8.3600   42.8680   -3.0390 C.3    64  LEU64       0.0270
     77  CG         8.8350   42.6810   -4.4460 C.3    64  LEU64       0.0019
     78  CD1        9.7640   41.4700   -4.6210 C.3    64  LEU64       0.0001
     79  CD2        7.6790   42.6010   -5.3890 C.3    64  LEU64       0.0001
@<TRIPOS>BOND
     1    64    65    1
     2    64    63    1
     3    65    59    1
     4    63    60    1
     5    59    60    1
     6    59    57   am
     7    14    12    1
     8    60    61    1
     9    56    57    1
    10    56    55    1
    11    57    58    2
    12    49    48    2
    13    10     9    2
    14    62    61    2
    15    61    66   am
    16    12    11    1
    17    12    13    1
    18    69    68    2
    19    11     8    1
    20    55    48   am
    21    48    47    1
    22    66    67    1
    23     9     8    1
    24     9    15   am
    25    68    67    1
    26     8     7    1
    27    16    15    1
    28    16    17    1
    29    67    70    1
    30    47    50    1
    31    47    46    1
    32    50    51    1
    33    54    52   am
    34    45    44    2
    35    17    19   am
    36    17    18    2
    37    19    20    1
    38    46    44   am
    39    70    71    1
    40    44    43    1
    41    51    52    1
    42    52    53    2
    43    23    20    1
    44    79    77    1
    45    43    42    1
    46    20    21    1
    47    27    26    2
    48    31    33   ar
    49    31    29   ar
    50    78    77    1
    51    24    21   am
    52    24    25    1
    53    42    38   am
    54    33    34   ar
    55    77    76    1
    56    21    22    2
    57    28    25    1
    58    28    29    1
    59    26    25    1
    60    26    36   am
    61    29    30   ar
    62    38    39    2
    63    38    37    1
    64    34    35    1
    65    34    32   ar
    66    36    37    1
    67    37    40    1
    68    76    73    1
    69    72    73    1
    70    73    74    1
    71    30    32   ar
    72     6     5    1
    73     6    41    1
    74    40    41    1
    75     5     2    1
    76    74    75    2
    77     1     2    1
    78     2     3    1
    79     3     4    2
