@<TRIPOS>MOLECULE
tmp/3zzvB01.pdb
 123 120 0 0 0
SMALL
GASTEIGER

@<TRIPOS>ATOM
      1  N         -6.8130    1.0380  -12.7790 N.3     8  TRP8       -0.1241
      2  CA        -5.4250    1.3470  -12.4040 C.3     8  TRP8        0.1605
      3  C         -4.5770    0.0980  -12.2600 C.2     8  TRP8        0.2264
      4  O         -5.0810   -1.0190  -12.1500 O.2     8  TRP8       -0.2867
      5  CB        -5.3770    2.2280  -11.1460 C.3     8  TRP8        0.0550
      6  CG        -5.9310    1.5600   -9.9270 C.ar    8  TRP8        0.0003
      7  CD1       -5.2520    0.7860   -9.0560 C.ar    8  TRP8        0.0946
      8  CD2       -7.3060    1.5690   -9.4770 C.ar    8  TRP8        0.0152
      9  NE1       -6.0980    0.3200   -8.0560 N.ar    8  TRP8       -0.2442
     10  CE2       -7.3600    0.7990   -8.2840 C.ar    8  TRP8        0.0810
     11  CE3       -8.4810    2.1820   -9.9460 C.ar    8  TRP8        0.0012
     12  CZ2       -8.5450    0.6030   -7.5640 C.ar    8  TRP8        0.0191
     13  CZ3       -9.6600    1.9840   -9.2360 C.ar    8  TRP8        0.0001
     14  CH2       -9.6770    1.1980   -8.0480 C.ar    8  TRP8        0.0015
     15  N        -13.1130    0.2320  -11.4690 N.3    15  ARG15      -0.1245
     16  CA       -14.3160    0.6260  -10.7780 C.3    15  ARG15       0.1563
     17  C        -15.2720    1.1420  -11.8400 C.2    15  ARG15       0.2260
     18  O        -14.8930    1.9680  -12.6740 O.2    15  ARG15      -0.2867
     19  CB       -14.0100    1.7170   -9.7720 C.3    15  ARG15       0.0307
     20  CG       -13.0730    1.2950   -8.6240 C.3    15  ARG15       0.0489
     21  CD       -13.7830    0.3460   -7.6730 C.3    15  ARG15       0.2205
     22  NE       -12.8980   -0.1400   -6.6150 N.pl3  15  ARG15      -0.0865
     23  CZ       -12.0460   -1.1550   -6.7060 C.cat  15  ARG15       0.5346
     24  NH1      -11.8850   -1.8340   -7.8140 N.pl3  15  ARG15       0.1354
     25  NH2      -11.2950   -1.4590   -5.6330 N.pl3  15  ARG15       0.1354
     26  N        -21.4820    1.6450   -7.0990 N.3    26  GLU26      -0.1245
     27  CA       -20.1580    1.2930   -7.5690 C.3    26  GLU26       0.1567
     28  C        -19.9870   -0.2240   -7.6200 C.2    26  GLU26       0.2260
     29  O        -20.3750   -0.9390   -6.6930 O.2    26  GLU26      -0.2867
     30  CB       -19.1320    1.9710   -6.6580 C.3    26  GLU26       0.0388
     31  CG       -17.6450    1.6330   -6.8900 C.3    26  GLU26       0.1160
     32  CD       -16.7850    2.0760   -5.7420 C.2    26  GLU26       0.3649
     33  OE1      -17.1310    1.7140   -4.5720 O.co2  26  GLU26      -0.2457
     34  OE2      -15.7470    2.7630   -5.9910 O.co2  26  GLU26      -0.2457
     35  N        -16.9250   -3.1950   -8.4890 N.3    28  CYS28      -0.1235
     36  CA       -15.4820   -3.1580   -8.2090 C.3    28  CYS28       0.1677
     37  C        -14.8730   -4.4950   -8.6120 C.2    28  CYS28       0.2270
     38  O        -15.4630   -5.5680   -8.3720 O.2    28  CYS28      -0.2867
     39  CB       -15.2100   -2.9040   -6.7140 C.3    28  CYS28       0.0956
     40  SG       -15.9300   -1.5330   -5.8780 S.3    28  CYS28      -0.0801
     41  N        -11.0280   -6.3200   -8.4690 N.3    30  ASP30      -0.1239
     42  CA        -9.6610   -6.2670   -7.9800 C.3    30  ASP30       0.1674
     43  C         -8.8700   -7.4770   -8.4240 C.2    30  ASP30       0.2266
     44  O         -7.8150   -7.7820   -7.8220 O.2    30  ASP30      -0.2867
     45  CB        -9.6550   -6.2190   -6.4590 C.3    30  ASP30       0.1410
     46  CG       -10.1980   -4.9320   -5.9140 C.2    30  ASP30       0.3668
     47  OD1       -9.8980   -3.8480   -6.5090 O.co2  30  ASP30      -0.2456
     48  OD2      -10.9250   -5.0100   -4.8880 O.co2  30  ASP30      -0.2456
     49  N        -17.6640   -6.9970   -7.1520 N.3    35  TYR35      -0.1241
     50  CA       -18.4100   -6.7420   -5.9110 C.3    35  TYR35       0.1605
     51  C        -18.9070   -5.3040   -5.8420 C.2    35  TYR35       0.2264
     52  O        -18.4570   -4.4220   -6.5950 O.2    35  TYR35      -0.2867
     53  CB       -17.5710   -7.1420   -4.6790 C.3    35  TYR35       0.0534
     54  CG       -16.3530   -6.3010   -4.4690 C.ar   35  TYR35      -0.0201
     55  CD1      -15.1610   -6.5960   -5.1080 C.ar   35  TYR35      -0.0009
     56  CD2      -16.4070   -5.1750   -3.6640 C.ar   35  TYR35      -0.0009
     57  CE1      -14.0130   -5.7870   -4.9210 C.ar   35  TYR35       0.0417
     58  CE2      -15.2830   -4.3800   -3.4630 C.ar   35  TYR35       0.0417
     59  CZ       -14.0860   -4.7020   -4.0850 C.ar   35  TYR35       0.1957
     60  OH       -12.9870   -3.8690   -3.9020 O.3    35  TYR35      -0.2866
     61  N        -19.2910   -1.8020   -4.2850 N.3    37  GLY37      -0.1210
     62  CA       -18.3910   -1.0010   -3.4620 C.3    37  GLY37       0.1956
     63  C        -19.0860   -0.1050   -2.4670 C.2    37  GLY37       0.2612
     64  O        -20.2970    0.0250   -2.4880 O.2    37  GLY37      -0.2717
     65  N        -18.2900    0.5410   -1.6100 N.am   38  ALA38      -0.1965
     66  CA       -18.7690    1.4890   -0.6100 C.3    38  ALA38       0.1728
     67  C        -19.3010    2.8150   -1.1470 C.2    38  ALA38       0.2616
     68  O        -20.0760    3.4870   -0.4540 O.2    38  ALA38      -0.2715
     69  CB       -17.6610    1.7490    0.4550 C.3    38  ALA38       0.0334
     70  N        -18.9150    3.2150   -2.3630 N.am   39  PHE39      -0.1974
     71  CA       -19.4360    4.4520   -2.9000 C.3    39  PHE39       0.1639
     72  C        -20.9560    4.3670   -3.0530 C.2    39  PHE39       0.2290
     73  O        -21.4550    3.4830   -3.7250 O.2    39  PHE39      -0.2864
     74  CB       -18.8470    4.8390   -4.2670 C.3    39  PHE39       0.0560
     75  CG       -19.2330    6.2130   -4.6780 C.ar   39  PHE39      -0.0200
     76  CD1      -20.4130    6.4590   -5.3570 C.ar   39  PHE39      -0.0042
     77  CD2      -18.4620    7.2810   -4.3220 C.ar   39  PHE39      -0.0042
     78  CE1      -20.7810    7.7400   -5.7130 C.ar   39  PHE39      -0.0003
     79  CE2      -18.8090    8.5840   -4.6550 C.ar   39  PHE39      -0.0003
     80  CZ       -19.9920    8.8240   -5.3600 C.ar   39  PHE39      -0.0000
     81  N         -4.1080    3.8050   -4.5940 N.3    57  VAL57      -0.1245
     82  CA        -5.0490    4.5160   -5.4770 C.3    57  VAL57       0.1561
     83  C         -5.7060    5.7690   -4.8530 C.2    57  VAL57       0.2260
     84  O         -5.9440    5.8560   -3.6410 O.2    57  VAL57      -0.2867
     85  CB        -6.1590    3.5330   -6.0490 C.3    57  VAL57       0.0252
     86  CG1       -7.1300    3.1000   -4.9680 C.3    57  VAL57       0.0019
     87  CG2       -6.9020    4.1840   -7.1740 C.3    57  VAL57       0.0019
     88  N         -9.0370    8.2860   -6.0060 N.3    59  ILE59      -0.1245
     89  CA       -10.1620    8.3430   -6.9280 C.3    59  ILE59       0.1561
     90  C        -10.9220    9.6370   -6.6610 C.2    59  ILE59       0.2260
     91  O        -11.0810   10.0620   -5.5020 O.2    59  ILE59      -0.2867
     92  CB       -11.1310    7.1350   -6.7590 C.3    59  ILE59       0.0252
     93  CG1      -10.4350    5.7890   -6.9540 C.3    59  ILE59       0.0019
     94  CG2      -12.2490    7.2030   -7.7970 C.3    59  ILE59       0.0019
     95  CD1      -11.2570    4.6270   -6.4720 C.3    59  ILE59       0.0001
     96  N        -11.5280    9.2880   -2.6220 N.3    74  TRP74      -0.1241
     97  CA       -11.0210    8.0820   -1.9920 C.3    74  TRP74       0.1605
     98  C         -9.5140    8.2200   -2.0080 C.2    74  TRP74       0.2264
     99  O         -8.9450    8.4250   -3.0670 O.2    74  TRP74      -0.2867
    100  CB       -11.4630    6.8050   -2.7220 C.3    74  TRP74       0.0550
    101  CG       -10.8720    5.5920   -2.1120 C.ar   74  TRP74       0.0003
    102  CD1       -9.6560    5.0570   -2.3900 C.ar   74  TRP74       0.0946
    103  CD2      -11.4370    4.7800   -1.0760 C.ar   74  TRP74       0.0152
    104  NE1       -9.4270    3.9460   -1.6200 N.ar   74  TRP74      -0.2442
    105  CE2      -10.4950    3.7610   -0.7850 C.ar   74  TRP74       0.0810
    106  CE3      -12.6460    4.8100   -0.3600 C.ar   74  TRP74       0.0012
    107  CZ2      -10.7230    2.7760    0.1720 C.ar   74  TRP74       0.0191
    108  CZ3      -12.8720    3.8180    0.6050 C.ar   74  TRP74       0.0001
    109  CH2      -11.9170    2.8210    0.8590 C.ar   74  TRP74       0.0015
    110  N        -14.5830    7.3740    1.8460 N.3    79  TRP79      -0.1241
    111  CA       -14.9740    8.4420    0.9660 C.3    79  TRP79       0.1605
    112  C        -15.2560    9.7240    1.7080 C.2    79  TRP79       0.2264
    113  O        -16.0180    9.7320    2.6950 O.2    79  TRP79      -0.2867
    114  CB       -16.2140    8.0600    0.1690 C.3    79  TRP79       0.0550
    115  CG       -15.9920    6.9690   -0.8080 C.ar   79  TRP79       0.0003
    116  CD1      -16.2580    5.6470   -0.6280 C.ar   79  TRP79       0.0946
    117  CD2      -15.5010    7.1040   -2.1480 C.ar   79  TRP79       0.0152
    118  NE1      -15.9340    4.9430   -1.7470 N.ar   79  TRP79      -0.2442
    119  CE2      -15.4890    5.8140   -2.7100 C.ar   79  TRP79       0.0810
    120  CE3      -15.0830    8.2000   -2.9320 C.ar   79  TRP79       0.0012
    121  CZ2      -15.0500    5.5660   -4.0340 C.ar   79  TRP79       0.0191
    122  CZ3      -14.6330    7.9630   -4.2390 C.ar   79  TRP79       0.0001
    123  CH2      -14.6320    6.6540   -4.7810 C.ar   79  TRP79       0.0015
@<TRIPOS>BOND
     1     1     2    1
     2    18    17    2
     3     2     3    1
     4     2     5    1
     5     3     4    2
     6    17    16    1
     7    15    16    1
     8     5     6    1
     9    16    19    1
    10    11     8   ar
    11    11    13   ar
    12     6     8   ar
    13     6     7   ar
    14    19    20    1
    15     8    10   ar
    16    13    14   ar
    17     7     9   ar
    18    20    21    1
    19    37    38    2
    20    37    36    1
    21    35    36    1
    22    41    42    1
    23    43    42    1
    24    43    44    2
    25    10     9   ar
    26    10    12   ar
    27    36    39    1
    28    14    12   ar
    29    42    45    1
    30    24    23    1
    31    94    92    1
    32    21    22    1
    33    28    27    1
    34    28    29    2
    35    27    26    1
    36    27    30    1
    37    87    85    1
    38    49    50    1
    39    93    92    1
    40    93    95    1
    41    89    92    1
    42    89    90    1
    43    89    88    1
    44    31    30    1
    45    31    32    1
    46    39    40    1
    47    23    22    2
    48    23    25    1
    49    90    91    2
    50    52    51    2
    51    47    46   ar
    52    45    46    1
    53    85    82    1
    54    85    86    1
    55    34    32   ar
    56    46    48   ar
    57    50    51    1
    58    50    53    1
    59    32    33   ar
    60    78    80   ar
    61    78    76   ar
    62    82    83    1
    63    82    81    1
    64    80    79   ar
    65    76    75   ar
    66    55    57   ar
    67    55    54   ar
    68    57    59   ar
    69    83    84    2
    70   123   122   ar
    71   123   121   ar
    72    53    54    1
    73    75    77   ar
    74    75    74    1
    75    79    77   ar
    76    54    56   ar
    77    61    62    1
    78    74    71    1
    79   122   120   ar
    80    59    60    1
    81    59    58   ar
    82   121   119   ar
    83    73    72    2
    84    56    58   ar
    85    62    63    1
    86    99    98    2
    87    72    71    1
    88   120   117   ar
    89    71    70    1
    90   100   101    1
    91   100    97    1
    92   119   117   ar
    93   119   118   ar
    94    96    97    1
    95    64    63    2
    96    63    65   am
    97   102   101   ar
    98   102   104   ar
    99    70    67   am
   100   117   115   ar
   101   101   103   ar
   102    98    97    1
   103   118   116   ar
   104   104   105   ar
   105    65    66    1
   106    67    66    1
   107    67    68    2
   108   103   105   ar
   109   103   106   ar
   110   115   116   ar
   111   115   114    1
   112   105   107   ar
   113    66    69    1
   114   106   108   ar
   115   114   111    1
   116   107   109   ar
   117   108   109   ar
   118   111   112    1
   119   111   110    1
   120   112   113    2
