@<TRIPOS>MOLECULE
tmp/3zzvA01.pdb
 104 99 0 0 0
SMALL
GASTEIGER

@<TRIPOS>ATOM
      1  N         -5.9820   -0.0940  -20.1330 N.3    51  TRP51      -0.1241
      2  CA        -4.6420   -0.1880  -19.5570 C.3    51  TRP51       0.1605
      3  C         -3.6950   -0.9240  -20.5150 C.2    51  TRP51       0.2264
      4  O         -4.1120   -1.6690  -21.4010 O.2    51  TRP51      -0.2867
      5  CB        -4.6840   -0.9080  -18.2060 C.3    51  TRP51       0.0550
      6  CG        -5.1540   -2.3380  -18.2720 C.ar   51  TRP51       0.0003
      7  CD1       -4.3850   -3.4740  -18.3430 C.ar   51  TRP51       0.0946
      8  CD2       -6.5200   -2.7810  -18.3150 C.ar   51  TRP51       0.0152
      9  NE1       -5.1880   -4.5900  -18.3860 N.ar   51  TRP51      -0.2442
     10  CE2       -6.5000   -4.1970  -18.3490 C.ar   51  TRP51       0.0810
     11  CE3       -7.7490   -2.1200  -18.2260 C.ar   51  TRP51       0.0012
     12  CZ2       -7.6520   -4.9580  -18.3810 C.ar   51  TRP51       0.0191
     13  CZ3       -8.9210   -2.8810  -18.2670 C.ar   51  TRP51       0.0001
     14  CH2       -8.8590   -4.2860  -18.3490 C.ar   51  TRP51       0.0015
     15  N         -0.4500   -3.6310  -20.7430 N.3    53  SER53      -0.1217
     16  CA         0.4910   -4.5960  -20.2030 C.3    53  SER53       0.1889
     17  C          1.5850   -4.6940  -21.2310 C.2    53  SER53       0.2288
     18  O          1.4260   -5.3360  -22.2790 O.2    53  SER53      -0.2866
     19  CB        -0.0790   -5.9870  -19.9830 C.3    53  SER53       0.2089
     20  OG        -1.4910   -6.0200  -20.0790 O.3    53  SER53      -0.2183
     21  N         -5.3640   -3.2620  -23.4140 N.3    58  HIS58      -0.1241
     22  CA        -6.6000   -3.9010  -22.9630 C.3    58  HIS58       0.1621
     23  C         -7.6380   -2.8420  -22.7890 C.2    58  HIS58       0.2264
     24  O         -7.3780   -1.8520  -22.1300 O.2    58  HIS58      -0.2867
     25  CB        -6.3440   -4.5520  -21.6500 C.3    58  HIS58       0.0745
     26  CG        -5.3530   -5.6560  -21.7520 C.ar   58  HIS58       0.0817
     27  ND1       -5.6950   -6.9210  -22.1600 N.ar   58  HIS58      -0.2268
     28  CD2       -4.0100   -5.6510  -21.5760 C.ar   58  HIS58       0.1154
     29  CE1       -4.5900   -7.6570  -22.2130 C.ar   58  HIS58       0.1986
     30  NE2       -3.5580   -6.9110  -21.8660 N.ar   58  HIS58      -0.2212
     31  N        -11.7480   -2.0280  -21.7460 N.3    60  ARG60      -0.1245
     32  CA       -13.1150   -2.4690  -21.3100 C.3    60  ARG60       0.1563
     33  C        -14.1170   -1.3730  -21.6430 C.2    60  ARG60       0.2260
     34  O        -13.9150   -0.2330  -21.2190 O.2    60  ARG60      -0.2867
     35  CB       -13.0910   -2.7200  -19.8290 C.3    60  ARG60       0.0307
     36  CG       -12.1940   -3.8790  -19.3700 C.3    60  ARG60       0.0489
     37  CD       -12.5860   -5.2040  -19.9110 C.3    60  ARG60       0.2205
     38  NE       -11.6340   -6.2880  -19.5210 N.pl3  60  ARG60      -0.0865
     39  CZ       -10.6120   -6.6900  -20.2580 C.cat  60  ARG60       0.5346
     40  NH1      -10.3390   -6.1140  -21.4220 N.pl3  60  ARG60       0.1354
     41  NH2       -9.8410   -7.7070  -19.8310 N.pl3  60  ARG60       0.1354
     42  N        -18.2080   -0.4680  -21.2560 N.3    62  TYR62      -0.1241
     43  CA       -19.4770   -0.7230  -20.5240 C.3    62  TYR62       0.1605
     44  C        -20.6160   -0.1000  -21.3250 C.2    62  TYR62       0.2264
     45  O        -20.7580    1.1370  -21.3460 O.2    62  TYR62      -0.2867
     46  CB       -19.3870   -0.2180  -19.0710 C.3    62  TYR62       0.0534
     47  CG       -18.2020   -0.8920  -18.4190 C.ar   62  TYR62      -0.0201
     48  CD1      -18.3090   -2.1720  -17.8870 C.ar   62  TYR62      -0.0009
     49  CD2      -16.9310   -0.3140  -18.5010 C.ar   62  TYR62      -0.0009
     50  CE1      -17.1810   -2.8290  -17.3530 C.ar   62  TYR62       0.0417
     51  CE2      -15.7840   -0.9760  -17.9900 C.ar   62  TYR62       0.0417
     52  CZ       -15.9420   -2.2470  -17.4420 C.ar   62  TYR62       0.1957
     53  OH       -14.8990   -2.9950  -16.9420 O.3    62  TYR62      -0.2866
     54  N        -20.3200   -5.5930  -20.2760 N.3    71  GLU71      -0.1245
     55  CA       -18.8830   -5.3100  -20.4590 C.3    71  GLU71       0.1567
     56  C        -18.3480   -6.0620  -21.6570 C.2    71  GLU71       0.2260
     57  O        -18.5350   -7.2490  -21.7860 O.2    71  GLU71      -0.2867
     58  CB       -18.1310   -5.6960  -19.2100 C.3    71  GLU71       0.0388
     59  CG       -16.5640   -5.6600  -19.3030 C.3    71  GLU71       0.1160
     60  CD       -15.9030   -6.2680  -18.1170 C.2    71  GLU71       0.3649
     61  OE1      -16.1750   -7.4810  -17.8370 O.co2  71  GLU71      -0.2457
     62  OE2      -15.1650   -5.5120  -17.4160 O.co2  71  GLU71      -0.2457
     63  N        -14.7560   -6.6490  -23.9880 N.3    73  CYS73      -0.1235
     64  CA       -13.3390   -6.7430  -23.6480 C.3    73  CYS73       0.1677
     65  C        -12.5090   -6.8210  -24.9050 C.2    73  CYS73       0.2270
     66  O        -12.7640   -7.6460  -25.8170 O.2    73  CYS73      -0.2867
     67  CB       -13.0960   -8.0020  -22.7770 C.3    73  CYS73       0.0956
     68  SG       -14.0170   -8.1530  -21.2860 S.3    73  CYS73      -0.0801
     69  N         -8.5970   -7.5850  -25.6910 N.3    75  ASP75      -0.1239
     70  CA        -7.3160   -8.0460  -25.1260 C.3    75  ASP75       0.1674
     71  C         -6.4280   -8.5410  -26.2720 C.2    75  ASP75       0.2266
     72  O         -5.6210   -9.4260  -26.0910 O.2    75  ASP75      -0.2867
     73  CB        -7.5820   -9.1470  -24.0770 C.3    75  ASP75       0.1410
     74  CG        -8.5060   -8.6850  -22.9740 C.2    75  ASP75       0.3668
     75  OD1       -8.0720   -7.9110  -22.0970 O.co2  75  ASP75      -0.2456
     76  OD2       -9.6920   -9.1100  -22.9840 O.co2  75  ASP75      -0.2456
     77  N        -14.8330   -9.4980  -26.7400 N.3    80  THR80      -0.1218
     78  CA       -15.4820  -10.6010  -26.0520 C.3    80  THR80       0.1862
     79  C        -16.2460  -10.1200  -24.8540 C.2    80  THR80       0.2287
     80  O        -15.9550   -9.0980  -24.2410 O.2    80  THR80      -0.2866
     81  CB       -14.4710  -11.6990  -25.6160 C.3    80  THR80       0.1770
     82  OG1      -13.5340  -11.1300  -24.6930 O.3    80  THR80      -0.2211
     83  CG2      -13.7680  -12.2710  -26.7790 C.3    80  THR80       0.0375
     84  N        -17.4070   -9.6800  -21.2790 N.3    82  GLY82      -0.1210
     85  CA       -16.7460   -9.7680  -19.9690 C.3    82  GLY82       0.1956
     86  C        -17.6630  -10.2720  -18.8560 C.2    82  GLY82       0.2612
     87  O        -18.8820  -10.4200  -19.0590 O.2    82  GLY82      -0.2717
     88  N        -17.0830  -10.4640  -17.6660 N.am   83  ALA83      -0.1965
     89  CA       -17.7800  -11.0740  -16.5140 C.3    83  ALA83       0.1728
     90  C        -18.5780  -10.0760  -15.6590 C.2    83  ALA83       0.2616
     91  O        -19.3520  -10.4730  -14.7560 O.2    83  ALA83      -0.2715
     92  CB       -16.7510  -11.8440  -15.6240 C.3    83  ALA83       0.0334
     93  N        -18.4460   -8.7750  -15.9550 N.am   84  TYR84      -0.1974
     94  CA       -19.0920   -7.7340  -15.1980 C.3    84  TYR84       0.1639
     95  C        -20.5860   -7.9770  -15.1220 C.2    84  TYR84       0.2290
     96  O        -21.1740   -8.3880  -16.1020 O.2    84  TYR84      -0.2864
     97  CB       -18.8810   -6.3770  -15.8690 C.3    84  TYR84       0.0560
     98  CG       -19.6390   -5.2450  -15.2200 C.ar   84  TYR84      -0.0198
     99  CD1      -20.9500   -4.9630  -15.5990 C.ar   84  TYR84      -0.0009
    100  CD2      -19.0740   -4.4630  -14.2270 C.ar   84  TYR84      -0.0009
    101  CE1      -21.6270   -3.9360  -15.0320 C.ar   84  TYR84       0.0417
    102  CE2      -19.7330   -3.4300  -13.6360 C.ar   84  TYR84       0.0417
    103  CZ       -21.0470   -3.1660  -14.0410 C.ar   84  TYR84       0.1957
    104  OH       -21.7310   -2.1370  -13.4660 O.3    84  TYR84      -0.2866
@<TRIPOS>BOND
     1    83    81    1
     2    77    78    1
     3    71    72    2
     4    71    70    1
     5    78    81    1
     6    78    79    1
     7    66    65    2
     8    69    70    1
     9    81    82    1
    10    70    73    1
    11    65    64    1
    12    79    80    2
    13    73    74    1
    14    63    64    1
    15    64    67    1
    16    21    22    1
    17    76    74   ar
    18    74    75   ar
    19    22    23    1
    20    22    25    1
    21    23    24    2
    22    67    68    1
    23    18    17    2
    24    29    27   ar
    25    29    30   ar
    26    27    26   ar
    27    30    28   ar
    28    57    56    2
    29    26    25    1
    30    26    28   ar
    31    31    32    1
    32    56    55    1
    33    33    32    1
    34    33    34    2
    35    40    39    1
    36     4     3    2
    37    45    44    2
    38    44    43    1
    39    32    35    1
    40    84    85    1
    41    42    43    1
    42    17    16    1
    43    15    16    1
    44    43    46    1
    45     3     2    1
    46    55    54    1
    47    55    58    1
    48    39    41    1
    49    39    38    2
    50    16    19    1
    51     1     2    1
    52    20    19    1
    53    85    86    1
    54    37    38    1
    55    37    36    1
    56    35    36    1
    57     2     5    1
    58    59    58    1
    59    59    60    1
    60    46    47    1
    61    87    86    2
    62    86    88   am
    63    49    47   ar
    64    49    51   ar
    65    47    48   ar
    66     9    10   ar
    67     9     7   ar
    68    12    10   ar
    69    12    14   ar
    70    10     8   ar
    71    14    13   ar
    72     7     6   ar
    73     8     6   ar
    74     8    11   ar
    75     6     5    1
    76    13    11   ar
    77    60    61   ar
    78    60    62   ar
    79    51    52   ar
    80    48    50   ar
    81    88    89    1
    82    52    50   ar
    83    52    53    1
    84    89    90    1
    85    89    92    1
    86    96    95    2
    87    93    90   am
    88    93    94    1
    89    97    98    1
    90    97    94    1
    91    90    91    2
    92    99    98   ar
    93    99   101   ar
    94    98   100   ar
    95    94    95    1
    96   101   103   ar
    97   100   102   ar
    98   103   102   ar
    99   103   104    1
