@<TRIPOS>MOLECULE
tmp/3zzyA00.pdb
 117 112 0 0 0
SMALL
GASTEIGER

@<TRIPOS>ATOM
      1  N         12.3360    6.1680   34.4050 N.3    14  TYR14      -0.1241
      2  CA        11.2240    6.2430   35.3520 C.3    14  TYR14       0.1605
      3  C         10.7090    4.8120   35.3860 C.2    14  TYR14       0.2264
      4  O         10.6790    4.1430   34.3570 O.2    14  TYR14      -0.2867
      5  CB        10.1200    7.1960   34.8770 C.3    14  TYR14       0.0534
      6  CG         8.9680    7.2890   35.8610 C.ar   14  TYR14      -0.0201
      7  CD1        9.0380    8.1380   36.9630 C.ar   14  TYR14      -0.0009
      8  CD2        7.8440    6.4760   35.7280 C.ar   14  TYR14      -0.0009
      9  CE1        8.0200    8.1740   37.9190 C.ar   14  TYR14       0.0417
     10  CE2        6.8160    6.5050   36.6780 C.ar   14  TYR14       0.0417
     11  CZ         6.9160    7.3540   37.7670 C.ar   14  TYR14       0.1957
     12  OH         5.9140    7.3690   38.7160 O.3    14  TYR14      -0.2866
     13  N          1.1180   -0.6960   34.1100 N.3    20  VAL20      -0.1245
     14  CA         1.2040    0.3290   33.0740 C.3    20  VAL20       0.1561
     15  C          1.3090   -0.3520   31.6960 C.2    20  VAL20       0.2260
     16  O          0.7270    0.1120   30.7150 O.2    20  VAL20      -0.2867
     17  CB         2.4090    1.2630   33.3290 C.3    20  VAL20       0.0252
     18  CG1        2.6870    2.1170   32.0970 C.3    20  VAL20       0.0019
     19  CG2        2.1080    2.1580   34.5320 C.3    20  VAL20       0.0019
     20  N         -2.1300   -1.3650   30.7640 N.3    23  GLN23      -0.1231
     21  CA        -2.9230   -0.2220   30.3310 C.3    23  GLN23       0.1698
     22  C         -2.6590    0.1160   28.8680 C.2    23  GLN23       0.2592
     23  O         -3.5830    0.2630   28.0700 O.2    23  GLN23      -0.2718
     24  CB        -2.5890    0.9880   31.2040 C.3    23  GLN23       0.0381
     25  CG        -3.4530    2.2090   30.9650 C.3    23  GLN23       0.0905
     26  CD        -2.9100    3.4380   31.6730 C.2    23  GLN23       0.2608
     27  OE1       -2.4950    3.3680   32.8300 O.2    23  GLN23      -0.2717
     28  NE2       -2.9160    4.5700   30.9830 N.am   23  GLN23      -0.0878
     29  N         -1.3830    0.2330   28.5200 N.am   24  ILE24      -0.1980
     30  CA        -1.0030    0.5760   27.1550 C.3    24  ILE24       0.1595
     31  C         -1.3840   -0.4770   26.1140 C.2    24  ILE24       0.2287
     32  O         -1.9500   -0.1570   25.0710 O.2    24  ILE24      -0.2864
     33  CB         0.5170    0.8110   27.0630 C.3    24  ILE24       0.0276
     34  CG1        0.9030    2.0510   27.8780 C.3    24  ILE24       0.0022
     35  CG2        0.9400    0.9470   25.6040 C.3    24  ILE24       0.0022
     36  CD1        2.3990    2.2170   28.0480 C.3    24  ILE24       0.0001
     37  N         -5.2210   -1.3290   24.8490 N.3    27  LYS27      -0.1245
     38  CA        -5.8860   -0.5280   23.8310 C.3    27  LYS27       0.1561
     39  C         -6.0280   -1.3070   22.5160 C.2    27  LYS27       0.2260
     40  O         -6.9100   -1.0130   21.7090 O.2    27  LYS27      -0.2867
     41  CB        -5.1020    0.7650   23.5730 C.3    27  LYS27       0.0271
     42  CG        -5.1200    1.7380   24.7420 C.3    27  LYS27       0.0035
     43  CD        -4.7160    3.1490   24.3150 C.3    27  LYS27       0.0206
     44  CE        -3.2810    3.4680   24.6750 C.3    27  LYS27       0.1093
     45  NZ        -3.0720    3.5520   26.1480 N.3    27  LYS27      -0.1314
     46  N          2.8600    0.5210   18.3750 N.3    62  LEU62      -0.1245
     47  CA         3.6610    0.9100   19.5290 C.3    62  LEU62       0.1561
     48  C          5.1780    0.8210   19.4450 C.2    62  LEU62       0.2260
     49  O          5.8730    1.4800   20.2180 O.2    62  LEU62      -0.2867
     50  CB         3.1890    0.1140   20.7480 C.3    62  LEU62       0.0270
     51  CG         1.7230    0.2840   21.1640 C.3    62  LEU62       0.0019
     52  CD1        1.4170   -0.6520   22.3150 C.3    62  LEU62       0.0001
     53  CD2        1.4580    1.7320   21.5560 C.3    62  LEU62       0.0001
     54  N          7.8620    3.7270   20.3600 N.3    65  GLN65      -0.1231
     55  CA         7.2520    4.8290   21.1000 C.3    65  GLN65       0.1698
     56  C          7.6740    4.9070   22.5610 C.2    65  GLN65       0.2592
     57  O          7.9660    3.8900   23.1910 O.2    65  GLN65      -0.2718
     58  CB         5.7270    4.7350   21.0450 C.3    65  GLN65       0.0381
     59  CG         5.1270    5.0100   19.6850 C.3    65  GLN65       0.0905
     60  CD         3.6820    5.4570   19.7830 C.2    65  GLN65       0.2608
     61  OE1        3.3750    6.4500   20.4440 O.2    65  GLN65      -0.2717
     62  NE2        2.7870    4.7280   19.1260 N.am   65  GLN65      -0.0878
     63  N          7.7060    6.1270   23.0900 N.am   66  ASN66      -0.1960
     64  CA         8.0580    6.3530   24.4890 C.3    66  ASN66       0.1819
     65  C          6.7920    6.2780   25.3340 C.2    66  ASN66       0.2621
     66  O          5.7650    6.8540   24.9710 O.2    66  ASN66      -0.2715
     67  CB         8.6840    7.7380   24.6870 C.3    66  ASN66       0.1195
     68  CG        10.1170    7.8100   24.2090 C.2    66  ASN66       0.2630
     69  OD1       10.7490    6.7910   23.9360 O.2    66  ASN66      -0.2716
     70  ND2       10.6460    9.0250   24.1300 N.am   66  ASN66      -0.0877
     71  N          6.8680    5.5760   26.4580 N.am   67  ILE67      -0.1963
     72  CA         5.7140    5.4540   27.3500 C.3    67  ILE67       0.1727
     73  C          5.4320    6.7900   28.0310 C.2    67  ILE67       0.2616
     74  O          4.2820    7.2290   28.0990 O.2    67  ILE67      -0.2715
     75  CB         5.9530    4.3720   28.4120 C.3    67  ILE67       0.0290
     76  CG1        6.0180    3.0020   27.7360 C.3    67  ILE67       0.0022
     77  CG2        4.8290    4.4010   29.4510 C.3    67  ILE67       0.0023
     78  CD1        6.3630    1.8740   28.6810 C.3    67  ILE67       0.0001
     79  N          6.4830    7.4250   28.5430 N.am   68  TYR68      -0.1960
     80  CA         6.3600    8.7310   29.1870 C.3    68  TYR68       0.1771
     81  C          7.2570    9.7140   28.4470 C.2    68  TYR68       0.2620
     82  O          8.1640    9.3100   27.7130 O.2    68  TYR68      -0.2715
     83  CB         6.7920    8.6760   30.6570 C.3    68  TYR68       0.0574
     84  CG         5.9540    7.7730   31.5380 C.ar   68  TYR68      -0.0198
     85  CD1        4.6400    8.1050   31.8620 C.ar   68  TYR68      -0.0009
     86  CD2        6.4830    6.5930   32.0560 C.ar   68  TYR68      -0.0009
     87  CE1        3.8720    7.2800   32.6850 C.ar   68  TYR68       0.0417
     88  CE2        5.7240    5.7610   32.8790 C.ar   68  TYR68       0.0417
     89  CZ         4.4210    6.1110   33.1890 C.ar   68  TYR68       0.1957
     90  OH         3.6700    5.2850   33.9960 O.3    68  TYR68      -0.2866
     91  N          7.0140   11.0040   28.6400 N.am   69  ASN69      -0.1958
     92  CA         7.8250   12.0150   27.9730 C.3    69  ASN69       0.1819
     93  C          9.3130   11.7820   28.2100 C.2    69  ASN69       0.2621
     94  O          9.7630   11.6570   29.3470 O.2    69  ASN69      -0.2715
     95  CB         7.4670   13.4230   28.4660 C.3    69  ASN69       0.1195
     96  CG         6.0120   13.7740   28.2350 C.2    69  ASN69       0.2630
     97  OD1        5.4410   13.4480   27.1960 O.2    69  ASN69      -0.2716
     98  ND2        5.4080   14.4630   29.2000 N.am   69  ASN69      -0.0877
     99  N         10.0660   11.7010   27.1190 N.am   70  ALA70      -0.1963
    100  CA        11.5130   11.5350   27.1750 C.3    70  ALA70       0.1728
    101  C         12.0860   10.2770   27.8320 C.2    70  ALA70       0.2616
    102  O         13.1940   10.3160   28.3620 O.2    70  ALA70      -0.2715
    103  CB        12.1410   12.7810   27.8180 C.3    70  ALA70       0.0334
    104  N         11.3530    9.1660   27.8170 N.am   71  CYS71      -0.1968
    105  CA        11.8920    7.9250   28.3830 C.3    71  CYS71       0.1712
    106  C         11.0620    6.7270   28.0390 C.2    71  CYS71       0.2296
    107  O         10.0200    6.8170   27.3820 O.2    71  CYS71      -0.2864
    108  CB        11.9250    7.9240   29.9280 C.3    71  CYS71       0.0983
    109  SG        10.3630    7.3840   30.7600 S.3    71  CYS71      -0.0798
    110  N          9.6260    1.5940   23.9330 N.3    74  LEU74      -0.1245
    111  CA         9.2370    0.2200   23.6460 C.3    74  LEU74       0.1561
    112  C          9.9500   -0.3400   22.4090 C.2    74  LEU74       0.2260
    113  O          9.9960    0.3130   21.3600 O.2    74  LEU74      -0.2867
    114  CB         7.7180    0.1450   23.4250 C.3    74  LEU74       0.0270
    115  CG         6.8190    0.4350   24.6320 C.3    74  LEU74       0.0019
    116  CD1        5.4080    0.7480   24.1620 C.3    74  LEU74       0.0001
    117  CD2        6.8230   -0.7600   25.5700 C.3    74  LEU74       0.0001
@<TRIPOS>BOND
     1    46    47    1
     2    62    60   am
     3    48    47    1
     4    48    49    2
     5    47    50    1
     6    59    60    1
     7    59    58    1
     8    60    61    2
     9    54    55    1
    10    50    51    1
    11    58    55    1
    12    55    56    1
    13    51    53    1
    14    51    52    1
    15   113   112    2
    16    40    39    2
    17   112   111    1
    18    39    38    1
    19    56    63   am
    20    56    57    2
    21    63    64    1
    22   114   111    1
    23   114   115    1
    24    41    38    1
    25    41    42    1
    26   111   110    1
    27    38    37    1
    28    69    68    2
    29    70    68   am
    30   116   115    1
    31    68    67    1
    32    43    44    1
    33    43    42    1
    34    64    67    1
    35    64    65    1
    36   115   117    1
    37    44    45    1
    38    66    65    2
    39    32    31    2
    40    65    71   am
    41    35    33    1
    42    31    30    1
    43    71    72    1
    44    33    30    1
    45    33    34    1
    46    99   100    1
    47    99    93   am
    48    30    29    1
    49   100   103    1
    50   100   101    1
    51    97    96    2
    52    72    73    1
    53    72    75    1
    54   107   106    2
    55    82    81    2
    56    76    75    1
    57    76    78    1
    58   104   101   am
    59   104   105    1
    60   101   102    2
    61    34    36    1
    62    92    93    1
    63    92    95    1
    64    92    91    1
    65    73    74    2
    66    73    79   am
    67   106   105    1
    68    23    22    2
    69    93    94    2
    70    96    95    1
    71    96    98   am
    72   105   108    1
    73    75    77    1
    74    81    91   am
    75    81    80    1
    76    29    22   am
    77    79    80    1
    78    22    21    1
    79    80    83    1
    80   108   109    1
    81    21    20    1
    82    21    24    1
    83    83    84    1
    84    16    15    2
    85    25    24    1
    86    25    26    1
    87    28    26   am
    88    84    85   ar
    89    84    86   ar
    90    26    27    2
    91    15    14    1
    92    85    87   ar
    93    86    88   ar
    94    18    17    1
    95    87    89   ar
    96    88    89   ar
    97    14    17    1
    98    14    13    1
    99    89    90    1
   100    17    19    1
   101     4     3    2
   102     1     2    1
   103     5     2    1
   104     5     6    1
   105     2     3    1
   106     8     6   ar
   107     8    10   ar
   108     6     7   ar
   109    10    11   ar
   110     7     9   ar
   111    11     9   ar
   112    11    12    1
