@<TRIPOS>MOLECULE
tmp/3zzzA00.pdb
 108 104 0 0 0
SMALL
GASTEIGER

@<TRIPOS>ATOM
      1  N         12.1750    6.2630   34.4740 N.3    14  TYR14      -0.1241
      2  CA        11.0570    6.3530   35.4020 C.3    14  TYR14       0.1605
      3  C         10.5390    4.9250   35.4580 C.2    14  TYR14       0.2264
      4  O         10.5300    4.2320   34.4440 O.2    14  TYR14      -0.2867
      5  CB         9.9650    7.3030   34.8960 C.3    14  TYR14       0.0534
      6  CG         8.8260    7.4530   35.8810 C.ar   14  TYR14      -0.0201
      7  CD1        8.9310    8.3210   36.9660 C.ar   14  TYR14      -0.0009
      8  CD2        7.6660    6.6900   35.7570 C.ar   14  TYR14      -0.0009
      9  CE1        7.9120    8.4260   37.9080 C.ar   14  TYR14       0.0417
     10  CE2        6.6350    6.7900   36.6940 C.ar   14  TYR14       0.0417
     11  CZ         6.7660    7.6580   37.7660 C.ar   14  TYR14       0.1957
     12  OH         5.7490    7.7610   38.6930 O.3    14  TYR14      -0.2866
     13  N          0.9990   -0.6170   34.1690 N.3    20  VAL20      -0.1245
     14  CA         1.0530    0.4280   33.1530 C.3    20  VAL20       0.1561
     15  C          1.1470   -0.2450   31.7740 C.2    20  VAL20       0.2260
     16  O          0.5480    0.2190   30.8030 O.2    20  VAL20      -0.2867
     17  CB         2.2610    1.3700   33.3770 C.3    20  VAL20       0.0252
     18  CG1        2.4850    2.2400   32.1560 C.3    20  VAL20       0.0019
     19  CG2        1.9960    2.2500   34.5940 C.3    20  VAL20       0.0019
     20  N         -2.2770   -1.2430   30.8640 N.3    23  GLN23      -0.1231
     21  CA        -3.0750   -0.0960   30.4400 C.3    23  GLN23       0.1698
     22  C         -2.8370    0.2660   28.9770 C.2    23  GLN23       0.2592
     23  O         -3.7800    0.4400   28.2010 O.2    23  GLN23      -0.2718
     24  CB        -2.7520    1.1230   31.3030 C.3    23  GLN23       0.0381
     25  CG        -3.6400    2.3160   31.0090 C.3    23  GLN23       0.0905
     26  CD        -3.1400    3.5940   31.6560 C.2    23  GLN23       0.2608
     27  OE1       -2.5050    3.5660   32.7100 O.2    23  GLN23      -0.2717
     28  NE2       -3.4380    4.7270   31.0280 N.am   23  GLN23      -0.0878
     29  N         -1.5650    0.3840   28.6120 N.am   24  ILE24      -0.1980
     30  CA        -1.1800    0.7460   27.2550 C.3    24  ILE24       0.1595
     31  C         -1.5340   -0.3070   26.2080 C.2    24  ILE24       0.2287
     32  O         -2.0730    0.0130   25.1510 O.2    24  ILE24      -0.2864
     33  CB         0.3360    1.0250   27.1930 C.3    24  ILE24       0.0276
     34  CG1        0.6390    2.3490   27.9040 C.3    24  ILE24       0.0022
     35  CG2        0.8120    1.0450   25.7490 C.3    24  ILE24       0.0022
     36  CD1        2.1180    2.6060   28.1280 C.3    24  ILE24       0.0001
     37  N          2.7830    0.6550   18.5670 N.3    62  LEU62      -0.1245
     38  CA         3.6130    1.0250   19.7080 C.3    62  LEU62       0.1561
     39  C          5.1240    0.8690   19.6110 C.2    62  LEU62       0.2260
     40  O          5.8490    1.4360   20.4280 O.2    62  LEU62      -0.2867
     41  CB         3.1230    0.2640   20.9400 C.3    62  LEU62       0.0270
     42  CG         1.6620    0.5100   21.3300 C.3    62  LEU62       0.0019
     43  CD1        1.2530   -0.4630   22.4170 C.3    62  LEU62       0.0001
     44  CD2        1.4930    1.9480   21.7840 C.3    62  LEU62       0.0001
     45  N          7.7370    3.7060   20.4630 N.3    65  GLN65      -0.1231
     46  CA         7.0250    4.7560   21.1880 C.3    65  GLN65       0.1698
     47  C          7.4550    4.8790   22.6510 C.2    65  GLN65       0.2592
     48  O          7.7180    3.8770   23.3140 O.2    65  GLN65      -0.2718
     49  CB         5.5240    4.4680   21.1410 C.3    65  GLN65       0.0381
     50  CG         4.6470    5.5540   21.7210 C.3    65  GLN65       0.0905
     51  CD         4.4080    6.6830   20.7420 C.2    65  GLN65       0.2608
     52  OE1        5.3490    7.3070   20.2540 O.2    65  GLN65      -0.2717
     53  NE2        3.1430    6.9510   20.4480 N.am   65  GLN65      -0.0878
     54  N          7.5220    6.1110   23.1550 N.am   66  ASN66      -0.1960
     55  CA         7.8850    6.3390   24.5540 C.3    66  ASN66       0.1819
     56  C          6.6320    6.2570   25.4280 C.2    66  ASN66       0.2621
     57  O          5.5890    6.8130   25.0810 O.2    66  ASN66      -0.2715
     58  CB         8.5270    7.7220   24.7400 C.3    66  ASN66       0.1195
     59  CG         9.9570    7.7770   24.2360 C.2    66  ASN66       0.2630
     60  OD1       10.5560    6.7520   23.9150 O.2    66  ASN66      -0.2716
     61  ND2       10.5190    8.9820   24.1830 N.am   66  ASN66      -0.0877
     62  N          6.7340    5.5650   26.5590 N.am   67  ILE67      -0.1963
     63  CA         5.5970    5.4390   27.4670 C.3    67  ILE67       0.1727
     64  C          5.3150    6.7810   28.1310 C.2    67  ILE67       0.2616
     65  O          4.1550    7.1870   28.2720 O.2    67  ILE67      -0.2715
     66  CB         5.8660    4.3660   28.5450 C.3    67  ILE67       0.0290
     67  CG1        5.9380    2.9900   27.8790 C.3    67  ILE67       0.0022
     68  CG2        4.7750    4.4030   29.6190 C.3    67  ILE67       0.0023
     69  CD1        6.3120    1.8640   28.8270 C.3    67  ILE67       0.0001
     70  N          6.3810    7.4640   28.5370 N.am   68  TYR68      -0.1960
     71  CA         6.2750    8.7810   29.1590 C.3    68  TYR68       0.1771
     72  C          7.1970    9.7300   28.4040 C.2    68  TYR68       0.2620
     73  O          8.1010    9.2990   27.6830 O.2    68  TYR68      -0.2715
     74  CB         6.7120    8.7490   30.6310 C.3    68  TYR68       0.0574
     75  CG         5.9290    7.8070   31.5190 C.ar   68  TYR68      -0.0198
     76  CD1        4.5950    8.0620   31.8330 C.ar   68  TYR68      -0.0009
     77  CD2        6.5300    6.6710   32.0630 C.ar   68  TYR68      -0.0009
     78  CE1        3.8750    7.2070   32.6700 C.ar   68  TYR68       0.0417
     79  CE2        5.8190    5.8100   32.9030 C.ar   68  TYR68       0.0417
     80  CZ         4.4930    6.0870   33.2010 C.ar   68  TYR68       0.1957
     81  OH         3.7900    5.2490   34.0320 O.3    68  TYR68      -0.2866
     82  N          6.9700   11.0270   28.5730 N.am   69  ASN69      -0.1958
     83  CA         7.8030   12.0260   27.9200 C.3    69  ASN69       0.1819
     84  C          9.2880   11.7730   28.1570 C.2    69  ASN69       0.2621
     85  O          9.7300   11.6220   29.2960 O.2    69  ASN69      -0.2715
     86  CB         7.4520   13.4220   28.4480 C.3    69  ASN69       0.1195
     87  CG         6.2850   14.0450   27.7220 C.2    69  ASN69       0.2630
     88  OD1        5.4010   13.3490   27.2230 O.2    69  ASN69      -0.2716
     89  ND2        6.2660   15.3730   27.6730 N.am   69  ASN69      -0.0877
     90  N         10.0470   11.7080   27.0670 N.am   70  ALA70      -0.1963
     91  CA        11.4970   11.5320   27.1210 C.3    70  ALA70       0.1728
     92  C         12.0650   10.2810   27.7870 C.2    70  ALA70       0.2616
     93  O         13.1880   10.3110   28.2840 O.2    70  ALA70      -0.2715
     94  CB        12.1320   12.7720   27.7540 C.3    70  ALA70       0.0334
     95  N         11.3150    9.1840   27.8120 N.am   71  CYS71      -0.1968
     96  CA        11.8520    7.9600   28.4070 C.3    71  CYS71       0.1712
     97  C         11.0060    6.7710   28.0880 C.2    71  CYS71       0.2296
     98  O          9.9600    6.8710   27.4500 O.2    71  CYS71      -0.2864
     99  CB        11.8870    8.0050   29.9410 C.3    71  CYS71       0.0983
    100  SG        10.3260    7.4650   30.7670 S.3    71  CYS71      -0.0798
    101  N          9.4560    1.7210   24.0030 N.3    74  LEU74      -0.1245
    102  CA         9.0580    0.3460   23.7530 C.3    74  LEU74       0.1561
    103  C          9.7240   -0.2190   22.4990 C.2    74  LEU74       0.2260
    104  O          9.7460    0.4250   21.4470 O.2    74  LEU74      -0.2867
    105  CB         7.5350    0.2640   23.5930 C.3    74  LEU74       0.0270
    106  CG         6.6680    0.5490   24.8220 C.3    74  LEU74       0.0019
    107  CD1        5.2440    0.8670   24.3750 C.3    74  LEU74       0.0001
    108  CD2        6.6970   -0.6440   25.7660 C.3    74  LEU74       0.0001
@<TRIPOS>BOND
     1    37    38    1
     2    39    38    1
     3    39    40    2
     4    38    41    1
     5    52    51    2
     6    53    51   am
     7    45    46    1
     8    51    50    1
     9    41    42    1
    10    49    46    1
    11    49    50    1
    12    46    47    1
    13    42    44    1
    14    42    43    1
    15   104   103    2
    16   103   102    1
    17    47    54   am
    18    47    48    2
    19    54    55    1
    20   105   102    1
    21   105   106    1
    22   102   101    1
    23    60    59    2
    24    61    59   am
    25    59    58    1
    26   107   106    1
    27    55    58    1
    28    55    56    1
    29   106   108    1
    30    57    56    2
    31    32    31    2
    32    56    62   am
    33    35    33    1
    34    31    30    1
    35    62    63    1
    36    90    91    1
    37    90    84   am
    38    91    94    1
    39    91    92    1
    40    33    30    1
    41    33    34    1
    42    88    87    2
    43    30    29    1
    44    98    97    2
    45    63    64    1
    46    63    66    1
    47    89    87   am
    48    73    72    2
    49    87    86    1
    50    92    95   am
    51    92    93    2
    52    95    96    1
    53    67    66    1
    54    67    69    1
    55    34    36    1
    56    83    84    1
    57    83    86    1
    58    83    82    1
    59    97    96    1
    60    64    65    2
    61    64    70   am
    62    84    85    2
    63    23    22    2
    64    72    82   am
    65    72    71    1
    66    96    99    1
    67    70    71    1
    68    66    68    1
    69    29    22   am
    70    22    21    1
    71    71    74    1
    72    99   100    1
    73    21    20    1
    74    21    24    1
    75    74    75    1
    76    16    15    2
    77    25    24    1
    78    25    26    1
    79    28    26   am
    80    75    76   ar
    81    75    77   ar
    82    26    27    2
    83    15    14    1
    84    76    78   ar
    85    77    79   ar
    86    18    17    1
    87    78    80   ar
    88    79    80   ar
    89    14    17    1
    90    14    13    1
    91    80    81    1
    92    17    19    1
    93     4     3    2
    94     1     2    1
    95     5     2    1
    96     5     6    1
    97     2     3    1
    98     8     6   ar
    99     8    10   ar
   100     6     7   ar
   101    10    11   ar
   102     7     9   ar
   103    11     9   ar
   104    11    12    1
