@<TRIPOS>MOLECULE
tmp/4a01A01.pdb
 105 101 0 0 0
SMALL
GASTEIGER

@<TRIPOS>ATOM
      1  N         -7.5780   45.0090   49.2000 N.3   336  LYS336     -0.1245
      2  CA        -7.2660   44.4360   47.8940 C.3   336  LYS336      0.1561
      3  C         -8.4330   43.6970   47.2230 C.2   336  LYS336      0.2260
      4  O         -8.7070   43.9140   46.0330 O.2   336  LYS336     -0.2867
      5  CB        -6.0970   43.4910   47.9870 C.3   336  LYS336      0.0271
      6  CG        -5.6170   43.0930   46.5840 C.3   336  LYS336      0.0035
      7  CD        -4.0850   42.9470   46.5720 C.3   336  LYS336      0.0206
      8  CE        -3.6910   41.5610   46.9320 C.3   336  LYS336      0.1093
      9  NZ        -2.1960   41.3940   46.9080 N.3   336  LYS336     -0.1314
     10  N         -3.7090   46.0410   37.7520 N.3   391  ILE391     -0.1245
     11  CA        -2.2660   45.7610   37.6950 C.3   391  ILE391      0.1561
     12  C         -1.5360   46.8230   38.4900 C.2   391  ILE391      0.2260
     13  O         -0.6900   46.4870   39.3260 O.2   391  ILE391     -0.2867
     14  CB        -1.7960   45.6670   36.2530 C.3   391  ILE391      0.0252
     15  CG1       -2.3660   44.3740   35.6120 C.3   391  ILE391      0.0019
     16  CG2       -0.2760   45.6910   36.1700 C.3   391  ILE391      0.0019
     17  CD1       -2.3220   44.3810   33.9970 C.3   391  ILE391      0.0001
     18  N         -1.9950   46.2440   42.2610 N.3   394  PHE394     -0.1227
     19  CA        -1.1590   45.1490   42.7500 C.3   394  PHE394      0.1736
     20  C          0.2810   45.5050   42.8820 C.2   394  PHE394      0.2595
     21  O          0.9070   45.1950   43.8880 O.2   394  PHE394     -0.2718
     22  CB        -1.2920   43.9180   41.8150 C.3   394  PHE394      0.0547
     23  CG        -2.4460   43.0430   42.1530 C.ar  394  PHE394     -0.0202
     24  CD1       -3.7100   43.5710   42.3230 C.ar  394  PHE394     -0.0042
     25  CD2       -2.2590   41.6760   42.3640 C.ar  394  PHE394     -0.0042
     26  CE1       -4.7900   42.7780   42.6230 C.ar  394  PHE394     -0.0003
     27  CE2       -3.3430   40.8450   42.6810 C.ar  394  PHE394     -0.0003
     28  CZ        -4.6110   41.4070   42.8100 C.ar  394  PHE394     -0.0000
     29  N          0.8160   46.1430   41.8500 N.am  395  VAL395     -0.1980
     30  CA         2.2010   46.5990   41.8710 C.3   395  VAL395      0.1595
     31  C          2.4790   47.6800   42.9150 C.2   395  VAL395      0.2287
     32  O          3.5610   47.7150   43.4940 O.2   395  VAL395     -0.2864
     33  CB         2.6450   47.1570   40.4940 C.3   395  VAL395      0.0276
     34  CG1        4.1530   47.2700   40.4480 C.3   395  VAL395      0.0022
     35  CG2        2.2590   46.1490   39.4800 C.3   395  VAL395      0.0022
     36  N          0.7740   48.1380   45.6780 N.3   397  GLU397     -0.1231
     37  CA         0.7470   47.4490   46.9360 C.3   397  GLU397      0.1699
     38  C          2.0850   46.7730   47.1990 C.2   397  GLU397      0.2592
     39  O          2.6410   46.8470   48.2960 O.2   397  GLU397     -0.2718
     40  CB        -0.3400   46.4240   46.9410 C.3   397  GLU397      0.0402
     41  CG        -0.4130   45.8980   48.3350 C.3   397  GLU397      0.1161
     42  CD        -1.3080   44.7150   48.4520 C.2   397  GLU397      0.3649
     43  OE1       -0.9890   43.6260   47.8710 O.co2 397  GLU397     -0.2457
     44  OE2       -2.3560   44.9190   49.0780 O.co2 397  GLU397     -0.2457
     45  N          2.6050   46.1230   46.1760 N.am  398  TYR398     -0.1976
     46  CA         3.8260   45.3900   46.3850 C.3   398  TYR398      0.1639
     47  C          4.9230   46.3280   46.7970 C.2   398  TYR398      0.2290
     48  O          5.7030   45.9960   47.6420 O.2   398  TYR398     -0.2864
     49  CB         4.2060   44.6490   45.1250 C.3   398  TYR398      0.0560
     50  CG         5.5620   44.0170   45.2130 C.ar  398  TYR398     -0.0198
     51  CD1        5.7620   42.8590   46.0100 C.ar  398  TYR398     -0.0009
     52  CD2        6.6270   44.5320   44.4720 C.ar  398  TYR398     -0.0009
     53  CE1        7.0230   42.2600   46.0920 C.ar  398  TYR398      0.0417
     54  CE2        7.9140   43.9430   44.5330 C.ar  398  TYR398      0.0417
     55  CZ         8.0910   42.8080   45.3480 C.ar  398  TYR398      0.1957
     56  OH         9.3170   42.2150   45.4160 O.3   398  TYR398     -0.2866
     57  N          4.1370   44.3770   54.3450 N.3   403  ALA403     -0.1231
     58  CA         4.0400   42.9270   54.1960 C.3   403  ALA403      0.1694
     59  C          5.0650   42.4690   53.1550 C.2   403  ALA403      0.2592
     60  O          5.3090   41.2780   53.0440 O.2   403  ALA403     -0.2718
     61  CB         2.6630   42.5290   53.7520 C.3   403  ALA403      0.0304
     62  N          5.6560   43.3610   52.3590 N.am  404  TYR404     -0.1976
     63  CA         6.5310   42.8330   51.3160 C.3   404  TYR404      0.1639
     64  C          7.9890   43.2460   51.4460 C.2   404  TYR404      0.2290
     65  O          8.3170   44.2010   52.1450 O.2   404  TYR404     -0.2864
     66  CB         6.0160   43.1220   49.9030 C.3   404  TYR404      0.0560
     67  CG         4.6190   42.6560   49.7150 C.ar  404  TYR404     -0.0198
     68  CD1        4.3360   41.2960   49.5140 C.ar  404  TYR404     -0.0009
     69  CD2        3.5800   43.5520   49.7300 C.ar  404  TYR404     -0.0009
     70  CE1        3.0450   40.8530   49.3440 C.ar  404  TYR404      0.0417
     71  CE2        2.2670   43.1380   49.5710 C.ar  404  TYR404      0.0417
     72  CZ         2.0140   41.7850   49.3810 C.ar  404  TYR404      0.1957
     73  OH         0.7320   41.3910   49.1770 O.3   404  TYR404     -0.2866
     74  N          6.5090   48.8190   35.9360 N.3   435  ILE435     -0.1245
     75  CA         5.3010   48.1040   35.5430 C.3   435  ILE435      0.1561
     76  C          4.0960   48.9800   35.3080 C.2   435  ILE435      0.2260
     77  O          3.4080   48.7740   34.2920 O.2   435  ILE435     -0.2867
     78  CB         5.0180   46.8370   36.4390 C.3   435  ILE435      0.0252
     79  CG1        6.1850   45.8430   36.2360 C.3   435  ILE435      0.0019
     80  CG2        3.6420   46.2010   36.1280 C.3   435  ILE435      0.0019
     81  CD1        6.2390   44.7200   37.3040 C.3   435  ILE435      0.0001
     82  N          4.4980   50.2590   31.7370 N.3   438  PHE438     -0.1227
     83  CA         4.2170   49.1830   30.8170 C.3   438  PHE438      0.1736
     84  C          2.7350   48.9520   30.7210 C.2   438  PHE438      0.2595
     85  O          2.2180   48.7780   29.6170 O.2   438  PHE438     -0.2718
     86  CB         5.0070   47.8750   31.1350 C.3   438  PHE438      0.0547
     87  CG         6.4440   47.9120   30.6880 C.ar  438  PHE438     -0.0202
     88  CD1        6.7670   48.2620   29.4080 C.ar  438  PHE438     -0.0042
     89  CD2        7.4770   47.5340   31.5410 C.ar  438  PHE438     -0.0042
     90  CE1        8.1260   48.2860   28.9880 C.ar  438  PHE438     -0.0003
     91  CE2        8.7940   47.5610   31.1360 C.ar  438  PHE438     -0.0003
     92  CZ         9.1210   47.9480   29.8740 C.ar  438  PHE438     -0.0000
     93  N          2.0240   48.9450   31.8340 N.am  439  ALA439     -0.1980
     94  CA         0.5460   48.7690   31.7690 C.3   439  ALA439      0.1597
     95  C         -0.1400   49.9120   31.0110 C.2   439  ALA439      0.2287
     96  O         -1.0670   49.6760   30.2340 O.2   439  ALA439     -0.2864
     97  CB        -0.0520   48.6240   33.1530 C.3   439  ALA439      0.0319
     98  N          0.5880   49.4720   27.2700 N.3   442  ILE442     -0.1245
     99  CA        -0.3040   48.4540   26.7090 C.3   442  ILE442      0.1561
    100  C         -1.7280   48.9910   26.5320 C.2   442  ILE442      0.2260
    101  O         -2.3450   48.7260   25.5210 O.2   442  ILE442     -0.2867
    102  CB        -0.3060   47.1200   27.5330 C.3   442  ILE442      0.0252
    103  CG1        1.0680   46.4390   27.4890 C.3   442  ILE442      0.0019
    104  CG2       -1.4610   46.1710   27.1060 C.3   442  ILE442      0.0019
    105  CD1        1.2300   45.3750   28.6610 C.3   442  ILE442      0.0001
@<TRIPOS>BOND
     1   101   100    2
     2   100    99    1
     3    99    98    1
     4    99   102    1
     5   104   102    1
     6   103   102    1
     7   103   105    1
     8    90    88   ar
     9    90    92   ar
    10    88    87   ar
    11    85    84    2
    12    92    91   ar
    13    96    95    2
    14    87    86    1
    15    87    89   ar
    16    84    83    1
    17    84    93   am
    18    83    86    1
    19    83    82    1
    20    95    94    1
    21    91    89   ar
    22    94    93    1
    23    94    97    1
    24    17    15    1
    25    77    76    2
    26    76    75    1
    27    75    74    1
    28    75    78    1
    29    15    14    1
    30    80    78    1
    31    16    14    1
    32    79    78    1
    33    79    81    1
    34    14    11    1
    35    11    10    1
    36    11    12    1
    37    12    13    2
    38    35    33    1
    39    34    33    1
    40    33    30    1
    41    22    23    1
    42    22    19    1
    43    29    30    1
    44    29    20   am
    45    30    31    1
    46    23    24   ar
    47    23    25   ar
    48    18    19    1
    49    24    26   ar
    50    25    27   ar
    51    26    28   ar
    52    27    28   ar
    53    19    20    1
    54    20    21    2
    55    31    32    2
    56    52    54   ar
    57    52    50   ar
    58    54    55   ar
    59    49    50    1
    60    49    46    1
    61    50    51   ar
    62    55    56    1
    63    55    53   ar
    64    36    37    1
    65    51    53   ar
    66     4     3    2
    67    45    46    1
    68    45    38   am
    69    46    47    1
    70     7     6    1
    71     7     8    1
    72     6     5    1
    73    47    48    2
    74     9     8    1
    75    37    40    1
    76    37    38    1
    77    40    41    1
    78    38    39    2
    79     3     2    1
    80    43    42   ar
    81     2     5    1
    82     2     1    1
    83    41    42    1
    84    42    44   ar
    85    73    72    1
    86    70    72   ar
    87    70    68   ar
    88    72    71   ar
    89    68    67   ar
    90    71    69   ar
    91    67    69   ar
    92    67    66    1
    93    66    63    1
    94    63    64    1
    95    63    62    1
    96    64    65    2
    97    62    59   am
    98    60    59    2
    99    59    58    1
   100    61    58    1
   101    58    57    1
