@<TRIPOS>MOLECULE
tmp/4a01A05.pdb
 83 83 0 0 0
SMALL
GASTEIGER

@<TRIPOS>ATOM
      1  N        -14.3450   85.5660   27.0780 N.3    83  LEU83      -0.1231
      2  CA       -13.7180   86.5380   26.2100 C.3    83  LEU83       0.1693
      3  C        -12.8640   85.8760   25.1320 C.2    83  LEU83       0.2592
      4  O        -13.0070   86.1700   23.9280 O.2    83  LEU83      -0.2718
      5  CB       -12.8790   87.5010   27.0330 C.3    83  LEU83       0.0284
      6  CG       -13.5170   88.7910   27.5230 C.3    83  LEU83       0.0019
      7  CD1      -15.0820   88.8760   27.3740 C.3    83  LEU83       0.0001
      8  CD2      -13.0040   89.1960   28.9430 C.3    83  LEU83       0.0001
      9  N        -11.9920   84.9640   25.5510 N.am   84  PHE84      -0.1976
     10  CA       -11.0650   84.3090   24.6040 C.3    84  PHE84       0.1639
     11  C        -11.8120   83.4820   23.5950 C.2    84  PHE84       0.2290
     12  O        -11.5050   83.5510   22.3950 O.2    84  PHE84      -0.2864
     13  CB        -9.9710   83.4920   25.3440 C.3    84  PHE84       0.0560
     14  CG        -8.8520   84.3430   25.8740 C.ar   84  PHE84      -0.0200
     15  CD1       -8.9480   85.7560   25.8470 C.ar   84  PHE84      -0.0042
     16  CD2       -7.7390   83.7770   26.4350 C.ar   84  PHE84      -0.0042
     17  CE1       -7.9360   86.5780   26.3760 C.ar   84  PHE84      -0.0003
     18  CE2       -6.7150   84.5780   26.9640 C.ar   84  PHE84      -0.0003
     19  CZ        -6.8050   85.9620   26.9360 C.ar   84  PHE84      -0.0000
     20  N        -14.0190   85.7120   21.1820 N.3    87  SER87      -0.1202
     21  CA       -13.2520   86.5210   20.2610 C.3    87  SER87       0.2020
     22  C        -12.8570   85.8000   18.9550 C.2    87  SER87       0.2619
     23  O        -12.2500   86.3930   18.0500 O.2    87  SER87      -0.2717
     24  CB       -11.9790   86.9930   20.9700 C.3    87  SER87       0.2103
     25  OG       -10.9580   85.9920   20.8980 O.3    87  SER87      -0.2182
     26  N        -13.1670   84.5180   18.8400 N.am   88  VAL88      -0.1965
     27  CA       -12.6330   83.7580   17.7160 C.3    88  VAL88       0.1727
     28  C        -13.3880   84.2110   16.4490 C.2    88  VAL88       0.2616
     29  O        -12.7920   84.4050   15.4010 O.2    88  VAL88      -0.2715
     30  CB       -12.7140   82.2180   18.0000 C.3    88  VAL88       0.0290
     31  CG1      -12.4110   81.3790   16.7770 C.3    88  VAL88       0.0023
     32  CG2      -11.8080   81.8590   19.1390 C.3    88  VAL88       0.0023
     33  N        -14.6970   84.4160   16.5940 N.am   89  GLU89      -0.1963
     34  CA       -15.5890   84.7840   15.5040 C.3    89  GLU89       0.1733
     35  C        -16.0130   86.2390   15.7780 C.2    89  GLU89       0.2617
     36  O        -17.1030   86.6740   15.3840 O.2    89  GLU89      -0.2715
     37  CB       -16.7880   83.8340   15.5140 C.3    89  GLU89       0.0429
     38  CG       -16.9510   82.7910   14.3850 C.3    89  GLU89       0.1163
     39  CD       -15.6490   82.2370   13.7460 C.2    89  GLU89       0.3649
     40  OE1      -14.8520   81.5920   14.4630 O.co2  89  GLU89      -0.2457
     41  OE2      -15.4550   82.3850   12.5060 O.co2  89  GLU89      -0.2457
     42  N        -15.1640   86.9860   16.4840 N.am   90  GLY90      -0.1940
     43  CA       -15.4340   88.3950   16.8090 C.3    90  GLY90       0.2014
     44  C        -16.7670   88.6440   17.4880 C.2    90  GLY90       0.2639
     45  O        -17.4210   89.6490   17.2480 O.2    90  GLY90      -0.2714
     46  N        -17.1620   87.7270   18.3600 N.am   91  PHE91      -0.1959
     47  CA       -18.4160   87.7700   19.1190 C.3    91  PHE91       0.1771
     48  C        -19.6470   87.8570   18.2440 C.2    91  PHE91       0.2620
     49  O        -20.6370   88.3790   18.6780 O.2    91  PHE91      -0.2715
     50  CB       -18.4450   88.9160   20.1310 C.3    91  PHE91       0.0574
     51  CG       -17.3330   88.8750   21.1200 C.ar   91  PHE91      -0.0200
     52  CD1      -16.1000   89.4690   20.8190 C.ar   91  PHE91      -0.0042
     53  CD2      -17.4960   88.2010   22.3510 C.ar   91  PHE91      -0.0042
     54  CE1      -15.0530   89.4440   21.7430 C.ar   91  PHE91      -0.0003
     55  CE2      -16.4380   88.1510   23.2820 C.ar   91  PHE91      -0.0003
     56  CZ       -15.2310   88.7810   22.9930 C.ar   91  PHE91      -0.0000
     57  N        -19.6080   87.3160   17.0410 N.am   92  SER92      -0.1950
     58  CA       -20.7650   87.3690   16.1680 C.3    92  SER92       0.1924
     59  C        -21.9270   86.4880   16.6530 C.2    92  SER92       0.2314
     60  O        -21.7120   85.4290   17.2780 O.2    92  SER92      -0.2863
     61  CB       -20.3640   86.9770   14.7510 C.3    92  SER92       0.2116
     62  OG       -21.4800   86.4450   14.0850 O.3    92  SER92      -0.2180
     63  N         -9.1030   79.3350   19.9310 N.3   728  PHE728     -0.1241
     64  CA        -8.5510   80.6400   20.1700 C.3   728  PHE728      0.1605
     65  C         -7.0300   80.6780   19.7930 C.2   728  PHE728      0.2264
     66  O         -6.5720   81.6040   19.0910 O.2   728  PHE728     -0.2867
     67  CB        -8.8150   81.0440   21.6320 C.3   728  PHE728      0.0534
     68  CG        -8.0520   82.2640   22.0550 C.ar  728  PHE728     -0.0203
     69  CD1       -8.4820   83.5400   21.6690 C.ar  728  PHE728     -0.0042
     70  CD2       -6.8690   82.1420   22.7750 C.ar  728  PHE728     -0.0042
     71  CE1       -7.7800   84.7090   22.0370 C.ar  728  PHE728     -0.0003
     72  CE2       -6.1590   83.2750   23.1330 C.ar  728  PHE728     -0.0003
     73  CZ        -6.6260   84.5850   22.7460 C.ar  728  PHE728     -0.0000
     74  N         -5.7540   83.1420   16.9760 N.3   732  HIS732     -0.1241
     75  CA        -5.0450   84.3260   17.4130 C.3   732  HIS732      0.1621
     76  C         -3.6860   84.0570   18.0150 C.2   732  HIS732      0.2264
     77  O         -3.0540   84.9940   18.5080 O.2   732  HIS732     -0.2867
     78  CB        -5.8800   85.1330   18.4090 C.3   732  HIS732      0.0745
     79  CG        -7.2260   85.5550   17.8790 C.ar  732  HIS732      0.0817
     80  ND1       -7.3780   86.2980   16.7150 N.ar  732  HIS732     -0.2268
     81  CD2       -8.4820   85.2920   18.3260 C.ar  732  HIS732      0.1154
     82  CE1       -8.6670   86.4780   16.4780 C.ar  732  HIS732      0.1986
     83  NE2       -9.3580   85.8860   17.4430 N.ar  732  HIS732     -0.2212
@<TRIPOS>BOND
     1    41    39   ar
     2    39    38    1
     3    39    40   ar
     4    62    61    1
     5    38    37    1
     6    61    58    1
     7    36    35    2
     8    29    28    2
     9    34    37    1
    10    34    35    1
    11    34    33    1
    12    35    42   am
    13    58    59    1
    14    58    57    1
    15    28    33   am
    16    28    27    1
    17    82    80   ar
    18    82    83   ar
    19    42    43    1
    20    59    60    2
    21    80    79   ar
    22    31    30    1
    23    43    44    1
    24    74    75    1
    25    57    48   am
    26    45    44    2
    27    75    76    1
    28    75    78    1
    29    83    81   ar
    30    44    46   am
    31    27    30    1
    32    27    26    1
    33    79    81   ar
    34    79    78    1
    35    30    32    1
    36    76    77    2
    37    23    22    2
    38    48    49    2
    39    48    47    1
    40    46    47    1
    41    26    22   am
    42    22    21    1
    43    66    65    2
    44    47    50    1
    45    65    64    1
    46    63    64    1
    47    50    51    1
    48    64    67    1
    49    21    24    1
    50    21    20    1
    51    52    51   ar
    52    52    54   ar
    53    25    24    1
    54    51    53   ar
    55    67    68    1
    56    69    71   ar
    57    69    68   ar
    58    54    56   ar
    59    71    73   ar
    60    68    70   ar
    61    53    55   ar
    62    12    11    2
    63    73    72   ar
    64    70    72   ar
    65    56    55   ar
    66    11    10    1
    67     4     3    2
    68    10    13    1
    69    10     9    1
    70     3     9   am
    71     3     2    1
    72    13    14    1
    73    15    14   ar
    74    15    17   ar
    75    14    16   ar
    76     2     5    1
    77     2     1    1
    78    17    19   ar
    79    16    18   ar
    80    19    18   ar
    81     5     6    1
    82     7     6    1
    83     6     8    1
