@<TRIPOS>MOLECULE
tmp/4a01A02.pdb
 127 119 0 0 0
SMALL
GASTEIGER

@<TRIPOS>ATOM
      1  N         10.5830   71.4620   26.8690 N.3   555  VAL555     -0.1245
      2  CA        10.1030   72.3950   27.8790 C.3   555  VAL555      0.1561
      3  C          8.9360   71.7340   28.6170 C.2   555  VAL555      0.2260
      4  O          8.8290   71.7960   29.8480 O.2   555  VAL555     -0.2867
      5  CB         9.7030   73.8030   27.2150 C.3   555  VAL555      0.0252
      6  CG1        8.9260   74.7210   28.1910 C.3   555  VAL555      0.0019
      7  CG2       10.9660   74.5240   26.7400 C.3   555  VAL555      0.0019
      8  N          9.9120   69.5260   31.4050 N.3   558  MET558     -0.1230
      9  CA        10.5810   70.2490   32.4870 C.3   558  MET558      0.1702
     10  C          9.5090   70.7750   33.4460 C.2   558  MET558      0.2592
     11  O          9.7220   70.8230   34.6700 O.2   558  MET558     -0.2718
     12  CB        11.4840   71.3130   31.8810 C.3   558  MET558      0.0401
     13  CG        12.1590   72.3010   32.9130 C.3   558  MET558      0.0596
     14  SD        11.0280   73.6850   33.3670 S.3   558  MET558     -0.1393
     15  CE        11.1680   74.6160   31.8040 C.3   558  MET558      0.0692
     16  N          8.3290   71.0910   32.9250 N.am  559  LEU559     -0.1980
     17  CA         7.2820   71.6800   33.7850 C.3   559  LEU559      0.1596
     18  C          7.0530   70.9240   35.0750 C.2   559  LEU559      0.2287
     19  O          6.9330   71.5660   36.1420 O.2   559  LEU559     -0.2864
     20  CB         5.9770   71.9580   33.0530 C.3   559  LEU559      0.0297
     21  CG         6.1040   72.8740   31.8230 C.3   559  LEU559      0.0022
     22  CD1        4.7310   73.0200   31.1180 C.3   559  LEU559      0.0001
     23  CD2        6.7760   74.2630   32.1160 C.3   559  LEU559      0.0001
     24  N          9.8040   71.9750   37.6260 N.3   562  TRP562     -0.1241
     25  CA         9.5880   73.3110   38.0990 C.3   562  TRP562      0.1605
     26  C          8.4250   73.2800   39.1150 C.2   562  TRP562      0.2264
     27  O          8.5320   73.8640   40.1740 O.2   562  TRP562     -0.2867
     28  CB         9.1690   74.1570   36.9010 C.3   562  TRP562      0.0550
     29  CG         9.0530   75.6700   37.1330 C.ar  562  TRP562      0.0003
     30  CD1        9.0600   76.3540   38.3320 C.ar  562  TRP562      0.0946
     31  CD2        8.9810   76.6540   36.1240 C.ar  562  TRP562      0.0152
     32  NE1        8.9980   77.7020   38.1060 N.ar  562  TRP562     -0.2442
     33  CE2        8.9220   77.9230   36.7720 C.ar  562  TRP562      0.0810
     34  CE3        8.9350   76.6000   34.7300 C.ar  562  TRP562      0.0012
     35  CZ2        8.8450   79.1010   36.0810 C.ar  562  TRP562      0.0191
     36  CZ3        8.8380   77.7720   34.0450 C.ar  562  TRP562      0.0001
     37  CH2        8.8200   79.0210   34.7140 C.ar  562  TRP562      0.0015
     38  N          8.6870   74.1220   43.3320 N.3   566  MET566     -0.1245
     39  CA         7.9050   75.0920   44.1020 C.3   566  MET566      0.1570
     40  C          7.1810   74.4850   45.2750 C.2   566  MET566      0.2261
     41  O          7.2300   75.0560   46.3970 O.2   566  MET566     -0.2867
     42  CB         6.9080   75.7860   43.2410 C.3   566  MET566      0.0387
     43  CG         7.5450   76.6910   42.1360 C.3   566  MET566      0.0595
     44  SD         6.0060   77.2750   41.2630 S.3   566  MET566     -0.1393
     45  CE         6.6820   78.4790   40.2080 C.3   566  MET566      0.0692
     46  N          9.7410   73.2370   47.9880 N.3   569  LYS569     -0.1245
     47  CA        10.3070   74.4280   48.6520 C.3   569  LYS569      0.1561
     48  C          9.2800   75.0130   49.6840 C.2   569  LYS569      0.2260
     49  O          9.5990   75.2370   50.8300 O.2   569  LYS569     -0.2867
     50  CB        10.7480   75.4280   47.5760 C.3   569  LYS569      0.0271
     51  CG        11.5780   76.7060   48.0060 C.3   569  LYS569      0.0035
     52  CD        12.6130   76.3150   48.9690 C.3   569  LYS569      0.0206
     53  CE        13.4390   77.5540   49.4860 C.3   569  LYS569      0.1093
     54  NZ        14.1780   78.2550   48.3720 N.3   569  LYS569     -0.1314
     55  N          9.8010   75.1940   53.6710 N.3   573  SER573     -0.1217
     56  CA         9.8990   76.4880   54.3460 C.3   573  SER573      0.1889
     57  C          8.8520   76.5520   55.4670 C.2   573  SER573      0.2288
     58  O          9.1690   76.9640   56.5750 O.2   573  SER573     -0.2866
     59  CB         9.7050   77.6110   53.3140 C.3   573  SER573      0.2089
     60  OG        10.9280   77.8270   52.6100 O.3   573  SER573     -0.2183
     61  N         -0.9470   81.3580   50.5830 N.3   614  LYS614     -0.1231
     62  CA        -0.0590   82.1290   49.8130 C.3   614  LYS614      0.1693
     63  C          0.6400   81.2580   48.7530 C.2   614  LYS614      0.2591
     64  O          0.6430   81.6260   47.5990 O.2   614  LYS614     -0.2718
     65  CB         0.9500   82.7670   50.7220 C.3   614  LYS614      0.0285
     66  CG         2.1040   83.3670   49.9470 C.3   614  LYS614      0.0035
     67  CD         3.2550   83.7960   50.8240 C.3   614  LYS614      0.0206
     68  CE         3.9940   84.9650   50.1560 C.3   614  LYS614      0.1093
     69  NZ         5.4520   84.7020   50.2200 N.3   614  LYS614     -0.1314
     70  N          1.2260   80.1080   49.1430 N.am  615  GLU615     -0.1979
     71  CA         2.1020   79.3510   48.2600 C.3   615  GLU615      0.1602
     72  C          1.3570   78.4770   47.2820 C.2   615  GLU615      0.2287
     73  O          2.0050   77.9030   46.4010 O.2   615  GLU615     -0.2864
     74  CB         3.0240   78.4510   49.0720 C.3   615  GLU615      0.0415
     75  CG         3.7090   79.1660   50.1850 C.3   615  GLU615      0.1163
     76  CD         4.8340   79.9560   49.6610 C.2   615  GLU615      0.3649
     77  OE1        4.7610   80.3190   48.4540 O.co2 615  GLU615     -0.2457
     78  OE2        5.7830   80.1960   50.4420 O.co2 615  GLU615     -0.2457
     79  N          1.6000   80.3370   43.0730 N.3   618  PRO618     -0.2116
     80  CA         2.5230   80.2190   41.9380 C.3   618  PRO618      0.1372
     81  C          2.3910   78.8950   41.1530 C.2   618  PRO618      0.2244
     82  O          2.2450   78.9540   39.9040 O.2   618  PRO618     -0.2868
     83  CB         3.9230   80.3410   42.5900 C.3   618  PRO618      0.0268
     84  CG         3.6850   81.2060   43.8510 C.3   618  PRO618      0.0207
     85  CD         2.2870   80.7460   44.3390 C.3   618  PRO618      0.0892
     86  N         -0.6370   79.1220   39.1730 N.3   621  ALA621     -0.1231
     87  CA        -0.3280   80.0080   38.0400 C.3   621  ALA621      0.1694
     88  C          0.4610   79.3040   36.9170 C.2   621  ALA621      0.2591
     89  O          0.1480   79.4460   35.7130 O.2   621  ALA621     -0.2718
     90  CB         0.5070   81.2810   38.5300 C.3   621  ALA621      0.0304
     91  N          1.5230   78.5970   37.3160 N.am  622  LEU622     -0.1980
     92  CA         2.3690   77.8930   36.3230 C.3   622  LEU622      0.1596
     93  C          1.5320   76.8970   35.4900 C.2   622  LEU622      0.2287
     94  O          1.6020   76.8680   34.2420 O.2   622  LEU622     -0.2864
     95  CB         3.5560   77.1930   36.9790 C.3   622  LEU622      0.0297
     96  CG         4.3210   76.1950   36.0890 C.3   622  LEU622      0.0022
     97  CD1        5.2310   76.9260   35.0680 C.3   622  LEU622      0.0001
     98  CD2        5.1550   75.1850   36.9550 C.3   622  LEU622      0.0001
     99  N         -1.3840   79.0990   33.4420 N.3   625  LEU625     -0.1231
    100  CA        -0.8840   80.0430   32.4960 C.3   625  LEU625      0.1693
    101  C         -0.0950   79.4020   31.3370 C.2   625  LEU625      0.2592
    102  O         -0.0970   79.9480   30.2410 O.2   625  LEU625     -0.2718
    103  CB        -0.0670   81.1020   33.2360 C.3   625  LEU625      0.0284
    104  CG        -0.8940   82.0980   34.0950 C.3   625  LEU625      0.0019
    105  CD1        0.0590   82.9850   34.8750 C.3   625  LEU625      0.0001
    106  CD2       -1.7480   82.9860   33.1870 C.3   625  LEU625      0.0001
    107  N          0.5510   78.2450   31.5590 N.am  626  THR626     -0.1953
    108  CA         1.4350   77.6370   30.5170 C.3   626  THR626      0.1897
    109  C          0.7110   77.4420   29.1800 C.2   626  THR626      0.2313
    110  O          1.2360   77.8260   28.1230 O.2   626  THR626     -0.2863
    111  CB         2.0850   76.3170   31.0090 C.3   626  THR626      0.1794
    112  OG1        3.0450   76.6440   32.0160 O.3   626  THR626     -0.2208
    113  CG2        2.7290   75.5390   29.9080 C.3   626  THR626      0.0378
    114  N          0.2280   81.1590   27.7860 N.3   629  VAL629     -0.1231
    115  CA         1.4570   81.7480   27.3490 C.3   629  VAL629      0.1692
    116  C          1.9810   80.9880   26.1200 C.2   629  VAL629      0.2591
    117  O          2.2820   81.6240   25.1080 O.2   629  VAL629     -0.2718
    118  CB         2.4380   81.8060   28.5260 C.3   629  VAL629      0.0266
    119  CG1        3.8700   82.1620   28.1020 C.3   629  VAL629      0.0020
    120  CG2        1.8820   82.7960   29.6060 C.3   629  VAL629      0.0020
    121  N          1.9860   79.6520   26.1400 N.am  630  VAL630     -0.1980
    122  CA         2.5300   78.8870   24.9960 C.3   630  VAL630      0.1595
    123  C          1.6550   79.0140   23.7200 C.2   630  VAL630      0.2287
    124  O          2.1680   79.2420   22.6140 O.2   630  VAL630     -0.2864
    125  CB         2.9190   77.4080   25.3870 C.3   630  VAL630      0.0276
    126  CG1        3.3510   76.6090   24.1400 C.3   630  VAL630      0.0022
    127  CG2        4.0290   77.3880   26.4890 C.3   630  VAL630      0.0022
@<TRIPOS>BOND
     1   124   123    2
     2   123   122    1
     3   126   125    1
     4   122   125    1
     5   122   121    1
     6   117   116    2
     7   125   127    1
     8   116   121   am
     9   116   115    1
    10     7     5    1
    11     1     2    1
    12     5     2    1
    13     5     6    1
    14   115   114    1
    15   115   118    1
    16     2     3    1
    17   119   118    1
    18   110   109    2
    19   118   120    1
    20     3     4    2
    21   109   108    1
    22   113   111    1
    23   102   101    2
    24   108   111    1
    25   108   107    1
    26   111   112    1
    27    22    21    1
    28   101   107   am
    29   101   100    1
    30     8     9    1
    31    15    14    1
    32    21    23    1
    33    21    20    1
    34    12     9    1
    35    12    13    1
    36     9    10    1
    37   100   103    1
    38   100    99    1
    39    13    14    1
    40    16    10   am
    41    16    17    1
    42    20    17    1
    43   106   104    1
    44   103   104    1
    45    10    11    2
    46    17    18    1
    47    36    37   ar
    48    36    34   ar
    49   104   105    1
    50    94    93    2
    51    37    35   ar
    52    34    31   ar
    53    97    96    1
    54    18    19    2
    55    93    92    1
    56    89    88    2
    57    35    33   ar
    58    96    98    1
    59    96    95    1
    60    31    33   ar
    61    31    29   ar
    62    92    95    1
    63    92    91    1
    64    33    32   ar
    65    28    29    1
    66    28    25    1
    67    88    91   am
    68    88    87    1
    69    29    30   ar
    70    24    25    1
    71    87    90    1
    72    87    86    1
    73    25    26    1
    74    32    30   ar
    75    26    27    2
    76    82    81    2
    77    45    44    1
    78    81    80    1
    79    44    43    1
    80    80    83    1
    81    80    79    1
    82    43    42    1
    83    83    84    1
    84    79    85    1
    85    42    39    1
    86    38    39    1
    87    84    85    1
    88    39    40    1
    89    40    41    2
    90    73    72    2
    91    72    71    1
    92    50    51    1
    93    50    47    1
    94    64    63    2
    95    46    47    1
    96    51    52    1
    97    71    74    1
    98    71    70    1
    99    54    53    1
   100    77    76   ar
   101    47    48    1
   102    63    70   am
   103    63    62    1
   104    52    53    1
   105    74    75    1
   106    76    75    1
   107    76    78   ar
   108    48    49    2
   109    62    61    1
   110    62    65    1
   111    66    65    1
   112    66    67    1
   113    68    69    1
   114    68    67    1
   115    60    59    1
   116    59    56    1
   117    55    56    1
   118    56    57    1
   119    57    58    2
