@<TRIPOS>MOLECULE
tmp/4a01B05.pdb
 93 90 0 0 0
SMALL
GASTEIGER

@<TRIPOS>ATOM
      1  N         24.5080   79.2600   35.5550 N.3   395  VAL395     -0.1245
      2  CA        23.3950   78.8340   36.4040 C.3   395  VAL395      0.1561
      3  C         23.8120   77.6850   37.3180 C.2   395  VAL395      0.2260
      4  O         23.3390   77.5890   38.4350 O.2   395  VAL395     -0.2867
      5  CB        22.1480   78.3430   35.6230 C.3   395  VAL395      0.0252
      6  CG1       20.9810   78.1850   36.5980 C.3   395  VAL395      0.0019
      7  CG2       21.7670   79.3120   34.5740 C.3   395  VAL395      0.0019
      8  N         25.6400   79.0440   40.2810 N.3   398  TYR398     -0.1227
      9  CA        24.6880   79.7280   41.1360 C.3   398  TYR398      0.1736
     10  C         23.9370   78.7640   42.0750 C.2   398  TYR398      0.2595
     11  O         23.7800   79.0330   43.2710 O.2   398  TYR398     -0.2718
     12  CB        23.7070   80.5480   40.2900 C.3   398  TYR398      0.0548
     13  CG        22.6500   81.1780   41.1600 C.ar  398  TYR398     -0.0200
     14  CD1       23.0040   82.1990   42.1100 C.ar  398  TYR398     -0.0009
     15  CD2       21.2800   80.8170   41.0220 C.ar  398  TYR398     -0.0009
     16  CE1       22.0020   82.8240   42.9470 C.ar  398  TYR398      0.0417
     17  CE2       20.3000   81.4160   41.8290 C.ar  398  TYR398      0.0417
     18  CZ        20.6530   82.4320   42.7750 C.ar  398  TYR398      0.1957
     19  OH        19.6760   82.9960   43.5710 O.3   398  TYR398     -0.2866
     20  N         23.5630   77.6010   41.5460 N.am  399  TYR399     -0.1976
     21  CA        22.8270   76.6240   42.3190 C.3   399  TYR399      0.1639
     22  C         23.6900   75.6520   43.0720 C.2   399  TYR399      0.2290
     23  O         23.1550   74.8910   43.8850 O.2   399  TYR399     -0.2864
     24  CB        21.8800   75.8730   41.4340 C.3   399  TYR399      0.0560
     25  CG        20.6490   76.6410   41.1290 C.ar  399  TYR399     -0.0198
     26  CD1       19.7100   76.8730   42.1200 C.ar  399  TYR399     -0.0009
     27  CD2       20.3750   77.0900   39.8430 C.ar  399  TYR399     -0.0009
     28  CE1       18.5460   77.5430   41.8720 C.ar  399  TYR399      0.0417
     29  CE2       19.1710   77.7990   39.5950 C.ar  399  TYR399      0.0417
     30  CZ        18.2800   78.0190   40.6200 C.ar  399  TYR399      0.1957
     31  OH        17.0780   78.7030   40.4140 O.3   399  TYR399     -0.2866
     32  N         23.0540   82.1570   47.7330 N.3   405  SER405     -0.1203
     33  CA        22.0120   81.8080   48.6670 C.3   405  SER405      0.2005
     34  C         21.3280   80.4390   48.4230 C.2   405  SER405      0.2460
     35  O         20.8990   79.8000   49.3940 O.2   405  SER405     -0.2732
     36  CB        21.0160   82.9830   48.8350 C.3   405  SER405      0.2103
     37  OG        20.3040   83.1270   47.6450 O.3   405  SER405     -0.2182
     38  N         21.2090   79.9500   47.1640 N.am  406  PRO406     -0.2728
     39  CA        20.5520   78.6340   47.2130 C.3   406  PRO406      0.1401
     40  C         21.3090   77.5950   48.1010 C.2   406  PRO406      0.2269
     41  O         20.6910   76.9250   48.9090 O.2   406  PRO406     -0.2865
     42  CB        20.4960   78.2150   45.7280 C.3   406  PRO406      0.0296
     43  CG        20.4170   79.5360   44.9740 C.3   406  PRO406      0.0237
     44  CD        21.4240   80.4120   45.7760 C.3   406  PRO406      0.0939
     45  N         14.4990   72.8500   40.9360 N.3   431  LYS431     -0.1245
     46  CA        14.4060   74.2420   40.5500 C.3   431  LYS431      0.1561
     47  C         15.5100   74.5290   39.5450 C.2   431  LYS431      0.2260
     48  O         15.2930   75.2710   38.6060 O.2   431  LYS431     -0.2867
     49  CB        14.5190   75.1420   41.8190 C.3   431  LYS431      0.0271
     50  CG        14.4460   76.6640   41.5990 C.3   431  LYS431      0.0035
     51  CD        13.0310   77.0900   41.1990 C.3   431  LYS431      0.0206
     52  CE        12.9160   78.6410   41.1120 C.3   431  LYS431      0.1093
     53  NZ        13.4220   79.3240   42.3780 N.3   431  LYS431     -0.1314
     54  N         15.4040   74.6150   35.2550 N.3   434  ILE434     -0.1231
     55  CA        14.6370   75.5440   34.4360 C.3   434  ILE434      0.1692
     56  C         15.4560   76.2580   33.3920 C.2   434  ILE434      0.2591
     57  O         15.1780   76.1410   32.1670 O.2   434  ILE434     -0.2718
     58  CB        13.8200   76.5850   35.2850 C.3   434  ILE434      0.0266
     59  CG1       12.9240   75.8910   36.2900 C.3   434  ILE434      0.0019
     60  CG2       13.0070   77.5310   34.4110 C.3   434  ILE434      0.0020
     61  CD1       12.4450   76.9130   37.3590 C.3   434  ILE434      0.0001
     62  N         16.4870   76.9740   33.8300 N.am  435  ILE435     -0.1980
     63  CA        17.2360   77.7460   32.8520 C.3   435  ILE435      0.1595
     64  C         18.0660   76.8860   31.9130 C.2   435  ILE435      0.2287
     65  O         18.0760   77.1560   30.6770 O.2   435  ILE435     -0.2864
     66  CB        18.0140   78.9430   33.4890 C.3   435  ILE435      0.0276
     67  CG1       17.0020   79.9530   34.0940 C.3   435  ILE435      0.0022
     68  CG2       19.0130   79.6140   32.4730 C.3   435  ILE435      0.0022
     69  CD1       17.6230   80.8580   35.0790 C.3   435  ILE435      0.0001
     70  N         15.7820   75.8970   29.1380 N.3   438  PHE438     -0.1241
     71  CA        15.5060   77.0180   28.2480 C.3   438  PHE438      0.1605
     72  C         16.7180   77.2680   27.3100 C.2   438  PHE438      0.2264
     73  O         16.5630   77.4500   26.1120 O.2   438  PHE438     -0.2867
     74  CB        15.0760   78.2580   29.0590 C.3   438  PHE438      0.0534
     75  CG        13.6300   78.1670   29.5770 C.ar  438  PHE438     -0.0203
     76  CD1       12.6180   77.7470   28.7520 C.ar  438  PHE438     -0.0042
     77  CD2       13.2890   78.5920   30.8460 C.ar  438  PHE438     -0.0042
     78  CE1       11.2890   77.7000   29.1750 C.ar  438  PHE438     -0.0003
     79  CE2       11.9530   78.5660   31.2830 C.ar  438  PHE438     -0.0003
     80  CZ        10.9530   78.1060   30.4460 C.ar  438  PHE438     -0.0000
     81  N         16.7870   74.4910   24.7420 N.3   441  ALA441     -0.1231
     82  CA        15.7140   74.6670   23.7790 C.3   441  ALA441      0.1694
     83  C         16.0320   75.8410   22.8060 C.2   441  ALA441      0.2591
     84  O         15.8070   75.7340   21.5740 O.2   441  ALA441     -0.2718
     85  CB        14.4250   74.9100   24.4980 C.3   441  ALA441      0.0304
     86  N         16.5430   76.9590   23.3410 N.am  442  ILE442     -0.1980
     87  CA        16.8460   78.0870   22.4760 C.3   442  ILE442      0.1595
     88  C         17.8610   77.6180   21.3950 C.2   442  ILE442      0.2287
     89  O         17.7410   77.9290   20.1880 O.2   442  ILE442     -0.2864
     90  CB        17.4650   79.2980   23.2450 C.3   442  ILE442      0.0276
     91  CG1       16.4060   80.0160   24.0530 C.3   442  ILE442      0.0022
     92  CG2       18.1010   80.3800   22.2710 C.3   442  ILE442      0.0022
     93  CD1       17.0520   81.0010   25.1130 C.3   442  ILE442      0.0001
@<TRIPOS>BOND
     1    89    88    2
     2    88    87    1
     3    84    83    2
     4    92    90    1
     5    87    90    1
     6    87    86    1
     7    83    86   am
     8    83    82    1
     9    90    91    1
    10    82    85    1
    11    82    81    1
    12    91    93    1
    13    73    72    2
    14    72    71    1
    15    71    74    1
    16    71    70    1
    17    76    78   ar
    18    76    75   ar
    19    74    75    1
    20    78    80   ar
    21    75    77   ar
    22    80    79   ar
    23    65    64    2
    24    77    79   ar
    25    64    63    1
    26    57    56    2
    27    68    66    1
    28    63    66    1
    29    63    62    1
    30    56    62   am
    31    56    55    1
    32    66    67    1
    33    67    69    1
    34    60    58    1
    35    55    54    1
    36    55    58    1
    37     7     5    1
    38    58    59    1
    39     1     2    1
    40     5     2    1
    41     5     6    1
    42    59    61    1
    43     2     3    1
    44     3     4    2
    45    48    47    2
    46    47    46    1
    47    29    27   ar
    48    29    30   ar
    49    27    25   ar
    50     8     9    1
    51    12     9    1
    52    12    13    1
    53    31    30    1
    54    46    45    1
    55    46    49    1
    56    30    28   ar
    57    15    13   ar
    58    15    17   ar
    59    52    51    1
    60    52    53    1
    61    25    24    1
    62    25    26   ar
    63     9    10    1
    64    13    14   ar
    65    51    50    1
    66    24    21    1
    67    20    10   am
    68    20    21    1
    69    50    49    1
    70    17    18   ar
    71    28    26   ar
    72    10    11    2
    73    14    16   ar
    74    21    22    1
    75    18    16   ar
    76    18    19    1
    77    22    23    2
    78    43    42    1
    79    43    44    1
    80    42    39    1
    81    44    38    1
    82    38    39    1
    83    38    34   am
    84    39    40    1
    85    37    36    1
    86    32    33    1
    87    40    41    2
    88    34    33    1
    89    34    35    2
    90    33    36    1
