@<TRIPOS>MOLECULE
tmp/4a01A03.pdb
 122 115 0 0 0
SMALL
GASTEIGER

@<TRIPOS>ATOM
      1  N        -11.7650   79.3620   53.7820 N.3    65  THR65      -0.1218
      2  CA       -10.7280   80.3050   53.3660 C.3    65  THR65       0.1862
      3  C        -10.1500   79.9550   51.9890 C.2    65  THR65       0.2287
      4  O        -10.1090   80.8170   51.1080 O.2    65  THR65      -0.2866
      5  CB        -9.6400   80.3710   54.4150 C.3    65  THR65       0.1770
      6  OG1      -10.2640   80.6660   55.6430 O.3    65  THR65      -0.2211
      7  CG2       -8.5210   81.4760   54.1170 C.3    65  THR65       0.0375
      8  N        -10.7380   82.0820   48.0300 N.3    69  TYR69      -0.1241
      9  CA        -9.7050   82.3820   47.0030 C.3    69  TYR69       0.1605
     10  C         -9.9040   81.6580   45.6650 C.2    69  TYR69       0.2264
     11  O         -9.9360   82.2870   44.5870 O.2    69  TYR69      -0.2867
     12  CB        -8.3280   82.0540   47.5050 C.3    69  TYR69       0.0534
     13  CG        -7.8540   83.0550   48.5070 C.ar   69  TYR69      -0.0201
     14  CD1       -8.2200   82.9360   49.8710 C.ar   69  TYR69      -0.0009
     15  CD2       -7.0800   84.1480   48.1090 C.ar   69  TYR69      -0.0009
     16  CE1       -7.8100   83.8740   50.8070 C.ar   69  TYR69       0.0417
     17  CE2       -6.6660   85.1090   49.0470 C.ar   69  TYR69       0.0417
     18  CZ        -7.0320   84.9560   50.3860 C.ar   69  TYR69       0.1957
     19  OH        -6.6010   85.8690   51.3200 O.3    69  TYR69      -0.2866
     20  N        -10.8710   82.9010   42.0140 N.3    73  PHE73      -0.1241
     21  CA       -10.0200   82.6610   40.8830 C.3    73  PHE73       0.1605
     22  C        -10.8700   82.0830   39.7080 C.2    73  PHE73       0.2264
     23  O        -10.6450   82.3720   38.5350 O.2    73  PHE73      -0.2867
     24  CB        -8.8540   81.7280   41.2140 C.3    73  PHE73       0.0534
     25  CG        -8.2890   81.1540   39.9850 C.ar   73  PHE73      -0.0203
     26  CD1       -7.4440   81.9450   39.1640 C.ar   73  PHE73      -0.0042
     27  CD2       -8.7530   79.8990   39.5000 C.ar   73  PHE73      -0.0042
     28  CE1       -6.9970   81.4420   37.9320 C.ar   73  PHE73      -0.0003
     29  CE2       -8.3050   79.4010   38.2960 C.ar   73  PHE73      -0.0003
     30  CZ        -7.4180   80.1900   37.5020 C.ar   73  PHE73      -0.0000
     31  N        -11.3870   83.3660   35.8470 N.3    77  PHE77      -0.1241
     32  CA       -10.9630   82.5060   34.7560 C.3    77  PHE77       0.1605
     33  C        -12.1410   82.2210   33.8430 C.2    77  PHE77       0.2264
     34  O        -11.9960   82.0630   32.6230 O.2    77  PHE77      -0.2867
     35  CB       -10.3270   81.1830   35.2540 C.3    77  PHE77       0.0534
     36  CG        -9.4780   80.5290   34.2060 C.ar   77  PHE77      -0.0203
     37  CD1       -8.1750   80.9390   34.0150 C.ar   77  PHE77      -0.0042
     38  CD2      -10.0130   79.5600   33.3700 C.ar   77  PHE77      -0.0042
     39  CE1       -7.3970   80.3900   33.0170 C.ar   77  PHE77      -0.0003
     40  CE2       -9.2360   78.9820   32.3590 C.ar   77  PHE77      -0.0003
     41  CZ        -7.9300   79.3900   32.1750 C.ar   77  PHE77      -0.0000
     42  N         -5.7560   73.7070   42.8960 N.3   214  PHE214     -0.1241
     43  CA        -5.6100   74.5100   44.1100 C.3   214  PHE214      0.1605
     44  C         -5.9290   73.7300   45.4060 C.2   214  PHE214      0.2264
     45  O         -5.2030   73.8470   46.4110 O.2   214  PHE214     -0.2867
     46  CB        -6.4510   75.8220   43.9800 C.3   214  PHE214      0.0534
     47  CG        -5.9270   76.7440   42.9260 C.ar  214  PHE214     -0.0203
     48  CD1       -4.7650   77.5130   43.1580 C.ar  214  PHE214     -0.0042
     49  CD2       -6.5270   76.7900   41.6900 C.ar  214  PHE214     -0.0042
     50  CE1       -4.2210   78.3620   42.1600 C.ar  214  PHE214     -0.0003
     51  CE2       -6.0090   77.6210   40.6570 C.ar  214  PHE214     -0.0003
     52  CZ        -4.8330   78.4100   40.9050 C.ar  214  PHE214     -0.0000
     53  N         -2.2590   78.4250   62.2050 N.3   606  LYS606     -0.1245
     54  CA        -2.0010   79.6550   61.4870 C.3   606  LYS606      0.1561
     55  C         -0.8470   79.5080   60.5490 C.2   606  LYS606      0.2260
     56  O         -0.9970   79.9410   59.3950 O.2   606  LYS606     -0.2867
     57  CB        -1.7380   80.8520   62.4250 C.3   606  LYS606      0.0271
     58  CG        -1.8650   82.1940   61.7400 C.3   606  LYS606      0.0035
     59  CD        -1.4460   83.3370   62.6970 C.3   606  LYS606      0.0206
     60  CE        -1.8070   84.7270   62.1080 C.3   606  LYS606      0.1093
     61  NZ        -0.7740   85.1690   61.1190 N.3   606  LYS606     -0.1314
     62  N         -1.9830   77.5180   57.6050 N.3   609  THR609     -0.1203
     63  CA        -2.9590   78.3320   56.8460 C.3   609  THR609      0.1994
     64  C         -2.3440   79.4150   55.9860 C.2   609  THR609      0.2617
     65  O         -2.7230   79.5400   54.8080 O.2   609  THR609     -0.2717
     66  CB        -4.0040   79.0280   57.7540 C.3   609  THR609      0.1784
     67  OG1       -4.7140   78.0300   58.4700 O.3   609  THR609     -0.2211
     68  CG2       -5.0610   79.8420   56.8960 C.3   609  THR609      0.0376
     69  N         -1.4050   80.1930   56.5310 N.am  610  ASP610     -0.1973
     70  CA        -0.8220   81.2930   55.7600 C.3   610  ASP610      0.1709
     71  C          0.0740   80.8250   54.6240 C.2   610  ASP610      0.2293
     72  O          0.0600   81.4160   53.5190 O.2   610  ASP610     -0.2864
     73  CB         0.0140   82.2300   56.6470 C.3   610  ASP610      0.1436
     74  CG        -0.8190   83.0260   57.6480 C.2   610  ASP610      0.3671
     75  OD1       -2.1040   83.0910   57.5360 O.co2 610  ASP610     -0.2456
     76  OD2       -0.1580   83.5540   58.5890 O.co2 610  ASP610     -0.2456
     77  N         -2.1020   79.1890   51.7050 N.3   613  ILE613     -0.1231
     78  CA        -2.9720   80.1100   50.9700 C.3   613  ILE613      0.1692
     79  C         -2.1010   81.0040   50.0710 C.2   613  ILE613      0.2591
     80  O         -2.4070   81.2860   48.9290 O.2   613  ILE613     -0.2718
     81  CB        -3.8640   80.9640   51.9500 C.3   613  ILE613      0.0266
     82  CG1       -4.9630   80.1020   52.5780 C.3   613  ILE613      0.0019
     83  CG2       -4.4480   82.2150   51.2030 C.3   613  ILE613      0.0020
     84  CD1       -5.8970   79.4520   51.5980 C.3   613  ILE613      0.0001
     85  N         -0.9470   81.3580   50.5830 N.am  614  LYS614     -0.1980
     86  CA        -0.0590   82.1290   49.8130 C.3   614  LYS614      0.1596
     87  C          0.6400   81.2580   48.7530 C.2   614  LYS614      0.2287
     88  O          0.6430   81.6260   47.5990 O.2   614  LYS614     -0.2864
     89  CB         0.9500   82.7670   50.7220 C.3   614  LYS614      0.0298
     90  CG         2.1040   83.3670   49.9470 C.3   614  LYS614      0.0038
     91  CD         3.2550   83.7960   50.8240 C.3   614  LYS614      0.0206
     92  CE         3.9940   84.9650   50.1560 C.3   614  LYS614      0.1093
     93  NZ         5.4520   84.7020   50.2200 N.3   614  LYS614     -0.1314
     94  N         -0.3570   79.6360   45.1250 N.3   617  ILE617     -0.1245
     95  CA        -0.7000   80.4470   43.9670 C.3   617  ILE617      0.1561
     96  C          0.2930   80.2480   42.8000 C.2   617  ILE617      0.2260
     97  O         -0.1310   80.0460   41.6750 O.2   617  ILE617     -0.2867
     98  CB        -0.9070   81.9620   44.2870 C.3   617  ILE617      0.0252
     99  CG1       -1.8310   82.2010   45.4930 C.3   617  ILE617      0.0019
    100  CG2       -1.3830   82.7500   43.0150 C.3   617  ILE617      0.0019
    101  CD1       -3.2750   82.3580   45.1560 C.3   617  ILE617      0.0001
    102  N         -0.6370   79.1220   39.1730 N.3   621  ALA621     -0.1245
    103  CA        -0.3280   80.0080   38.0400 C.3   621  ALA621      0.1562
    104  C          0.4610   79.3040   36.9170 C.2   621  ALA621      0.2260
    105  O          0.1480   79.4460   35.7130 O.2   621  ALA621     -0.2867
    106  CB         0.5070   81.2810   38.5300 C.3   621  ALA621      0.0290
    107  N         -1.8020   76.8620   34.9690 N.3   624  MET624     -0.1230
    108  CA        -2.9140   77.4310   34.2250 C.3   624  MET624      0.1702
    109  C         -2.5410   78.5100   33.2090 C.2   624  MET624      0.2592
    110  O         -3.2090   78.7120   32.1850 O.2   624  MET624     -0.2718
    111  CB        -3.9440   77.8230   35.2170 C.3   624  MET624      0.0401
    112  CG        -4.5350   76.4990   35.6590 C.3   624  MET624      0.0596
    113  SD        -6.2010   76.7550   36.0800 S.3   624  MET624     -0.1393
    114  CE        -5.7450   77.3650   37.6640 C.3   624  MET624      0.0692
    115  N         -1.3840   79.0990   33.4420 N.am  625  LEU625     -0.1980
    116  CA        -0.8840   80.0430   32.4960 C.3   625  LEU625      0.1596
    117  C         -0.0950   79.4020   31.3370 C.2   625  LEU625      0.2287
    118  O         -0.0970   79.9480   30.2410 O.2   625  LEU625     -0.2864
    119  CB        -0.0670   81.1020   33.2360 C.3   625  LEU625      0.0297
    120  CG        -0.8940   82.0980   34.0950 C.3   625  LEU625      0.0022
    121  CD1        0.0590   82.9850   34.8750 C.3   625  LEU625      0.0001
    122  CD2       -1.7480   82.9860   33.1870 C.3   625  LEU625      0.0001
@<TRIPOS>BOND
     1   118   117    2
     2   117   116    1
     3    41    40   ar
     4    41    39   ar
     5   110   109    2
     6    40    38   ar
     7   116   119    1
     8   116   115    1
     9    34    33    2
    10    39    37   ar
    11   122   120    1
    12   109   115   am
    13   109   108    1
    14   119   120    1
    15    38    36   ar
    16    33    32    1
    17    37    36   ar
    18   120   121    1
    19    36    35    1
    20   108   107    1
    21   108   111    1
    22    32    35    1
    23    32    31    1
    24   111   112    1
    25   112   113    1
    26   105   104    2
    27   113   114    1
    28   104   103    1
    29    30    28   ar
    30    30    29   ar
    31    28    26   ar
    32   103   106    1
    33   103   102    1
    34    29    27   ar
    35    23    22    2
    36    26    25   ar
    37    27    25   ar
    38    22    21    1
    39    25    24    1
    40    51    52   ar
    41    51    49   ar
    42    21    24    1
    43    21    20    1
    44    52    50   ar
    45    97    96    2
    46    49    47   ar
    47    50    48   ar
    48    96    95    1
    49    42    43    1
    50    47    48   ar
    51    47    46    1
    52   100    98    1
    53    95    98    1
    54    95    94    1
    55    46    43    1
    56    43    44    1
    57    98    99    1
    58    11    10    2
    59   101    99    1
    60    44    45    2
    61    10     9    1
    62     9    12    1
    63     9     8    1
    64    12    13    1
    65    88    87    2
    66    15    13   ar
    67    15    17   ar
    68    13    14   ar
    69    87    86    1
    70    80    79    2
    71    17    18   ar
    72    86    85    1
    73    86    89    1
    74    14    16   ar
    75    90    89    1
    76    90    91    1
    77    79    85   am
    78    79    78    1
    79    92    93    1
    80    92    91    1
    81    18    16   ar
    82    18    19    1
    83    78    77    1
    84    78    81    1
    85     4     3    2
    86    83    81    1
    87    84    82    1
    88    81    82    1
    89     3     2    1
    90     2     1    1
    91     2     5    1
    92    72    71    2
    93     7     5    1
    94     5     6    1
    95    71    70    1
    96    65    64    2
    97    70    69    1
    98    70    73    1
    99    64    69   am
   100    64    63    1
   101    73    74    1
   102    63    62    1
   103    63    66    1
   104    68    66    1
   105    75    74   ar
   106    74    76   ar
   107    66    67    1
   108    56    55    2
   109    55    54    1
   110    61    60    1
   111    54    53    1
   112    54    57    1
   113    58    57    1
   114    58    59    1
   115    60    59    1
