@<TRIPOS>MOLECULE
tmp/4a01A00.pdb
 132 117 0 0 0
SMALL
GASTEIGER

@<TRIPOS>ATOM
      1  N          1.2330   69.1010   55.1230 N.3   224  LYS224     -0.1245
      2  CA         2.5880   68.6100   55.3550 C.3   224  LYS224      0.1561
      3  C          3.4730   69.5400   56.1990 C.2   224  LYS224      0.2260
      4  O          4.5140   69.1070   56.7660 O.2   224  LYS224     -0.2867
      5  CB         3.2440   68.2660   53.9930 C.3   224  LYS224      0.0271
      6  CG         2.9610   66.7800   53.4630 C.3   224  LYS224      0.0035
      7  CD         1.7240   66.1110   53.9790 C.3   224  LYS224      0.0206
      8  CE         1.9260   65.0350   54.9150 C.3   224  LYS224      0.1093
      9  NZ         0.4810   64.5590   55.3140 N.3   224  LYS224     -0.1314
     10  N          2.6020   68.1710   59.6770 N.3   227  ASP227     -0.1239
     11  CA         3.0920   66.8300   59.8140 C.3   227  ASP227      0.1674
     12  C          4.6260   66.8150   60.0040 C.2   227  ASP227      0.2266
     13  O          5.1380   66.2150   60.9440 O.2   227  ASP227     -0.2867
     14  CB         2.6870   66.0910   58.4990 C.3   227  ASP227      0.1410
     15  CG         2.8630   64.5540   58.5510 C.2   227  ASP227      0.3668
     16  OD1        3.3610   63.9570   59.5340 O.co2 227  ASP227     -0.2456
     17  OD2        2.4970   63.9230   57.5650 O.co2 227  ASP227     -0.2456
     18  N          6.0720   65.8960   63.7330 N.3   231  ASP231     -0.1239
     19  CA         6.8270   64.6530   63.8210 C.3   231  ASP231      0.1674
     20  C          8.2700   64.8930   64.1520 C.2   231  ASP231      0.2266
     21  O          8.8160   64.1780   64.9920 O.2   231  ASP231     -0.2867
     22  CB         6.7090   63.7890   62.5390 C.3   231  ASP231      0.1410
     23  CG         5.3400   63.1370   62.3860 C.2   231  ASP231      0.3668
     24  OD1        4.4700   63.3170   63.2470 O.co2 231  ASP231     -0.2456
     25  OD2        5.1090   62.4800   61.3550 O.co2 231  ASP231     -0.2456
     26  N          4.0230   60.0180   68.6150 N.3   242  GLU242     -0.1245
     27  CA         3.3120   60.6780   67.5400 C.3   242  GLU242      0.1567
     28  C          1.9290   61.0630   68.0310 C.2   242  GLU242      0.2260
     29  O          1.3330   60.3290   68.7610 O.2   242  GLU242     -0.2867
     30  CB         3.1450   59.6690   66.4020 C.3   242  GLU242      0.0388
     31  CG         2.4880   60.2530   65.0870 C.3   242  GLU242      0.1160
     32  CD         2.7540   59.3270   63.8880 C.2   242  GLU242      0.3649
     33  OE1        3.9060   59.3060   63.3910 O.co2 242  GLU242     -0.2457
     34  OE2        1.8240   58.6180   63.4710 O.co2 242  GLU242     -0.2457
     35  N         -2.0100   68.9260   62.1750 N.3   253  ASP253     -0.1239
     36  CA        -1.6370   67.6950   61.4530 C.3   253  ASP253      0.1674
     37  C         -2.8670   66.8780   61.1130 C.2   253  ASP253      0.2266
     38  O         -3.1020   66.5180   59.9220 O.2   253  ASP253     -0.2867
     39  CB        -0.5480   66.9500   62.2560 C.3   253  ASP253      0.1410
     40  CG        -0.3570   65.5100   61.8640 C.2   253  ASP253      0.3668
     41  OD1       -1.3620   64.7830   61.7050 O.co2 253  ASP253     -0.2456
     42  OD2        0.8320   65.0730   61.8220 O.co2 253  ASP253     -0.2456
     43  N         -4.8970   66.0270   57.4350 N.3   257  ASP257     -0.1239
     44  CA        -5.3490   64.7750   56.7910 C.3   257  ASP257      0.1674
     45  C         -6.6980   65.0420   56.0770 C.2   257  ASP257      0.2266
     46  O         -6.9730   64.4500   55.0290 O.2   257  ASP257     -0.2867
     47  CB        -5.5510   63.6350   57.7930 C.3   257  ASP257      0.1410
     48  CG        -4.3000   63.3140   58.6180 C.2   257  ASP257      0.3668
     49  OD1       -3.1710   63.3100   58.0440 O.co2 257  ASP257     -0.2456
     50  OD2       -4.4700   63.0360   59.8740 O.co2 257  ASP257     -0.2456
     51  N         -5.5060   65.1160   52.2070 N.3   261  ASP261     -0.1239
     52  CA        -5.6870   63.7400   51.8270 C.3   261  ASP261      0.1674
     53  C         -7.1480   63.4860   51.5460 C.2   261  ASP261      0.2266
     54  O         -7.4780   62.5260   50.8230 O.2   261  ASP261     -0.2867
     55  CB        -5.1980   62.7640   52.9240 C.3   261  ASP261      0.1410
     56  CG        -3.7060   62.9470   53.2990 C.2   261  ASP261      0.3668
     57  OD1       -3.2260   64.1020   53.2630 O.co2 261  ASP261     -0.2456
     58  OD2       -3.0220   61.9310   53.6720 O.co2 261  ASP261     -0.2456
     59  N         -6.2940   57.3690   59.9070 N.3   481  ASP481     -0.1239
     60  CA        -5.2030   58.2080   60.3720 C.3   481  ASP481      0.1674
     61  C         -5.6220   59.1430   61.5350 C.2   481  ASP481      0.2266
     62  O         -5.0140   59.1100   62.5990 O.2   481  ASP481     -0.2867
     63  CB        -4.7050   59.0150   59.1800 C.3   481  ASP481      0.1410
     64  CG        -3.4480   59.7670   59.4540 C.2   481  ASP481      0.3668
     65  OD1       -2.8460   59.5730   60.5100 O.co2 481  ASP481     -0.2456
     66  OD2       -3.0630   60.5980   58.6130 O.co2 481  ASP481     -0.2456
     67  N         -4.2440   52.3940   59.8130 N.3   504  ASP504     -0.1239
     68  CA        -3.4820   53.4400   59.2050 C.3   504  ASP504      0.1674
     69  C         -2.3530   52.9200   58.2710 C.2   504  ASP504      0.2266
     70  O         -2.1040   53.5080   57.2210 O.2   504  ASP504     -0.2867
     71  CB        -2.8970   54.3640   60.3070 C.3   504  ASP504      0.1410
     72  CG        -2.2670   55.6150   59.7240 C.2   504  ASP504      0.3668
     73  OD1       -2.9800   56.3370   59.0280 O.co2 504  ASP504     -0.2456
     74  OD2       -1.0620   55.8660   59.8840 O.co2 504  ASP504     -0.2456
     75  N         -2.0810   53.7980   54.1910 N.3   508  ASN508     -0.1240
     76  CA        -0.9050   54.2900   53.4880 C.3   508  ASN508      0.1653
     77  C         -0.7680   53.6220   52.1340 C.2   508  ASN508      0.2266
     78  O         -0.4030   54.2910   51.1200 O.2   508  ASN508     -0.2867
     79  CB         0.3670   54.0740   54.2860 C.3   508  ASN508      0.1155
     80  CG         0.4630   54.9960   55.5470 C.2   508  ASN508      0.2627
     81  OD1       -0.2190   56.0210   55.6340 O.2   508  ASN508     -0.2716
     82  ND2        1.3240   54.6150   56.5280 N.am  508  ASN508     -0.0877
     83  N          6.7310   55.9050   54.7180 N.3   665  ASP665     -0.1239
     84  CA         5.7080   55.9270   55.7720 C.3   665  ASP665      0.1674
     85  C          5.5730   54.4830   56.3450 C.2   665  ASP665      0.2266
     86  O          5.7570   54.2650   57.5560 O.2   665  ASP665     -0.2867
     87  CB         4.3920   56.5150   55.2620 C.3   665  ASP665      0.1410
     88  CG         3.4010   56.8620   56.3840 C.2   665  ASP665      0.3668
     89  OD1        3.6440   56.5620   57.5840 O.co2 665  ASP665     -0.2456
     90  OD2        2.3510   57.4910   56.0930 O.co2 665  ASP665     -0.2456
     91  N          8.4300   53.0390   58.3570 N.3   668  LYS668     -0.1245
     92  CA         8.3200   53.6100   59.6700 C.3   668  LYS668      0.1561
     93  C          7.2730   52.8320   60.4190 C.2   668  LYS668      0.2260
     94  O          7.5180   52.4250   61.5090 O.2   668  LYS668     -0.2867
     95  CB         7.9250   55.1020   59.5700 C.3   668  LYS668      0.0271
     96  CG         7.6430   55.7610   60.8910 C.3   668  LYS668      0.0035
     97  CD         6.6200   56.8500   60.7910 C.3   668  LYS668      0.0206
     98  CE         5.4490   56.5090   59.8890 C.3   668  LYS668      0.1093
     99  NZ         4.3360   57.5800   59.8770 N.3   668  LYS668     -0.1314
    100  N         10.3440   59.2630   56.4030 N.3   697  ASP697     -0.1239
    101  CA         8.8830   59.5080   56.2980 C.3   697  ASP697      0.1674
    102  C          8.5430   60.9950   56.0640 C.2   697  ASP697      0.2266
    103  O          7.6780   61.2890   55.2340 O.2   697  ASP697     -0.2867
    104  CB         8.1880   59.0050   57.5470 C.3   697  ASP697      0.1410
    105  CG         6.6990   59.2590   57.5500 C.2   697  ASP697      0.3668
    106  OD1        6.0150   59.0340   56.4840 O.co2 697  ASP697     -0.2456
    107  OD2        6.2140   59.6700   58.6630 O.co2 697  ASP697     -0.2456
    108  N          6.8420   63.1090   53.0210 N.3   701  ASP701     -0.1239
    109  CA         5.5710   63.7920   53.2430 C.3   701  ASP701      0.1674
    110  C          5.2430   64.7610   52.0620 C.2   701  ASP701      0.2266
    111  O          4.2170   64.5790   51.4360 O.2   701  ASP701     -0.2867
    112  CB         5.5650   64.5040   54.5990 C.3   701  ASP701      0.1410
    113  CG         5.1820   63.5720   55.7410 C.2   701  ASP701      0.3668
    114  OD1        4.3330   62.7070   55.5260 O.co2 701  ASP701     -0.2456
    115  OD2        5.7250   63.6750   56.8680 O.co2 701  ASP701     -0.2456
    116  N          4.8080   62.7880   48.6160 N.3   704  LYS704     -0.1231
    117  CA         3.6720   61.9800   48.3400 C.3   704  LYS704      0.1693
    118  C          2.4050   62.7300   48.5500 C.2   704  LYS704      0.2592
    119  O          1.3440   62.2990   48.0650 O.2   704  LYS704     -0.2718
    120  CB         3.7060   60.6500   49.1720 C.3   704  LYS704      0.0285
    121  CG         3.3500   60.8350   50.6470 C.3   704  LYS704      0.0035
    122  CD         3.3460   59.5460   51.3930 C.3   704  LYS704      0.0206
    123  CE         2.5800   59.7130   52.6970 C.3   704  LYS704      0.1093
    124  NZ         3.2140   60.6190   53.6610 N.3   704  LYS704     -0.1314
    125  N          2.4350   63.8230   49.3200 N.am  705  ASP705     -0.1974
    126  CA         1.1320   64.4420   49.6520 C.3   705  ASP705      0.1709
    127  C          0.9830   65.8540   49.0940 C.2   705  ASP705      0.2293
    128  O         -0.0700   66.4670   49.2520 O.2   705  ASP705     -0.2864
    129  CB         0.9380   64.5060   51.1610 C.3   705  ASP705      0.1436
    130  CG         0.6340   63.1670   51.7670 C.2   705  ASP705      0.3671
    131  OD1       -0.3500   62.5420   51.3200 O.co2 705  ASP705     -0.2456
    132  OD2        1.3570   62.7520   52.7080 O.co2 705  ASP705     -0.2456
@<TRIPOS>BOND
     1   119   118    2
     2   117   118    1
     3   117   116    1
     4   117   120    1
     5   118   125   am
     6   127   128    2
     7   127   126    1
     8   120   121    1
     9   125   126    1
    10   126   129    1
    11   121   122    1
    12    54    53    2
    13    78    77    2
    14   129   130    1
    15   131   130   ar
    16   122   123    1
    17   111   110    2
    18    53    52    1
    19   130   132   ar
    20    52    51    1
    21    52    55    1
    22   110   109    1
    23    77    76    1
    24   123   124    1
    25    55    56    1
    26   108   109    1
    27   109   112    1
    28    57    56   ar
    29    56    58   ar
    30     6     7    1
    31     6     5    1
    32    76    75    1
    33    76    79    1
    34     7     8    1
    35     5     2    1
    36    79    80    1
    37   112   113    1
    38    83    84    1
    39     8     9    1
    40    46    45    2
    41     1     2    1
    42   103   102    2
    43    87    84    1
    44    87    88    1
    45     2     3    1
    46   114   113   ar
    47    80    81    2
    48    80    82   am
    49   113   115   ar
    50    84    85    1
    51   102   101    1
    52    45    44    1
    53    90    88   ar
    54     3     4    2
    55   101   100    1
    56   101   104    1
    57    85    86    2
    58    88    89   ar
    59   106   105   ar
    60    44    43    1
    61    44    47    1
    62    70    69    2
    63   104   105    1
    64   105   107   ar
    65    17    15   ar
    66    47    48    1
    67    49    48   ar
    68    69    68    1
    69    91    92    1
    70    14    15    1
    71    14    11    1
    72    15    16   ar
    73    66    64   ar
    74    48    50   ar
    75    73    72   ar
    76    63    64    1
    77    63    60    1
    78    68    67    1
    79    68    71    1
    80    64    65   ar
    81    95    92    1
    82    95    96    1
    83    92    93    1
    84    10    11    1
    85    72    74   ar
    86    72    71    1
    87    11    12    1
    88    99    98    1
    89    98    97    1
    90    59    60    1
    91    38    37    2
    92    12    13    2
    93    60    61    1
    94    93    94    2
    95    97    96    1
    96    37    36    1
    97    25    23   ar
    98    36    35    1
    99    36    39    1
   100    61    62    2
   101    41    40   ar
   102    42    40   ar
   103    40    39    1
   104    23    22    1
   105    23    24   ar
   106    22    19    1
   107    33    32   ar
   108    34    32   ar
   109    18    19    1
   110    19    20    1
   111    32    31    1
   112    20    21    2
   113    31    30    1
   114    30    27    1
   115    27    28    1
   116    27    26    1
   117    28    29    2
