@<TRIPOS>MOLECULE
tmp/4a05A01.pdb
 173 165 0 0 0
SMALL
GASTEIGER

@<TRIPOS>ATOM
      1  N         14.4700  -10.3070   18.3850 N.3    16  TYR16      -0.1241
      2  CA        15.4440  -10.1670   17.3300 C.3    16  TYR16       0.1605
      3  C         16.4930   -9.1260   17.6760 C.2    16  TYR16       0.2264
      4  O         17.6760   -9.3570   17.4450 O.2    16  TYR16      -0.2867
      5  CB        14.7360   -9.9220   16.0000 C.3    16  TYR16       0.0534
      6  CG        13.6960  -11.0030   15.7680 C.ar   16  TYR16      -0.0201
      7  CD1       14.0850  -12.3070   15.4260 C.ar   16  TYR16      -0.0009
      8  CD2       12.3350  -10.7470   15.9580 C.ar   16  TYR16      -0.0009
      9  CE1       13.1430  -13.3130   15.2360 C.ar   16  TYR16       0.0417
     10  CE2       11.3850  -11.7460   15.7710 C.ar   16  TYR16       0.0417
     11  CZ        11.7930  -13.0280   15.4090 C.ar   16  TYR16       0.1957
     12  OH        10.8520  -14.0230   15.2150 O.3    16  TYR16      -0.2866
     13  N         20.4730  -10.0300   18.4300 N.3    20  GLU20      -0.1245
     14  CA        21.5560   -9.2510   17.8180 C.3    20  GLU20       0.1567
     15  C         22.5690   -8.7920   18.8660 C.2    20  GLU20       0.2260
     16  O         23.7730   -8.9720   18.6990 O.2    20  GLU20      -0.2867
     17  CB        21.0060   -7.9930   17.1310 C.3    20  GLU20       0.0388
     18  CG        20.3280   -8.2050   15.8210 C.3    20  GLU20       0.1160
     19  CD        19.9860   -6.8740   15.1630 C.2    20  GLU20       0.3649
     20  OE1       19.2740   -6.0570   15.7940 O.co2  20  GLU20      -0.2457
     21  OE2       20.4720   -6.6410   14.0390 O.co2  20  GLU20      -0.2457
     22  N          9.9890   -2.9390   16.0260 N.3    47  GLN47      -0.1231
     23  CA        10.4720   -3.9850   15.1340 C.3    47  GLN47       0.1698
     24  C         10.0480   -3.6180   13.7190 C.2    47  GLN47       0.2592
     25  O          8.8690   -3.3790   13.4580 O.2    47  GLN47      -0.2718
     26  CB         9.8960   -5.3510   15.5420 C.3    47  GLN47       0.0381
     27  CG        10.3120   -6.5120   14.6280 C.3    47  GLN47       0.0905
     28  CD         9.7170   -7.8630   15.0310 C.2    47  GLN47       0.2608
     29  OE1        9.4630   -8.7250   14.1780 O.2    47  GLN47      -0.2717
     30  NE2        9.5040   -8.0590   16.2980 N.am   47  GLN47      -0.0878
     31  N         11.0090   -3.5590   12.8100 N.am   48  TRP48      -0.1976
     32  CA        10.7450   -3.0520   11.4670 C.3    48  TRP48       0.1640
     33  C         10.3740   -4.1530   10.4930 C.2    48  TRP48       0.2290
     34  O         11.0950   -5.1380   10.3470 O.2    48  TRP48      -0.2864
     35  CB        11.9720   -2.3150   10.9390 C.3    48  TRP48       0.0576
     36  CG        12.2560   -1.0150   11.6540 C.ar   48  TRP48       0.0006
     37  CD1       12.4650   -0.8380   12.9910 C.ar   48  TRP48       0.0946
     38  CD2       12.3760    0.2830   11.0530 C.ar   48  TRP48       0.0152
     39  NE1       12.7080    0.4830   13.2620 N.ar   48  TRP48      -0.2442
     40  CE2       12.6720    1.1940   12.0900 C.ar   48  TRP48       0.0810
     41  CE3       12.2870    0.7580    9.7390 C.ar   48  TRP48       0.0012
     42  CZ2       12.8470    2.5660   11.8580 C.ar   48  TRP48       0.0191
     43  CZ3       12.4610    2.1290    9.5040 C.ar   48  TRP48       0.0001
     44  CH2       12.7430    3.0110   10.5580 C.ar   48  TRP48       0.0015
     45  N         10.7720   -4.4300    7.2890 N.3    50  ASP50      -0.1225
     46  CA        11.5090   -3.7690    6.2020 C.3    50  ASP50       0.1805
     47  C         11.5880   -4.6090    4.9290 C.2    50  ASP50       0.2597
     48  O         12.0310   -4.1250    3.8940 O.2    50  ASP50      -0.2718
     49  CB        12.9130   -3.3800    6.6610 C.3    50  ASP50       0.1424
     50  CG        13.8100   -4.5910    6.8650 C.2    50  ASP50       0.3668
     51  OD1       13.4180   -5.5120    7.6190 O.co2  50  ASP50      -0.2456
     52  OD2       14.9010   -4.6170    6.2570 O.co2  50  ASP50      -0.2456
     53  N         11.1600   -5.8660    5.0260 N.am   51  ARG51      -0.1979
     54  CA        11.1460   -6.7830    3.8920 C.3    51  ARG51       0.1597
     55  C          9.8750   -7.5980    3.9790 C.2    51  ARG51       0.2287
     56  O          9.3560   -7.8560    5.0720 O.2    51  ARG51      -0.2864
     57  CB        12.3420   -7.7410    3.9370 C.3    51  ARG51       0.0334
     58  CG        13.7100   -7.1050    3.7480 C.3    51  ARG51       0.0492
     59  CD        14.7640   -7.9630    4.3950 C.3    51  ARG51       0.2205
     60  NE        14.6480   -7.9340    5.8520 N.pl3  51  ARG51      -0.0865
     61  CZ        14.7990   -8.9900    6.6420 C.cat  51  ARG51       0.5346
     62  NH1       15.0510  -10.1900    6.1200 N.pl3  51  ARG51       0.1354
     63  NH2       14.6860   -8.8460    7.9590 N.pl3  51  ARG51       0.1354
     64  N          9.2070  -12.9810   11.1930 N.3    58  LEU58      -0.1245
     65  CA         9.4970  -12.1970   12.4010 C.3    58  LEU58       0.1561
     66  C          8.2630  -11.5040   13.0140 C.2    58  LEU58       0.2260
     67  O          8.1310  -11.4460   14.2370 O.2    58  LEU58      -0.2867
     68  CB        10.6100  -11.1740   12.1220 C.3    58  LEU58       0.0270
     69  CG        11.8260  -11.6190   11.2810 C.3    58  LEU58       0.0019
     70  CD1       12.8910  -10.5370   11.2040 C.3    58  LEU58       0.0001
     71  CD2       12.4350  -12.9260   11.7900 C.3    58  LEU58       0.0001
     72  N          7.5290   -0.4930    6.6660 N.3    85  TYR85      -0.1241
     73  CA         8.6130    0.1510    5.9270 C.3    85  TYR85       0.1605
     74  C          9.0220   -0.6280    4.6660 C.2    85  TYR85       0.2264
     75  O         10.1270   -1.1710    4.5730 O.2    85  TYR85      -0.2867
     76  CB         9.8180    0.3640    6.8520 C.3    85  TYR85       0.0534
     77  CG        10.9220    1.2190    6.2630 C.ar   85  TYR85      -0.0201
     78  CD1       10.6940    2.5570    5.9090 C.ar   85  TYR85      -0.0009
     79  CD2       12.2030    0.7010    6.0930 C.ar   85  TYR85      -0.0009
     80  CE1       11.7200    3.3480    5.3790 C.ar   85  TYR85       0.0417
     81  CE2       13.2340    1.4870    5.5640 C.ar   85  TYR85       0.0417
     82  CZ        12.9840    2.7950    5.2070 C.ar   85  TYR85       0.1957
     83  OH        14.0140    3.5460    4.6930 O.3    85  TYR85      -0.2866
     84  N         11.2810    2.8500   -2.2910 N.3    90  ARG90      -0.1245
     85  CA        11.5010    3.3330   -0.9260 C.3    90  ARG90       0.1563
     86  C         12.7020    4.2760   -0.8610 C.2    90  ARG90       0.2260
     87  O         13.5980    4.1810   -1.7000 O.2    90  ARG90      -0.2867
     88  CB        11.7500    2.1300   -0.0070 C.3    90  ARG90       0.0307
     89  CG        11.6320    2.4170    1.4880 C.3    90  ARG90       0.0489
     90  CD        11.7470    1.1240    2.2710 C.3    90  ARG90       0.2205
     91  NE        13.0970    0.5590    2.2030 N.pl3  90  ARG90      -0.0865
     92  CZ        13.4470   -0.6350    2.6870 C.cat  90  ARG90       0.5346
     93  NH1       12.5480   -1.4140    3.2790 N.pl3  90  ARG90       0.1354
     94  NH2       14.7010   -1.0550    2.5680 N.pl3  90  ARG90       0.1354
     95  N         18.8810    3.1120    1.8140 N.3    97  SER97      -0.1217
     96  CA        17.7920    2.2300    2.2260 C.3    97  SER97       0.1889
     97  C         16.8050    1.9000    1.1150 C.2    97  SER97       0.2288
     98  O         15.6440    1.5930    1.3910 O.2    97  SER97      -0.2866
     99  CB        17.0720    2.7970    3.4530 C.3    97  SER97       0.2089
    100  OG        17.8800    2.6130    4.6080 O.3    97  SER97      -0.2183
    101  N         14.6820    7.5210   13.3900 N.3   220  ALA220     -0.1245
    102  CA        16.0520    7.3670   12.9070 C.3   220  ALA220      0.1562
    103  C         16.8310    8.6810   12.8820 C.2   220  ALA220      0.2260
    104  O         17.8550    8.8060   12.1860 O.2   220  ALA220     -0.2867
    105  CB        16.0910    6.6450   11.5300 C.3   220  ALA220      0.0290
    106  N         14.0130    3.6960   15.6850 N.3   310  LYS310     -0.1231
    107  CA        15.2390    3.1990   15.0590 C.3   310  LYS310      0.1678
    108  C         16.0180    2.3960   16.1080 C.2   310  LYS310      0.2434
    109  O         16.3360    2.9100   17.1750 O.2   310  LYS310     -0.2733
    110  CB        16.0900    4.3540   14.5170 C.3   310  LYS310      0.0284
    111  CG        17.4840    3.9830   14.0010 C.3   310  LYS310      0.0035
    112  CD        17.4570    3.2800   12.6460 C.3   310  LYS310      0.0206
    113  CE        18.8260    2.6580   12.3650 C.3   310  LYS310      0.1093
    114  NZ        18.9370    2.0980   11.0280 N.3   310  LYS310     -0.1314
    115  N         16.2900    1.1200   15.8210 N.am  311  PRO311     -0.2729
    116  CA        17.0530    0.3370   16.8110 C.3   311  PRO311      0.1401
    117  C         18.5360    0.7120   16.7560 C.2   311  PRO311      0.2269
    118  O         19.1920    0.4920   15.7310 O.2   311  PRO311     -0.2865
    119  CB        16.8290   -1.1130   16.3650 C.3   311  PRO311      0.0296
    120  CG        15.6970   -1.0640   15.3200 C.3   311  PRO311      0.0237
    121  CD        15.8590    0.2960   14.6840 C.3   311  PRO311      0.0939
    122  N         21.8540   -0.7170   14.5520 N.3   314  GLU314     -0.1231
    123  CA        21.5750   -1.1140   13.1730 C.3   314  GLU314      0.1699
    124  C         21.9190    0.0850   12.2970 C.2   314  GLU314      0.2593
    125  O         21.4900    1.1980   12.5720 O.2   314  GLU314     -0.2718
    126  CB        20.1220   -1.5720   12.9840 C.3   314  GLU314      0.0402
    127  CG        19.8240   -2.9100   13.6770 C.3   314  GLU314      0.1161
    128  CD        18.3720   -3.3510   13.5910 C.2   314  GLU314      0.3649
    129  OE1       17.5720   -2.7510   12.8420 O.co2 314  GLU314     -0.2457
    130  OE2       18.0300   -4.3270   14.2800 O.co2 314  GLU314     -0.2457
    131  N         22.7140   -0.1710   11.2650 N.am  315  SER315     -0.1938
    132  CA        23.2800    0.8620   10.4120 C.3   315  SER315      0.2055
    133  C         22.2070    1.6060    9.6110 C.2   315  SER315      0.2643
    134  O         21.1420    1.0520    9.3140 O.2   315  SER315     -0.2714
    135  CB        24.2990    0.2300    9.4570 C.3   315  SER315      0.2130
    136  OG        24.8380    1.2070    8.5740 O.3   315  SER315     -0.2179
    137  N         22.5090    2.8610    9.2760 N.am  316  ASP316     -0.1971
    138  CA        21.6640    3.6890    8.4180 C.3   316  ASP316      0.1709
    139  C         22.0870    3.5650    6.9740 C.2   316  ASP316      0.2293
    140  O         21.3980    4.0440    6.0740 O.2   316  ASP316     -0.2864
    141  CB        21.7870    5.1600    8.8110 C.3   316  ASP316      0.1436
    142  CG        21.2110    5.4490   10.1730 C.2   316  ASP316      0.3671
    143  OD1       20.1470    4.8880   10.4900 O.co2 316  ASP316     -0.2456
    144  OD2       21.8170    6.2440   10.9200 O.co2 316  ASP316     -0.2456
    145  N         24.0620    0.5110   -2.9070 N.3   325  ARG325     -0.1245
    146  CA        23.3200    1.4180   -2.0300 C.3   325  ARG325      0.1563
    147  C         24.2150    2.4570   -1.3560 C.2   325  ARG325      0.2260
    148  O         23.8400    3.0130   -0.3310 O.2   325  ARG325     -0.2867
    149  CB        22.5510    0.6320   -0.9630 C.3   325  ARG325      0.0307
    150  CG        21.5230   -0.3390   -1.5300 C.3   325  ARG325      0.0489
    151  CD        20.3890   -0.5920   -0.5450 C.3   325  ARG325      0.2205
    152  NE        20.8450   -1.1480    0.7260 N.pl3 325  ARG325     -0.0865
    153  CZ        20.0310   -1.4610    1.7330 C.cat 325  ARG325      0.5346
    154  NH1       18.7200   -1.2900    1.6030 N.pl3 325  ARG325      0.1354
    155  NH2       20.5210   -1.9440    2.8700 N.pl3 325  ARG325      0.1354
    156  N         22.6450   -0.6950    5.4310 N.3   342  ALA342     -0.1231
    157  CA        21.5340   -0.2470    6.2730 C.3   342  ALA342      0.1694
    158  C         20.8090   -1.4580    6.8560 C.2   342  ALA342      0.2593
    159  O         20.5480   -2.4290    6.1450 O.2   342  ALA342     -0.2718
    160  CB        20.5690    0.5990    5.4680 C.3   342  ALA342      0.0304
    161  N         20.5020   -1.3930    8.1450 N.am  343  GLY343     -0.1942
    162  CA        19.8070   -2.4810    8.8240 C.3   343  GLY343      0.2014
    163  C         20.7280   -3.5170    9.4460 C.2   343  GLY343      0.2638
    164  O         20.3570   -4.1480   10.4360 O.2   343  GLY343     -0.2714
    165  N         21.9150   -3.6970    8.8590 N.am  344  GLN344     -0.1977
    166  CA        22.9210   -4.6420    9.3750 C.3   344  GLN344      0.1601
    167  C         23.5540   -4.1380   10.6590 C.2   344  GLN344      0.2287
    168  O         23.6870   -2.9260   10.8550 O.2   344  GLN344     -0.2864
    169  CB        24.0170   -4.9150    8.3380 C.3   344  GLN344      0.0394
    170  CG        23.5290   -5.6280    7.0880 C.3   344  GLN344      0.0908
    171  CD        22.7440   -6.8740    7.4220 C.2   344  GLN344      0.2608
    172  OE1       23.1890   -7.7000    8.2160 O.2   344  GLN344     -0.2717
    173  NE2       21.5660   -7.0120    6.8320 N.am  344  GLN344     -0.0878
@<TRIPOS>BOND
     1   145   146    1
     2    84    85    1
     3   146   147    1
     4   146   149    1
     5    87    86    2
     6   150   149    1
     7   150   151    1
     8   147   148    2
     9    85    86    1
    10    85    88    1
    11   151   152    1
    12    88    89    1
    13   152   153    2
    14    97    98    2
    15    97    96    1
    16    89    90    1
    17   154   153    1
    18   153   155    1
    19    95    96    1
    20    91    90    1
    21    91    92    2
    22    96    99    1
    23    94    92    1
    24    92    93    1
    25    99   100    1
    26    58    57    1
    27    58    59    1
    28    54    57    1
    29    54    55    1
    30    54    53    1
    31    48    47    2
    32    55    56    2
    33    59    60    1
    34    75    74    2
    35    74    73    1
    36    83    82    1
    37    47    53   am
    38    47    46    1
    39    82    80   ar
    40    82    81   ar
    41    80    78   ar
    42   156   157    1
    43   160   157    1
    44    81    79   ar
    45    60    61    2
    46    78    77   ar
    47    73    72    1
    48    73    76    1
    49   140   139    2
    50    79    77   ar
    51    62    61    1
    52   159   158    2
    53    46    49    1
    54    46    45    1
    55    52    50   ar
    56    77    76    1
    57   157   158    1
    58    61    63    1
    59    49    50    1
    60   173   171   am
    61   158   161   am
    62    50    51   ar
    63   139   138    1
    64   170   171    1
    65   170   169    1
    66   171   172    2
    67   161   162    1
    68   169   166    1
    69   138   141    1
    70   138   137    1
    71   136   135    1
    72   141   142    1
    73   162   163    1
    74   165   166    1
    75   165   163   am
    76   137   133   am
    77   134   133    2
    78   166   167    1
    79   163   164    2
    80   135   132    1
    81    43    41   ar
    82    43    44   ar
    83   133   132    1
    84    41    38   ar
    85   142   143   ar
    86   142   144   ar
    87    34    33    2
    88   132   131    1
    89    33    32    1
    90    44    42   ar
    91   167   168    2
    92    35    32    1
    93    35    36    1
    94   114   113    1
    95    38    36   ar
    96    38    40   ar
    97    64    65    1
    98    70    69    1
    99   131   124   am
   100    69    71    1
   101    69    68    1
   102    32    31    1
   103   105   102    1
   104    36    37   ar
   105    42    40   ar
   106    40    39   ar
   107    68    65    1
   108   104   103    2
   109   124   125    2
   110   124   123    1
   111   113   112    1
   112    65    66    1
   113   112   111    1
   114    31    24   am
   115   129   128   ar
   116   103   102    1
   117   102   101    1
   118   126   123    1
   119   126   127    1
   120    37    39   ar
   121    66    67    2
   122   123   122    1
   123    25    24    2
   124   128   127    1
   125   128   130   ar
   126    24    23    1
   127   111   110    1
   128    21    19   ar
   129    29    28    2
   130   110   107    1
   131    27    28    1
   132    27    26    1
   133   121   120    1
   134   121   115    1
   135    28    30   am
   136   107   106    1
   137   107   108    1
   138    23    26    1
   139    23    22    1
   140    19    20   ar
   141    19    18    1
   142    12    11    1
   143     9    11   ar
   144     9     7   ar
   145   120   119    1
   146    11    10   ar
   147     7     6   ar
   148   118   117    2
   149     6     8   ar
   150     6     5    1
   151    10     8   ar
   152    18    17    1
   153   115   108   am
   154   115   116    1
   155     5     2    1
   156   108   109    2
   157   119   116    1
   158   117   116    1
   159    17    14    1
   160     2     3    1
   161     2     1    1
   162     4     3    2
   163    14    13    1
   164    14    15    1
   165    16    15    2
