@<TRIPOS>MOLECULE
tmp/4a05A00.pdb
 95 91 0 0 0
SMALL
GASTEIGER

@<TRIPOS>ATOM
      1  N          9.3690   -8.0050    2.8280 N.3    52  ASN52      -0.1225
      2  CA         8.1470   -8.7760    2.7900 C.3    52  ASN52       0.1785
      3  C          8.2890  -10.0980    3.5630 C.2    52  ASN52       0.2597
      4  O          7.3480  -10.5380    4.2310 O.2    52  ASN52      -0.2718
      5  CB         7.7150   -8.9940    1.3430 C.3    52  ASN52       0.1169
      6  CG         6.4090   -9.7300    1.2300 C.2    52  ASN52       0.2627
      7  OD1        5.3690   -9.2960    1.7570 O.2    52  ASN52      -0.2716
      8  ND2        6.4460  -10.8580    0.5260 N.am   52  ASN52      -0.0877
      9  N          9.4780  -10.6980    3.5090 N.am   53  VAL53      -0.1980
     10  CA         9.7480  -11.9430    4.2300 C.3    53  VAL53       0.1595
     11  C          9.4540  -11.8500    5.7400 C.2    53  VAL53       0.2287
     12  O          9.1020  -12.8540    6.3670 O.2    53  VAL53      -0.2864
     13  CB        11.1830  -12.4780    3.9530 C.3    53  VAL53       0.0276
     14  CG1       12.2350  -11.6620    4.6880 C.3    53  VAL53       0.0022
     15  CG2       11.2950  -13.9630    4.3310 C.3    53  VAL53       0.0022
     16  N          6.9480  -10.5590    7.3220 N.3    55  VAL55      -0.1231
     17  CA         5.5310  -10.5940    7.7020 C.3    55  VAL55       0.1692
     18  C          5.1020  -11.9490    8.2890 C.2    55  VAL55       0.2592
     19  O          4.5460  -12.0090    9.3980 O.2    55  VAL55      -0.2718
     20  CB         4.6130  -10.1590    6.5350 C.3    55  VAL55       0.0266
     21  CG1        3.1450  -10.3260    6.9030 C.3    55  VAL55       0.0020
     22  CG2        4.9020   -8.6930    6.1580 C.3    55  VAL55       0.0020
     23  N          5.3930  -13.0230    7.5580 N.am   56  ASP56      -0.1974
     24  CA         5.0740  -14.3750    8.0040 C.3    56  ASP56       0.1709
     25  C          6.2370  -15.0870    8.7080 C.2    56  ASP56       0.2293
     26  O          6.2150  -16.3030    8.8840 O.2    56  ASP56      -0.2864
     27  CB         4.5200  -15.2020    6.8400 C.3    56  ASP56       0.1436
     28  CG         3.0240  -15.0460    6.6940 C.2    56  ASP56       0.3671
     29  OD1        2.2970  -15.3610    7.6680 O.co2  56  ASP56      -0.2456
     30  OD2        2.5630  -14.5940    5.6220 O.co2  56  ASP56      -0.2456
     31  N         11.3480   -3.6670   -3.5820 N.3   101  TRP101     -0.1241
     32  CA        10.3680   -3.4800   -4.6290 C.3   101  TRP101      0.1605
     33  C         10.5040   -2.1520   -5.3600 C.2   101  TRP101      0.2264
     34  O         10.9020   -1.1390   -4.7800 O.2   101  TRP101     -0.2867
     35  CB         8.9540   -3.6240   -4.0730 C.3   101  TRP101      0.0550
     36  CG         8.6180   -5.0030   -3.5920 C.ar  101  TRP101      0.0003
     37  CD1        9.1060   -6.1940   -4.0700 C.ar  101  TRP101      0.0946
     38  CD2        7.7030   -5.3360   -2.5450 C.ar  101  TRP101      0.0152
     39  NE1        8.5490   -7.2440   -3.3730 N.ar  101  TRP101     -0.2442
     40  CE2        7.6810   -6.7450   -2.4390 C.ar  101  TRP101      0.0810
     41  CE3        6.8910   -4.5790   -1.6890 C.ar  101  TRP101      0.0012
     42  CZ2        6.8790   -7.4120   -1.5090 C.ar  101  TRP101      0.0191
     43  CZ3        6.0980   -5.2380   -0.7670 C.ar  101  TRP101      0.0001
     44  CH2        6.0990   -6.6430   -0.6810 C.ar  101  TRP101      0.0015
     45  N          2.5550   -5.4890   -5.1190 N.3   110  ASN110     -0.1240
     46  CA         3.3000   -6.2200   -4.1020 C.3   110  ASN110      0.1653
     47  C          3.0360   -5.6480   -2.7120 C.2   110  ASN110      0.2266
     48  O          2.8040   -6.3950   -1.7590 O.2   110  ASN110     -0.2867
     49  CB         4.7920   -6.1880   -4.3980 C.3   110  ASN110      0.1155
     50  CG         5.1790   -7.0360   -5.6200 C.2   110  ASN110      0.2627
     51  OD1        4.4070   -7.8790   -6.0910 O.2   110  ASN110     -0.2716
     52  ND2        6.3870   -6.8100   -6.1210 N.am  110  ASN110     -0.0877
     53  N         -0.5970   -6.3660   -1.3170 N.3   113  ARG113     -0.1231
     54  CA        -0.7030   -7.7120   -0.7550 C.3   113  ARG113      0.1694
     55  C          0.0140   -7.8070    0.5830 C.2   113  ARG113      0.2592
     56  O         -0.4520   -8.4920    1.4920 O.2   113  ARG113     -0.2718
     57  CB        -0.1380   -8.7710   -1.7220 C.3   113  ARG113      0.0321
     58  CG        -0.6620   -8.6930   -3.1590 C.3   113  ARG113      0.0489
     59  CD        -2.1110   -9.1430   -3.3070 C.3   113  ARG113      0.2205
     60  NE        -3.0880   -8.1450   -2.8520 N.pl3 113  ARG113     -0.0865
     61  CZ        -3.5000   -7.1010   -3.5690 C.cat 113  ARG113      0.5346
     62  NH1       -3.0140   -6.8790   -4.7900 N.pl3 113  ARG113      0.1354
     63  NH2       -4.4010   -6.2710   -3.0630 N.pl3 113  ARG113      0.1354
     64  N          1.1510   -7.1270    0.6830 N.am  114  TYR114     -0.1976
     65  CA         1.9440   -7.0540    1.9190 C.3   114  TYR114      0.1639
     66  C          1.0620   -6.4520    3.0270 C.2   114  TYR114      0.2290
     67  O          0.8840   -7.0430    4.1000 O.2   114  TYR114     -0.2864
     68  CB         3.2420   -6.2800    1.5990 C.3   114  TYR114      0.0560
     69  CG         3.9800   -5.5450    2.6950 C.ar  114  TYR114     -0.0198
     70  CD1        4.9970   -6.1710    3.4350 C.ar  114  TYR114     -0.0009
     71  CD2        3.7200   -4.1930    2.9390 C.ar  114  TYR114     -0.0009
     72  CE1        5.7000   -5.4680    4.4310 C.ar  114  TYR114      0.0417
     73  CE2        4.4090   -3.4870    3.9170 C.ar  114  TYR114      0.0417
     74  CZ         5.4000   -4.1240    4.6580 C.ar  114  TYR114      0.1957
     75  OH         6.0720   -3.4150    5.6300 O.3   114  TYR114     -0.2866
     76  N         -1.8580   -8.8770    3.9510 N.3   117  ARG117     -0.1245
     77  CA        -1.4200   -9.9710    4.8130 C.3   117  ARG117      0.1563
     78  C         -1.1690   -9.4560    6.2200 C.2   117  ARG117      0.2260
     79  O         -1.5640  -10.0980    7.1960 O.2   117  ARG117     -0.2867
     80  CB        -0.1800  -10.6520    4.2280 C.3   117  ARG117      0.0307
     81  CG         0.3500  -11.8250    5.0440 C.3   117  ARG117      0.0489
     82  CD        -0.7380  -12.8670    5.3220 C.3   117  ARG117      0.2205
     83  NE        -0.2440  -13.8680    6.2630 N.pl3 117  ARG117     -0.0865
     84  CZ        -1.0120  -14.6170    7.0420 C.cat 117  ARG117      0.5346
     85  NH1       -2.3320  -14.5050    6.9930 N.pl3 117  ARG117      0.1354
     86  NH2       -0.4540  -15.4780    7.8770 N.pl3 117  ARG117      0.1354
     87  N         -4.4890   -9.2950    7.8760 N.3   120  GLU120     -0.1245
     88  CA        -4.9270  -10.6310    8.2780 C.3   120  GLU120      0.1567
     89  C         -4.3240  -11.0340    9.6260 C.2   120  GLU120      0.2260
     90  O         -5.0380  -11.5030   10.5100 O.2   120  GLU120     -0.2867
     91  CB        -4.5650  -11.6680    7.2140 C.3   120  GLU120      0.0388
     92  CG        -5.4560  -11.6410    5.9790 C.3   120  GLU120      0.1160
     93  CD        -5.0640  -12.6900    4.9410 C.2   120  GLU120      0.3649
     94  OE1       -4.0620  -13.4110    5.1440 O.co2 120  GLU120     -0.2457
     95  OE2       -5.7560  -12.7900    3.9060 O.co2 120  GLU120     -0.2457
@<TRIPOS>BOND
     1    52    50   am
     2    51    50    2
     3    50    49    1
     4    33    34    2
     5    33    32    1
     6    45    46    1
     7    62    61    1
     8    32    35    1
     9    32    31    1
    10    49    46    1
    11    46    47    1
    12    35    36    1
    13    37    36   ar
    14    37    39   ar
    15    36    38   ar
    16    61    63    1
    17    61    60    2
    18    39    40   ar
    19    59    58    1
    20    59    60    1
    21    58    57    1
    22    47    48    2
    23    38    40   ar
    24    38    41   ar
    25    40    42   ar
    26    57    54    1
    27    41    43   ar
    28    42    44   ar
    29    53    54    1
    30    43    44   ar
    31    54    55    1
    32     8     6   am
    33    55    64   am
    34    55    56    2
    35    64    65    1
    36     6     5    1
    37     6     7    2
    38     5     2    1
    39    68    65    1
    40    68    69    1
    41    65    66    1
    42    69    71   ar
    43    69    70   ar
    44     2     1    1
    45     2     3    1
    46    71    73   ar
    47    66    67    2
    48    70    72   ar
    49     9     3   am
    50     9    10    1
    51     3     4    2
    52    95    93   ar
    53    73    74   ar
    54    76    77    1
    55    13    10    1
    56    13    15    1
    57    13    14    1
    58    80    77    1
    59    80    81    1
    60    10    11    1
    61    72    74   ar
    62    74    75    1
    63    77    78    1
    64    93    94   ar
    65    93    92    1
    66    81    82    1
    67    82    83    1
    68    30    28   ar
    69    11    12    2
    70    92    91    1
    71    22    20    1
    72    78    79    2
    73    83    84    2
    74    20    21    1
    75    20    17    1
    76    28    27    1
    77    28    29   ar
    78    27    24    1
    79    85    84    1
    80    84    86    1
    81    91    88    1
    82    16    17    1
    83    23    24    1
    84    23    18   am
    85    17    18    1
    86    87    88    1
    87    24    25    1
    88    88    89    1
    89    18    19    2
    90    25    26    2
    91    89    90    2
