@<TRIPOS>MOLECULE
tmp/4a05A02.pdb
 181 177 0 0 0
SMALL
GASTEIGER

@<TRIPOS>ATOM
      1  N          7.5290   -0.4930    6.6660 N.3    85  TYR85      -0.1241
      2  CA         8.6130    0.1510    5.9270 C.3    85  TYR85       0.1605
      3  C          9.0220   -0.6280    4.6660 C.2    85  TYR85       0.2264
      4  O         10.1270   -1.1710    4.5730 O.2    85  TYR85      -0.2867
      5  CB         9.8180    0.3640    6.8520 C.3    85  TYR85       0.0534
      6  CG        10.9220    1.2190    6.2630 C.ar   85  TYR85      -0.0201
      7  CD1       10.6940    2.5570    5.9090 C.ar   85  TYR85      -0.0009
      8  CD2       12.2030    0.7010    6.0930 C.ar   85  TYR85      -0.0009
      9  CE1       11.7200    3.3480    5.3790 C.ar   85  TYR85       0.0417
     10  CE2       13.2340    1.4870    5.5640 C.ar   85  TYR85       0.0417
     11  CZ        12.9840    2.7950    5.2070 C.ar   85  TYR85       0.1957
     12  OH        14.0140    3.5460    4.6930 O.3    85  TYR85      -0.2866
     13  N         12.7130    5.1620    0.1400 N.3    91  ASP91      -0.1239
     14  CA        13.8620    6.0170    0.4630 C.3    91  ASP91       0.1674
     15  C         14.2580    6.8620   -0.7570 C.2    91  ASP91       0.2266
     16  O         15.4090    6.8640   -1.1810 O.2    91  ASP91      -0.2867
     17  CB        15.0290    5.1400    0.9500 C.3    91  ASP91       0.1410
     18  CG        16.1180    5.9270    1.6480 C.2    91  ASP91       0.3668
     19  OD1       15.8090    6.9070    2.3660 O.co2  91  ASP91      -0.2456
     20  OD2       17.2990    5.5360    1.5010 O.co2  91  ASP91      -0.2456
     21  N         14.8420    9.8630   -1.8200 N.3    93  ALA93      -0.1231
     22  CA        15.8310   10.9440   -1.8850 C.3    93  ALA93       0.1694
     23  C         17.2480   10.4770   -1.5520 C.2    93  ALA93       0.2591
     24  O         18.1770   11.2860   -1.4790 O.2    93  ALA93      -0.2718
     25  CB        15.4300   12.0900   -0.9540 C.3    93  ALA93       0.0304
     26  N         17.4110    9.1760   -1.3330 N.am   94  ALA94      -0.1980
     27  CA        18.6910    8.6380   -0.8980 C.3    94  ALA94       0.1597
     28  C         18.9420    7.2800   -1.5350 C.2    94  ALA94       0.2287
     29  O         18.0830    6.7520   -2.2410 O.2    94  ALA94      -0.2864
     30  CB        18.7390    8.5430    0.6340 C.3    94  ALA94       0.0319
     31  N         18.8810    3.1120    1.8140 N.3    97  SER97      -0.1217
     32  CA        17.7920    2.2300    2.2260 C.3    97  SER97       0.1889
     33  C         16.8050    1.9000    1.1150 C.2    97  SER97       0.2288
     34  O         15.6440    1.5930    1.3910 O.2    97  SER97      -0.2866
     35  CB        17.0720    2.7970    3.4530 C.3    97  SER97       0.2089
     36  OG        17.8800    2.6130    4.6080 O.3    97  SER97      -0.2183
     37  N          9.9810    8.5260    6.5240 N.3   137  ASP137     -0.1239
     38  CA        10.5690    9.3340    5.4340 C.3   137  ASP137      0.1674
     39  C          9.6780    9.6050    4.2260 C.2   137  ASP137      0.2266
     40  O          9.9120   10.5860    3.5180 O.2   137  ASP137     -0.2867
     41  CB        11.9090    8.7690    4.9350 C.3   137  ASP137      0.1410
     42  CG        12.9040    8.5340    6.0470 C.2   137  ASP137      0.3668
     43  OD1       12.8660    9.2490    7.0830 O.co2 137  ASP137     -0.2456
     44  OD2       13.7400    7.6320    5.8480 O.co2 137  ASP137     -0.2456
     45  N          9.5170   13.2590    2.4450 N.3   141  ASN141     -0.1240
     46  CA        10.0860   13.3580    1.1040 C.3   141  ASN141      0.1653
     47  C          9.1090   13.9930    0.1180 C.2   141  ASN141      0.2266
     48  O          9.5230   14.7730   -0.7270 O.2   141  ASN141     -0.2867
     49  CB        10.5520   11.9850    0.5710 C.3   141  ASN141      0.1155
     50  CG        11.9670   11.6170    1.0200 C.2   141  ASN141      0.2627
     51  OD1       12.2860   10.4330    1.2090 O.2   141  ASN141     -0.2716
     52  ND2       12.8230   12.6130    1.1610 N.am  141  ASN141     -0.0877
     53  N          9.2990   17.9250    0.7320 N.3   144  THR144     -0.1203
     54  CA        10.5240   18.6900    0.4510 C.3   144  THR144      0.1994
     55  C         11.3120   18.2670   -0.7930 C.2   144  THR144      0.2617
     56  O         12.1410   19.0390   -1.2940 O.2   144  THR144     -0.2717
     57  CB        11.4940   18.6690    1.6450 C.3   144  THR144      0.1784
     58  OG1       12.0390   17.3590    1.7760 O.3   144  THR144     -0.2211
     59  CG2       10.7880   19.0660    2.9360 C.3   144  THR144      0.0376
     60  N         11.0700   17.0550   -1.2850 N.am  145  ASN145     -0.1974
     61  CA        11.9410   16.4650   -2.3040 C.3   145  ASN145      0.1688
     62  C         11.2720   16.1590   -3.6350 C.2   145  ASN145      0.2292
     63  O         11.7380   15.3000   -4.3750 O.2   145  ASN145     -0.2864
     64  CB        12.6570   15.2100   -1.7610 C.3   145  ASN145      0.1181
     65  CG        13.8590   15.5520   -0.8920 C.2   145  ASN145      0.2629
     66  OD1       14.0630   14.9650    0.1770 O.2   145  ASN145     -0.2716
     67  ND2       14.6630   16.4960   -1.3500 N.am  145  ASN145     -0.0877
     68  N         11.1100   15.2910   11.0750 N.3   182  HIS182     -0.1241
     69  CA        11.6200   15.8970   12.3210 C.3   182  HIS182      0.1621
     70  C         11.7490   17.4110   12.1790 C.2   182  HIS182      0.2264
     71  O         11.4930   17.9620   11.1020 O.2   182  HIS182     -0.2867
     72  CB        12.9580   15.2480   12.7540 C.3   182  HIS182      0.0745
     73  CG        14.0480   15.3490   11.7270 C.ar  182  HIS182      0.0817
     74  ND1       14.8860   16.4430   11.6350 N.ar  182  HIS182     -0.2268
     75  CD2       14.4340   14.4980   10.7470 C.ar  182  HIS182      0.1154
     76  CE1       15.7400   16.2600   10.6430 C.ar  182  HIS182      0.1986
     77  NE2       15.4770   15.0950   10.0770 N.ar  182  HIS182     -0.2212
     78  N         14.1850   19.4240   12.0220 N.3   184  GLY184     -0.1210
     79  CA        15.1330   19.8460   11.0190 C.3   184  GLY184      0.1956
     80  C         14.7370   19.4790    9.6110 C.2   184  GLY184      0.2611
     81  O         15.4710   19.7830    8.6710 O.2   184  GLY184     -0.2717
     82  N         13.5930   18.8170    9.4580 N.am  185  TRP185     -0.1976
     83  CA        13.1080   18.4540    8.1280 C.3   185  TRP185      0.1640
     84  C         11.8400   19.2450    7.8350 C.2   185  TRP185      0.2290
     85  O         11.8620   20.2150    7.0660 O.2   185  TRP185     -0.2864
     86  CB        12.8650   16.9370    8.0230 C.3   185  TRP185      0.0576
     87  CG        12.7070   16.4190    6.5920 C.ar  185  TRP185      0.0006
     88  CD1       12.4530   17.1550    5.4620 C.ar  185  TRP185      0.0946
     89  CD2       12.7630   15.0510    6.1730 C.ar  185  TRP185      0.0152
     90  NE1       12.3700   16.3250    4.3600 N.ar  185  TRP185     -0.2442
     91  CE2       12.5630   15.0320    4.7670 C.ar  185  TRP185      0.0810
     92  CE3       12.9770   13.8380    6.8450 C.ar  185  TRP185      0.0012
     93  CZ2       12.5600   13.8440    4.0210 C.ar  185  TRP185      0.0191
     94  CZ3       12.9850   12.6500    6.0960 C.ar  185  TRP185      0.0001
     95  CH2       12.7760   12.6690    4.6990 C.ar  185  TRP185      0.0015
     96  N         10.9950   23.3720    9.6090 N.3   188  TRP188     -0.1241
     97  CA        11.3490   24.6240    8.9490 C.3   188  TRP188      0.1605
     98  C         10.0700   25.3550    8.5750 C.2   188  TRP188      0.2264
     99  O          9.1380   24.7390    8.0480 O.2   188  TRP188     -0.2867
    100  CB        12.1940   24.3480    7.7050 C.3   188  TRP188      0.0550
    101  CG        13.6220   23.9930    8.0180 C.ar  188  TRP188      0.0003
    102  CD1       14.1510   22.7500    8.1180 C.ar  188  TRP188      0.0946
    103  CD2       14.6960   24.9120    8.2940 C.ar  188  TRP188      0.0152
    104  NE1       15.4880   22.8230    8.4270 N.ar  188  TRP188     -0.2442
    105  CE2       15.8490   24.1400    8.5400 C.ar  188  TRP188      0.0810
    106  CE3       14.7910   26.3110    8.3480 C.ar  188  TRP188      0.0012
    107  CZ2       17.0960   24.7180    8.8390 C.ar  188  TRP188      0.0191
    108  CZ3       16.0330   26.8890    8.6430 C.ar  188  TRP188      0.0001
    109  CH2       17.1640   26.0900    8.8850 C.ar  188  TRP188      0.0015
    110  N          9.2130   27.1710    6.1520 N.3   190  ALA190     -0.1231
    111  CA         8.7920   27.0170    4.7540 C.3   190  ALA190      0.1694
    112  C          8.1810   25.6350    4.4130 C.2   190  ALA190      0.2592
    113  O          7.4980   25.4840    3.3990 O.2   190  ALA190     -0.2718
    114  CB         9.9290   27.3670    3.8110 C.3   190  ALA190      0.0304
    115  N          8.4170   24.6410    5.2680 N.am  191  ASN191     -0.1974
    116  CA         7.9480   23.2590    5.0380 C.3   191  ASN191      0.1688
    117  C          6.7230   22.8750    5.8510 C.2   191  ASN191      0.2292
    118  O          6.0240   21.9220    5.5220 O.2   191  ASN191     -0.2864
    119  CB         9.0670   22.2520    5.3440 C.3   191  ASN191      0.1181
    120  CG        10.2760   22.4340    4.4530 C.2   191  ASN191      0.2629
    121  OD1       10.1730   22.9960    3.3640 O.2   191  ASN191     -0.2716
    122  ND2       11.4280   21.9460    4.9030 N.am  191  ASN191     -0.0877
    123  N         12.1780    9.9110   13.9020 N.3   219  VAL219     -0.1231
    124  CA        12.4760    8.5110   13.5810 C.3   219  VAL219      0.1692
    125  C         13.8090    8.3810   12.8510 C.2   219  VAL219      0.2592
    126  O         14.0500    9.0640   11.8590 O.2   219  VAL219     -0.2718
    127  CB        11.3370    7.8270   12.7840 C.3   219  VAL219      0.0266
    128  CG1       11.7230    6.3800   12.4010 C.3   219  VAL219      0.0020
    129  CG2       10.0710    7.8310   13.6050 C.3   219  VAL219      0.0020
    130  N         14.6820    7.5210   13.3900 N.am  220  ALA220     -0.1966
    131  CA        16.0520    7.3670   12.9070 C.3   220  ALA220      0.1728
    132  C         16.8310    8.6810   12.8820 C.2   220  ALA220      0.2616
    133  O         17.8550    8.8060   12.1860 O.2   220  ALA220     -0.2715
    134  CB        16.0910    6.6450   11.5300 C.3   220  ALA220      0.0334
    135  N         16.3640    9.6530   13.6590 N.am  221  ASN221     -0.1972
    136  CA        17.0830   10.9080   13.7600 C.3   221  ASN221      0.1688
    137  C         17.4880   11.2310   15.1980 C.2   221  ASN221      0.2292
    138  O         17.4530   10.3620   16.0700 O.2   221  ASN221     -0.2864
    139  CB        16.3320   12.0480   13.0590 C.3   221  ASN221      0.1181
    140  CG        17.2770   13.0370   12.4160 C.2   221  ASN221      0.2629
    141  OD1       17.8150   13.9240   13.0920 O.2   221  ASN221     -0.2716
    142  ND2       17.5000   12.8870   11.1060 N.am  221  ASN221     -0.0877
    143  N         19.0880   28.9530   11.0070 N.3   236  PRO236     -0.2116
    144  CA        18.1970   29.8520   11.7370 C.3   236  PRO236      0.1372
    145  C         16.7800   29.3200   11.9810 C.2   236  PRO236      0.2244
    146  O         15.8340   30.1170   12.0340 O.2   236  PRO236     -0.2868
    147  CB        18.1160   31.0610   10.8020 C.3   236  PRO236      0.0268
    148  CG        18.1850   30.4660    9.4340 C.3   236  PRO236      0.0207
    149  CD        19.0120   29.1970    9.5540 C.3   236  PRO236      0.0892
    150  N         22.8810   20.1100    9.8170 N.3   279  TRP279     -0.1227
    151  CA        21.6350   19.4910   10.2980 C.3   279  TRP279      0.1737
    152  C         21.1470   18.3600    9.4030 C.2   279  TRP279      0.2596
    153  O         20.5820   17.3880    9.8940 O.2   279  TRP279     -0.2718
    154  CB        20.5160   20.5170   10.4360 C.3   279  TRP279      0.0564
    155  CG        19.5770   20.2020   11.5500 C.ar  279  TRP279      0.0003
    156  CD1       19.5800   19.0850   12.3440 C.ar  279  TRP279      0.0946
    157  CD2       18.4840   21.0070   11.9960 C.ar  279  TRP279      0.0152
    158  NE1       18.5630   19.1590   13.2660 N.ar  279  TRP279     -0.2442
    159  CE2       17.8740   20.3270   13.0740 C.ar  279  TRP279      0.0810
    160  CE3       17.9540   22.2390   11.5840 C.ar  279  TRP279      0.0012
    161  CZ2       16.7670   20.8410   13.7550 C.ar  279  TRP279      0.0191
    162  CZ3       16.8620   22.7520   12.2680 C.ar  279  TRP279      0.0001
    163  CH2       16.2800   22.0490   13.3400 C.ar  279  TRP279      0.0015
    164  N         21.3780   18.4970    8.0990 N.am  280  GLY280     -0.1957
    165  CA        20.9200   17.5240    7.1070 C.3   280  GLY280      0.1869
    166  C         21.7000   16.2280    7.0780 C.2   280  GLY280      0.2309
    167  O         21.3800   15.3370    6.2860 O.2   280  GLY280     -0.2863
    168  N         22.3280   12.7840    8.3480 N.3   282  TRP282     -0.1241
    169  CA        21.4470   11.8170    9.0170 C.3   282  TRP282      0.1605
    170  C         22.0910   10.4490    9.2210 C.2   282  TRP282      0.2264
    171  O         21.5780    9.6390    9.9850 O.2   282  TRP282     -0.2867
    172  CB        20.1570   11.6350    8.1980 C.3   282  TRP282      0.0550
    173  CG        20.4130   11.3520    6.7310 C.ar  282  TRP282      0.0003
    174  CD1       20.4170   12.2720    5.7090 C.ar  282  TRP282      0.0946
    175  CD2       20.7020   10.0800    6.1220 C.ar  282  TRP282      0.0152
    176  NE1       20.6930   11.6500    4.5110 N.ar  282  TRP282     -0.2442
    177  CE2       20.8710   10.3080    4.7340 C.ar  282  TRP282      0.0810
    178  CE3       20.8340    8.7710    6.6130 C.ar  282  TRP282      0.0012
    179  CZ2       21.1770    9.2780    3.8310 C.ar  282  TRP282      0.0191
    180  CZ3       21.1380    7.7450    5.7160 C.ar  282  TRP282      0.0001
    181  CH2       21.3060    8.0100    4.3370 C.ar  282  TRP282      0.0015
@<TRIPOS>BOND
     1    63    62    2
     2    62    61    1
     3    61    64    1
     4    61    60    1
     5    29    28    2
     6    22    21    1
     7    22    23    1
     8    22    25    1
     9    64    65    1
    10    23    24    2
    11    23    26   am
    12    28    27    1
    13    67    65   am
    14    26    27    1
    15    56    55    2
    16    60    55   am
    17    16    15    2
    18    27    30    1
    19    65    66    2
    20    55    54    1
    21    15    14    1
    22    48    47    2
    23    47    46    1
    24    13    14    1
    25    54    53    1
    26    54    57    1
    27    14    17    1
    28    49    50    1
    29    49    46    1
    30    17    18    1
    31    50    52   am
    32    50    51    2
    33    46    45    1
    34    33    34    2
    35    33    32    1
    36    20    18   ar
    37    57    58    1
    38    57    59    1
    39    18    19   ar
    40    31    32    1
    41    32    35    1
    42   121   120    2
    43   113   112    2
    44    35    36    1
    45    40    39    2
    46   114   111    1
    47   179   181   ar
    48   179   177   ar
    49    93    95   ar
    50    93    91   ar
    51    39    38    1
    52   181   180   ar
    53    90    91   ar
    54    90    88   ar
    55   112   111    1
    56   112   115   am
    57   120   122   am
    58   120   119    1
    59   176   177   ar
    60   176   174   ar
    61     4     3    2
    62     3     2    1
    63    12    11    1
    64    95    94   ar
    65   177   175   ar
    66   111   110    1
    67    91    89   ar
    68    41    38    1
    69    41    42    1
    70   116   115    1
    71   116   119    1
    72   116   117    1
    73    11     9   ar
    74    11    10   ar
    75     9     7   ar
    76    38    37    1
    77    88    87   ar
    78   118   117    2
    79    10     8   ar
    80   174   173   ar
    81   180   178   ar
    82    44    42   ar
    83     7     6   ar
    84     2     1    1
    85     2     5    1
    86    42    43   ar
    87     8     6   ar
    88    94    92   ar
    89   175   178   ar
    90   175   173   ar
    91    89    87   ar
    92    89    92   ar
    93     6     5    1
    94   167   166    2
    95    87    86    1
    96   173   172    1
    97    85    84    2
    98   166   165    1
    99   165   164    1
   100   100   101    1
   101   100    97    1
   102    84    83    1
   103   101   102   ar
   104   101   103   ar
   105    86    83    1
   106    99    98    2
   107   164   152   am
   108   102   104   ar
   109    83    82    1
   110   172   169    1
   111   103   106   ar
   112   103   105   ar
   113   106   108   ar
   114   168   169    1
   115   104   105   ar
   116   105   107   ar
   117    98    97    1
   118   108   109   ar
   119    81    80    2
   120   107   109   ar
   121    97    96    1
   122   169   170    1
   123   170   171    2
   124   152   153    2
   125   152   151    1
   126   148   149    1
   127   148   147    1
   128    82    80   am
   129   149   143    1
   130    80    79    1
   131   150   151    1
   132    77    76   ar
   133    77    75   ar
   134   151   154    1
   135   154   155    1
   136    76    74   ar
   137    75    73   ar
   138   147   144    1
   139   143   144    1
   140    79    78    1
   141    68    69    1
   142    71    70    2
   143   142   140   am
   144   134   131    1
   145   155   157   ar
   146   155   156   ar
   147   160   157   ar
   148   160   162   ar
   149    74    73   ar
   150    73    72    1
   151   144   145    1
   152   126   125    2
   153   145   146    2
   154   157   159   ar
   155    70    69    1
   156   133   132    2
   157   162   163   ar
   158    69    72    1
   159   156   158   ar
   160   128   127    1
   161   140   139    1
   162   140   141    2
   163   127   124    1
   164   127   129    1
   165   125   130   am
   166   125   124    1
   167   132   131    1
   168   132   135   am
   169   131   130    1
   170   139   136    1
   171   159   158   ar
   172   159   161   ar
   173   163   161   ar
   174   124   123    1
   175   135   136    1
   176   136   137    1
   177   137   138    2
