@<TRIPOS>MOLECULE
tmp/4a06A01.pdb
 115 111 0 0 0
SMALL
GASTEIGER

@<TRIPOS>ATOM
      1  N         19.9950   -8.1820   -5.7600 N.3    41  LYS41      -0.1245
      2  CA        20.2130   -6.8660   -6.3620 C.3    41  LYS41       0.1561
      3  C         21.5090   -6.2220   -5.8710 C.2    41  LYS41       0.2260
      4  O         22.3260   -5.7520   -6.6680 O.2    41  LYS41      -0.2867
      5  CB        19.0310   -5.9410   -6.0660 C.3    41  LYS41       0.0271
      6  CG        17.7460   -6.2870   -6.7960 C.3    41  LYS41       0.0035
      7  CD        16.6220   -5.4590   -6.2240 C.3    41  LYS41       0.0206
      8  CE        15.3350   -5.7050   -6.9550 C.3    41  LYS41       0.1093
      9  NZ        14.2500   -4.9090   -6.3230 N.3    41  LYS41      -0.1314
     10  N         24.5570   -7.9760   -7.4580 N.3    44  ILE44      -0.1231
     11  CA        24.6330   -7.6600   -8.8820 C.3    44  ILE44       0.1692
     12  C         25.1250   -6.2420   -9.1220 C.2    44  ILE44       0.2591
     13  O         26.0080   -6.0120   -9.9490 O.2    44  ILE44      -0.2718
     14  CB        23.2620   -7.7810   -9.5390 C.3    44  ILE44       0.0266
     15  CG1       22.7740   -9.2220   -9.4560 C.3    44  ILE44       0.0019
     16  CG2       23.3230   -7.3160  -10.9720 C.3    44  ILE44       0.0020
     17  CD1       23.7940  -10.2290   -9.9000 C.3    44  ILE44       0.0001
     18  N         24.5280   -5.2950   -8.4050 N.am   45  ILE45      -0.1980
     19  CA        24.8950   -3.8900   -8.5160 C.3    45  ILE45       0.1595
     20  C         26.3150   -3.6880   -8.0160 C.2    45  ILE45       0.2287
     21  O         27.1180   -3.0360   -8.6740 O.2    45  ILE45      -0.2864
     22  CB        23.9580   -2.9850   -7.7000 C.3    45  ILE45       0.0276
     23  CG1       22.5390   -3.0360   -8.2580 C.3    45  ILE45       0.0022
     24  CG2       24.4670   -1.5570   -7.7150 C.3    45  ILE45       0.0022
     25  CD1       21.5180   -2.3490   -7.3800 C.3    45  ILE45       0.0001
     26  N         24.9520   -6.0410  -13.5370 N.3    50  VAL50      -0.1245
     27  CA        23.6570   -5.5920  -14.0280 C.3    50  VAL50       0.1561
     28  C         23.5440   -5.7600  -15.5420 C.2    50  VAL50       0.2260
     29  O         22.5370   -6.2630  -16.0360 O.2    50  VAL50      -0.2867
     30  CB        23.3450   -4.1430  -13.6220 C.3    50  VAL50       0.0252
     31  CG1       22.1170   -3.6330  -14.3600 C.3    50  VAL50       0.0019
     32  CG2       23.1240   -4.0630  -12.1250 C.3    50  VAL50       0.0019
     33  N         22.4490   -9.0720  -16.5300 N.3    53  VAL53      -0.1231
     34  CA        21.0610   -9.3240  -16.1650 C.3    53  VAL53       0.1692
     35  C         20.0760   -8.7530  -17.1770 C.2    53  VAL53       0.2592
     36  O         19.1640   -9.4450  -17.6080 O.2    53  VAL53      -0.2718
     37  CB        20.7520   -8.7550  -14.7800 C.3    53  VAL53       0.0266
     38  CG1       19.2530   -8.7420  -14.5240 C.3    53  VAL53       0.0020
     39  CG2       21.4700   -9.5730  -13.7380 C.3    53  VAL53       0.0020
     40  N         20.2610   -7.4910  -17.5480 N.am   54  THR54      -0.1953
     41  CA        19.4160   -6.8390  -18.5420 C.3    54  THR54       0.1897
     42  C         19.5400   -7.5310  -19.8970 C.2    54  THR54       0.2313
     43  O         18.5620   -7.6990  -20.6260 O.2    54  THR54      -0.2863
     44  CB        19.8170   -5.3660  -18.7000 C.3    54  THR54       0.1794
     45  OG1       19.9920   -4.7780  -17.4040 O.3    54  THR54      -0.2208
     46  CG2       18.7540   -4.5970  -19.4780 C.3    54  THR54       0.0378
     47  N         17.5720  -10.9050  -19.9640 N.3    57  ARG57      -0.1245
     48  CA        16.1300  -10.7060  -20.1020 C.3    57  ARG57       0.1563
     49  C         15.7640  -10.2460  -21.5020 C.2    57  ARG57       0.2260
     50  O         14.7950  -10.7280  -22.0960 O.2    57  ARG57      -0.2867
     51  CB        15.6060   -9.6820  -19.0850 C.3    57  ARG57       0.0307
     52  CG        14.1400   -9.3470  -19.2820 C.3    57  ARG57       0.0489
     53  CD        13.6740   -8.2490  -18.3470 C.3    57  ARG57       0.2205
     54  NE        14.0770   -6.9230  -18.8070 N.pl3  57  ARG57      -0.0865
     55  CZ        13.2590   -5.8760  -18.8530 C.cat  57  ARG57       0.5346
     56  NH1       11.9980   -6.0120  -18.4670 N.pl3  57  ARG57       0.1354
     57  NH2       13.6950   -4.6970  -19.2820 N.pl3  57  ARG57       0.1354
     58  N          9.1490  -12.5570  -15.2000 N.3    74  THR74      -0.1203
     59  CA        10.1230  -11.9690  -14.2980 C.3    74  THR74       0.1994
     60  C          9.3620  -11.1780  -13.2310 C.2    74  THR74       0.2618
     61  O          8.2950  -10.6170  -13.4970 O.2    74  THR74      -0.2717
     62  CB        11.0830  -10.9950  -15.0380 C.3    74  THR74       0.1784
     63  OG1       10.3240   -9.9240  -15.6160 O.3    74  THR74      -0.2211
     64  CG2       11.8720  -11.7110  -16.1430 C.3    74  THR74       0.0376
     65  N          9.9050  -11.1370  -12.0230 N.am   75  PHE75      -0.1961
     66  CA         9.3780  -10.2500  -11.0100 C.3    75  PHE75       0.1771
     67  C         10.4870   -9.9140  -10.0500 C.2    75  PHE75       0.2619
     68  O         11.5970  -10.4260  -10.1680 O.2    75  PHE75      -0.2715
     69  CB         8.1650  -10.8550  -10.2980 C.3    75  PHE75       0.0574
     70  CG         8.4170  -12.2020   -9.6580 C.ar   75  PHE75      -0.0200
     71  CD1        8.2440  -13.3730  -10.3760 C.ar   75  PHE75      -0.0042
     72  CD2        8.7840  -12.2910   -8.3220 C.ar   75  PHE75      -0.0042
     73  CE1        8.4600  -14.6150   -9.7800 C.ar   75  PHE75      -0.0003
     74  CE2        8.9940  -13.5130   -7.7210 C.ar   75  PHE75      -0.0003
     75  CZ         8.8270  -14.6820   -8.4480 C.ar   75  PHE75      -0.0000
     76  N         10.2080   -9.0290   -9.1100 N.am   76  GLN76      -0.1977
     77  CA        11.2370   -8.6660   -8.1580 C.3    76  GLN76       0.1601
     78  C         10.6410   -8.4020   -6.7900 C.2    76  GLN76       0.2287
     79  O          9.4310   -8.2130   -6.6470 O.2    76  GLN76      -0.2864
     80  CB        11.9980   -7.4410   -8.6550 C.3    76  GLN76       0.0394
     81  CG        11.1050   -6.2670   -8.9710 C.3    76  GLN76       0.0908
     82  CD        11.8880   -5.0760   -9.4640 C.2    76  GLN76       0.2608
     83  OE1       12.7620   -4.5640   -8.7660 O.2    76  GLN76      -0.2717
     84  NE2       11.5900   -4.6340  -10.6780 N.am   76  GLN76      -0.0878
     85  N         15.9450  -10.3280   -7.8490 N.3    81  LEU81      -0.1231
     86  CA        15.3060  -10.4750   -9.1530 C.3    81  LEU81       0.1693
     87  C         15.0460  -11.9580   -9.3670 C.2    81  LEU81       0.2592
     88  O         15.8530  -12.7940   -8.9560 O.2    81  LEU81      -0.2718
     89  CB        16.2430  -10.0260  -10.2710 C.3    81  LEU81       0.0284
     90  CG        16.8160   -8.6150  -10.2520 C.3    81  LEU81       0.0019
     91  CD1       17.6410   -8.4110  -11.5040 C.3    81  LEU81       0.0001
     92  CD2       15.7020   -7.6070  -10.1930 C.3    81  LEU81       0.0001
     93  N         13.9490  -12.2800  -10.0420 N.am   82  TYR82      -0.1962
     94  CA        13.5480  -13.6640  -10.2610 C.3    82  TYR82       0.1771
     95  C         13.2140  -13.8270  -11.7320 C.2    82  TYR82       0.2619
     96  O         12.3890  -13.0830  -12.2540 O.2    82  TYR82      -0.2715
     97  CB        12.3020  -13.9930   -9.4550 C.3    82  TYR82       0.0574
     98  CG        12.4070  -13.8450   -7.9480 C.ar   82  TYR82      -0.0198
     99  CD1       12.2640  -12.6040   -7.3350 C.ar   82  TYR82      -0.0009
    100  CD2       12.5890  -14.9560   -7.1350 C.ar   82  TYR82      -0.0009
    101  CE1       12.3230  -12.4770   -5.9590 C.ar   82  TYR82       0.0417
    102  CE2       12.6560  -14.8370   -5.7510 C.ar   82  TYR82       0.0417
    103  CZ        12.5230  -13.5980   -5.1720 C.ar   82  TYR82       0.1957
    104  OH        12.5790  -13.4810   -3.7970 O.3    82  TYR82      -0.2866
    105  N         13.8770  -14.7740  -12.3930 N.am   83  PHE83      -0.1974
    106  CA        13.5580  -15.1840  -13.7610 C.3    83  PHE83       0.1639
    107  C         12.8260  -16.5230  -13.7360 C.2    83  PHE83       0.2290
    108  O         13.4080  -17.5260  -13.3320 O.2    83  PHE83      -0.2864
    109  CB        14.8480  -15.3910  -14.5620 C.3    83  PHE83       0.0560
    110  CG        15.5780  -14.1190  -14.9140 C.ar   83  PHE83      -0.0200
    111  CD1       16.4410  -13.5270  -14.0140 C.ar   83  PHE83      -0.0042
    112  CD2       15.4370  -13.5450  -16.1630 C.ar   83  PHE83      -0.0042
    113  CE1       17.1240  -12.3600  -14.3500 C.ar   83  PHE83      -0.0003
    114  CE2       16.1170  -12.3830  -16.5000 C.ar   83  PHE83      -0.0003
    115  CZ        16.9560  -11.7920  -15.5930 C.ar   83  PHE83      -0.0000
@<TRIPOS>BOND
     1    50    49    2
     2    49    48    1
     3    43    42    2
     4    48    47    1
     5    48    51    1
     6    42    41    1
     7    46    44    1
     8    57    55    1
     9    52    51    1
    10    52    53    1
    11    55    54    2
    12    55    56    1
    13    54    53    1
    14    44    41    1
    15    44    45    1
    16    41    40    1
    17    36    35    2
    18    40    35   am
    19    35    34    1
    20    33    34    1
    21   114   112   ar
    22   114   115   ar
    23    34    37    1
    24   112   110   ar
    25    64    62    1
    26    29    28    2
    27    63    62    1
    28   115   113   ar
    29    28    27    1
    30    58    59    1
    31    62    59    1
    32   110   109    1
    33   110   111   ar
    34    37    38    1
    35    37    39    1
    36   109   106    1
    37    31    30    1
    38   113   111   ar
    39    59    60    1
    40    27    30    1
    41    27    26    1
    42   106   107    1
    43   106   105    1
    44   107   108    2
    45    30    32    1
    46    61    60    2
    47    60    65   am
    48   105    95   am
    49    96    95    2
    50    65    66    1
    51    95    94    1
    52    91    90    1
    53    66    69    1
    54    66    67    1
    55    16    14    1
    56    84    82   am
    57    71    73   ar
    58    71    70   ar
    59    69    70    1
    60    89    90    1
    61    89    86    1
    62    94    93    1
    63    94    97    1
    64    90    92    1
    65    68    67    2
    66    67    76   am
    67    93    87   am
    68    13    12    2
    69    17    15    1
    70    73    75   ar
    71    70    72   ar
    72    14    15    1
    73    14    11    1
    74    82    81    1
    75    82    83    2
    76    97    98    1
    77    87    86    1
    78    87    88    2
    79    86    85    1
    80    12    11    1
    81    12    18   am
    82    76    77    1
    83    81    80    1
    84    11    10    1
    85    21    20    2
    86    80    77    1
    87    19    18    1
    88    19    20    1
    89    19    22    1
    90    75    74   ar
    91    72    74   ar
    92    23    22    1
    93    23    25    1
    94    77    78    1
    95    98    99   ar
    96    98   100   ar
    97    24    22    1
    98    99   101   ar
    99   100   102   ar
   100     8     9    1
   101     8     7    1
   102     6     7    1
   103     6     5    1
   104    78    79    2
   105     4     3    2
   106     2     5    1
   107     2     3    1
   108     2     1    1
   109   101   103   ar
   110   102   103   ar
   111   103   104    1
