@<TRIPOS>MOLECULE
tmp/4a07A02.pdb
 128 122 0 0 0
SMALL
GASTEIGER

@<TRIPOS>ATOM
      1  N        -22.3790   12.2000   -2.7270 N.3    94  LEU94      -0.1245
      2  CA       -23.7390   11.8760   -3.1480 C.3    94  LEU94       0.1561
      3  C        -23.7710   10.6480   -4.0500 C.2    94  LEU94       0.2260
      4  O        -24.6890    9.8350   -3.9710 O.2    94  LEU94      -0.2867
      5  CB       -24.3660   13.0590   -3.8900 C.3    94  LEU94       0.0270
      6  CG       -25.7860   12.8080   -4.4060 C.3    94  LEU94       0.0019
      7  CD1      -26.7080   12.5040   -3.2500 C.3    94  LEU94       0.0001
      8  CD2      -26.3130   13.9940   -5.2060 C.3    94  LEU94       0.0001
      9  N        -23.8530    7.5220   -2.0600 N.3    97  ILE97      -0.1231
     10  CA       -25.1250    7.3080   -1.3830 C.3    97  ILE97       0.1692
     11  C        -26.1300    6.7440   -2.3800 C.2    97  ILE97       0.2591
     12  O        -26.8820    5.8330   -2.0640 O.2    97  ILE97      -0.2718
     13  CB       -25.6920    8.6060   -0.7880 C.3    97  ILE97       0.0266
     14  CG1      -24.7180    9.1900    0.2330 C.3    97  ILE97       0.0019
     15  CG2      -27.0510    8.3440   -0.1200 C.3    97  ILE97       0.0020
     16  CD1      -25.1220   10.5580    0.7140 C.3    97  ILE97       0.0001
     17  N        -26.1340    7.2870   -3.5910 N.am   98  ARG98      -0.1980
     18  CA       -27.0540    6.8260   -4.6210 C.3    98  ARG98       0.1597
     19  C        -26.7820    5.3690   -4.9960 C.2    98  ARG98       0.2287
     20  O        -27.7090    4.5790   -5.1700 O.2    98  ARG98      -0.2864
     21  CB       -26.9550    7.7140   -5.8640 C.3    98  ARG98       0.0334
     22  CG       -27.6160    9.1010   -5.6890 C.3    98  ARG98       0.0492
     23  CD       -27.6420    9.8610   -7.0180 C.3    98  ARG98       0.2205
     24  NE       -26.2870   10.1510   -7.4860 N.pl3  98  ARG98      -0.0865
     25  CZ       -25.9740   10.5930   -8.7010 C.cat  98  ARG98       0.5346
     26  NH1      -26.9220   10.7970   -9.6040 N.pl3  98  ARG98       0.1354
     27  NH2      -24.7050   10.8640   -8.9970 N.pl3  98  ARG98       0.1354
     28  N        -27.1100    3.1060   -1.3710 N.3   101  GLY101     -0.1225
     29  CA       -28.4220    3.2230   -0.7500 C.3   101  GLY101      0.1811
     30  C        -28.4050    3.5080    0.7430 C.2   101  GLY101      0.2280
     31  O        -29.1660    4.3410    1.2310 O.2   101  GLY101     -0.2866
     32  N        -23.5120   16.6060   -2.1980 N.3   135  GLU135     -0.1245
     33  CA       -22.9650   17.0340   -3.4850 C.3   135  GLU135      0.1567
     34  C        -21.7500   17.9290   -3.2920 C.2   135  GLU135      0.2260
     35  O        -20.9020   18.0310   -4.1770 O.2   135  GLU135     -0.2867
     36  CB       -24.0170   17.7970   -4.3010 C.3   135  GLU135      0.0388
     37  CG       -25.2010   16.9530   -4.7250 C.3   135  GLU135      0.1160
     38  CD       -26.3920   17.0740   -3.7830 C.2   135  GLU135      0.3649
     39  OE1      -26.2050   17.0080   -2.5460 O.co2 135  GLU135     -0.2457
     40  OE2      -27.5240   17.2350   -4.2900 O.co2 135  GLU135     -0.2457
     41  N        -33.5370   20.8240    0.4160 N.3   172  GLN172     -0.1231
     42  CA       -33.5830   19.6430    1.2760 C.3   172  GLN172      0.1698
     43  C        -32.8030   19.8500    2.5690 C.2   172  GLN172      0.2592
     44  O        -33.0630   19.1780    3.5610 O.2   172  GLN172     -0.2718
     45  CB       -33.0210   18.3960    0.5820 C.3   172  GLN172      0.0381
     46  CG       -33.6970   18.0190   -0.7100 C.3   172  GLN172      0.0905
     47  CD       -32.9720   18.5900   -1.9020 C.2   172  GLN172      0.2608
     48  OE1      -33.0990   19.7720   -2.2080 O.2   172  GLN172     -0.2717
     49  NE2      -32.1850   17.7570   -2.5710 N.am  172  GLN172     -0.0878
     50  N        -31.8280   20.7490    2.5480 N.am  173  TYR173     -0.1976
     51  CA       -30.9030   20.8770    3.6780 C.3   173  TYR173      0.1639
     52  C        -31.0250   22.2130    4.3910 C.2   173  TYR173      0.2290
     53  O        -30.3380   22.4600    5.3820 O.2   173  TYR173     -0.2864
     54  CB       -29.4620   20.6680    3.1990 C.3   173  TYR173      0.0560
     55  CG       -29.3190   19.3960    2.4020 C.ar  173  TYR173     -0.0198
     56  CD1      -29.1310   18.1740    3.0360 C.ar  173  TYR173     -0.0009
     57  CD2      -29.4000   19.4150    1.0160 C.ar  173  TYR173     -0.0009
     58  CE1      -29.0230   17.0020    2.3050 C.ar  173  TYR173      0.0417
     59  CE2      -29.2960   18.2490    0.2740 C.ar  173  TYR173      0.0417
     60  CZ       -29.1080   17.0480    0.9240 C.ar  173  TYR173      0.1957
     61  OH       -29.0010   15.8950    0.1890 O.3   173  TYR173     -0.2866
     62  N        -29.4160   10.9580    5.8760 N.3   198  GLN198     -0.1245
     63  CA       -29.3600   10.4890    4.4880 C.3   198  GLN198      0.1566
     64  C        -28.3490    9.3600    4.2690 C.2   198  GLN198      0.2260
     65  O        -28.5540    8.4990    3.4110 O.2   198  GLN198     -0.2867
     66  CB       -29.0340   11.6410    3.5430 C.3   198  GLN198      0.0367
     67  CG       -29.0900   11.2250    2.0730 C.3   198  GLN198      0.0905
     68  CD       -28.9700   12.4050    1.1280 C.2   198  GLN198      0.2608
     69  OE1      -28.6650   13.5240    1.5460 O.2   198  GLN198     -0.2717
     70  NE2      -29.2090   12.1590   -0.1540 N.am  198  GLN198     -0.0878
     71  N        -30.8080    6.7640    2.8020 N.3   202  GLY202     -0.1210
     72  CA       -30.7800    6.8960    1.3470 C.3   202  GLY202      0.1956
     73  C        -31.2720    8.2500    0.8570 C.2   202  GLY202      0.2612
     74  O        -30.6660    8.8670   -0.0190 O.2   202  GLY202     -0.2717
     75  N        -32.3780    8.7140    1.4270 N.am  203  LEU203     -0.1966
     76  CA       -32.9410   10.0120    1.0840 C.3   203  LEU203      0.1713
     77  C        -32.9190   10.8850    2.3280 C.2   203  LEU203      0.2458
     78  O        -33.0520   10.3800    3.4320 O.2   203  LEU203     -0.2730
     79  CB       -34.3830    9.8720    0.6020 C.3   203  LEU203      0.0310
     80  CG       -34.6190    9.0360   -0.6570 C.3   203  LEU203      0.0022
     81  CD1      -36.0670    9.1650   -1.0910 C.3   203  LEU203      0.0001
     82  CD2      -33.6890    9.4680   -1.7690 C.3   203  LEU203      0.0001
     83  N        -32.7550   12.2030    2.1450 N.am  204  PRO204     -0.2727
     84  CA       -32.7500   13.1260    3.2830 C.3   204  PRO204      0.1402
     85  C        -34.1300   13.1650    3.9570 C.2   204  PRO204      0.2269
     86  O        -35.0900   12.6470    3.3930 O.2   204  PRO204     -0.2865
     87  CB       -32.3830   14.4690    2.6410 C.3   204  PRO204      0.0296
     88  CG       -32.8360   14.3550    1.2240 C.3   204  PRO204      0.0237
     89  CD       -32.6490   12.9040    0.8540 C.3   204  PRO204      0.0939
     90  N        -36.5600   15.4370    4.9390 N.3   206  PHE206     -0.1227
     91  CA       -37.7220   16.2050    4.5200 C.3   206  PHE206      0.1736
     92  C        -37.9250   15.9910    3.0340 C.2   206  PHE206      0.2595
     93  O        -37.1770   16.5020    2.2000 O.2   206  PHE206     -0.2718
     94  CB       -37.5250   17.6630    4.9140 C.3   206  PHE206      0.0547
     95  CG       -37.1830   17.8140    6.3640 C.ar  206  PHE206     -0.0202
     96  CD1      -38.1720   17.6910    7.3290 C.ar  206  PHE206     -0.0042
     97  CD2      -35.8660   17.9920    6.7690 C.ar  206  PHE206     -0.0042
     98  CE1      -37.8650   17.7910    8.6660 C.ar  206  PHE206     -0.0003
     99  CE2      -35.5490   18.0980    8.1170 C.ar  206  PHE206     -0.0003
    100  CZ       -36.5470   17.9880    9.0650 C.ar  206  PHE206     -0.0000
    101  N        -38.9370   15.1910    2.7250 N.am  207  ARG207     -0.1966
    102  CA       -39.0590   14.5870    1.4090 C.3   207  ARG207      0.1729
    103  C        -40.2840   15.0860    0.6530 C.2   207  ARG207      0.2616
    104  O        -41.4140   14.9290    1.1040 O.2   207  ARG207     -0.2715
    105  CB       -39.1260   13.0620    1.5550 C.3   207  ARG207      0.0348
    106  CG       -37.8990   12.4620    2.2230 C.3   207  ARG207      0.0492
    107  CD       -38.1030   10.9980    2.6050 C.3   207  ARG207      0.2205
    108  NE       -36.8650   10.4010    3.0940 N.pl3 207  ARG207     -0.0865
    109  CZ       -36.7180    9.1170    3.4010 C.cat 207  ARG207      0.5346
    110  NH1      -37.7330    8.2730    3.2660 N.pl3 207  ARG207      0.1354
    111  NH2      -35.5450    8.6770    3.8320 N.pl3 207  ARG207      0.1354
    112  N        -40.0350   15.6850   -0.5030 N.am  208  ALA208     -0.1963
    113  CA       -41.0910   16.1150   -1.4100 C.3   208  ALA208      0.1728
    114  C        -40.4750   16.4540   -2.7590 C.2   208  ALA208      0.2616
    115  O        -39.2530   16.5940   -2.8840 O.2   208  ALA208     -0.2715
    116  CB       -41.8440   17.3070   -0.8400 C.3   208  ALA208      0.0334
    117  N        -41.3240   16.6030   -3.7640 N.am  209  GLY209     -0.1955
    118  CA       -40.8720   16.6820   -5.1370 C.3   209  GLY209      0.1869
    119  C        -40.5720   18.0850   -5.6220 C.2   209  GLY209      0.2309
    120  O        -40.1630   18.2640   -6.7640 O.2   209  GLY209     -0.2863
    121  N        -41.0990   21.0550    0.3650 N.3   214  ILE214     -0.1245
    122  CA       -40.0500   20.7450    1.3250 C.3   214  ILE214      0.1561
    123  C        -39.9940   21.8210    2.4080 C.2   214  ILE214      0.2260
    124  O        -39.8950   21.5070    3.5820 O.2   214  ILE214     -0.2867
    125  CB       -38.6780   20.6150    0.6290 C.3   214  ILE214      0.0252
    126  CG1      -38.6540   19.3470   -0.2290 C.3   214  ILE214      0.0019
    127  CG2      -37.5480   20.5860    1.6660 C.3   214  ILE214      0.0019
    128  CD1      -37.4950   19.2750   -1.2130 C.3   214  ILE214      0.0001
@<TRIPOS>BOND
     1    26    25    1
     2    27    25    1
     3    25    24    2
     4    24    23    1
     5    23    22    1
     6   120   119    2
     7    21    22    1
     8    21    18    1
     9   119   118    1
    10     8     6    1
    11    20    19    2
    12   118   117    1
    13    19    18    1
    14    37    36    1
    15    37    38    1
    16    18    17    1
    17     6     5    1
    18     6     7    1
    19    36    33    1
    20    40    38   ar
    21    35    34    2
    22     3     4    2
    23     3     2    1
    24     5     2    1
    25    38    39   ar
    26   117   114   am
    27    17    11   am
    28    33    34    1
    29    33    32    1
    30     2     1    1
    31   115   114    2
    32   114   113    1
    33    49    47   am
    34    11    12    2
    35    11    10    1
    36    48    47    2
    37     9    10    1
    38    47    46    1
    39    82    80    1
    40   113   116    1
    41   113   112    1
    42    10    13    1
    43    28    29    1
    44   128   126    1
    45    81    80    1
    46    13    15    1
    47    13    14    1
    48    29    30    1
    49    46    45    1
    50    80    79    1
    51   112   103   am
    52   126   125    1
    53    70    68   am
    54    74    73    2
    55    61    60    1
    56    14    16    1
    57    59    60   ar
    58    59    57   ar
    59   121   122    1
    60    41    42    1
    61    45    42    1
    62    79    76    1
    63   125   122    1
    64   125   127    1
    65   103   104    2
    66   103   102    1
    67    30    31    2
    68    89    88    1
    69    89    83    1
    70    73    72    1
    71    73    75   am
    72    60    58   ar
    73    57    55   ar
    74    76    75    1
    75    76    77    1
    76    68    69    2
    77    68    67    1
    78    88    87    1
    79    42    43    1
    80   122   123    1
    81    72    71    1
    82   102   105    1
    83   102   101    1
    84   105   106    1
    85    67    66    1
    86    83    77   am
    87    83    84    1
    88    93    92    2
    89   106   107    1
    90    58    56   ar
    91    77    78    2
    92    55    56   ar
    93    55    54    1
    94   123   124    2
    95    50    43   am
    96    50    51    1
    97    43    44    2
    98   107   108    1
    99    87    84    1
   100   101    92   am
   101    92    91    1
   102   108   109    2
   103    54    51    1
   104   110   109    1
   105    84    85    1
   106    86    85    2
   107   109   111    1
   108    65    64    2
   109    66    63    1
   110    51    52    1
   111    64    63    1
   112    52    53    2
   113    63    62    1
   114    91    94    1
   115    91    90    1
   116    94    95    1
   117    95    97   ar
   118    95    96   ar
   119    97    99   ar
   120    96    98   ar
   121    99   100   ar
   122    98   100   ar
