@<TRIPOS>MOLECULE
tmp/4a07A01.pdb
 124 119 0 0 0
SMALL
GASTEIGER

@<TRIPOS>ATOM
      1  N          2.9070   34.6570  -10.9210 N.3     2  LYS2       -0.1245
      2  CA         1.5290   34.4560  -11.3520 C.3     2  LYS2        0.1561
      3  C          1.4780   33.4570  -12.5070 C.2     2  LYS2        0.2260
      4  O          2.2550   33.5500  -13.4570 O.2     2  LYS2       -0.2867
      5  CB         0.9110   35.7880  -11.7770 C.3     2  LYS2        0.0271
      6  CG        -0.6090   35.8130  -11.7410 C.3     2  LYS2        0.0035
      7  CD        -1.1330   35.5390  -10.3370 C.3     2  LYS2        0.0206
      8  CE        -2.4570   36.2460  -10.0790 C.3     2  LYS2        0.1093
      9  NZ        -2.9570   36.0090   -8.6940 N.3     2  LYS2       -0.1314
     10  N        -15.8100   35.7170  -17.6910 N.3    41  LYS41      -0.1245
     11  CA       -16.0180   37.0530  -17.1470 C.3    41  LYS41       0.1561
     12  C        -17.3220   37.6600  -17.6510 C.2    41  LYS41       0.2260
     13  O        -18.0610   38.2760  -16.8850 O.2    41  LYS41      -0.2867
     14  CB       -14.8550   37.9650  -17.5210 C.3    41  LYS41       0.0271
     15  CG       -13.5850   37.7180  -16.7350 C.3    41  LYS41       0.0035
     16  CD       -12.4710   38.5460  -17.3200 C.3    41  LYS41       0.0206
     17  CE       -11.2900   38.6760  -16.3900 C.3    41  LYS41       0.1093
     18  NZ       -10.2920   39.5740  -17.0190 N.3    41  LYS41      -0.1314
     19  N        -20.2600   36.1390  -15.7700 N.3    44  ILE44      -0.1231
     20  CA       -20.2980   36.5220  -14.3610 C.3    44  ILE44       0.1692
     21  C        -20.8350   37.9330  -14.1850 C.2    44  ILE44       0.2591
     22  O        -21.6500   38.1920  -13.3040 O.2    44  ILE44      -0.2718
     23  CB       -18.9050   36.4860  -13.7200 C.3    44  ILE44       0.0266
     24  CG1      -18.3360   35.0690  -13.7570 C.3    44  ILE44       0.0019
     25  CG2      -18.9750   36.9880  -12.2810 C.3    44  ILE44       0.0020
     26  CD1      -19.2550   34.0290  -13.1720 C.3    44  ILE44       0.0001
     27  N        -20.3560   38.8460  -15.0190 N.am   45  ILE45      -0.1980
     28  CA       -20.7790   40.2360  -14.9590 C.3    45  ILE45       0.1595
     29  C        -22.2490   40.3500  -15.3360 C.2    45  ILE45       0.2287
     30  O        -23.0560   40.8870  -14.5820 O.2    45  ILE45      -0.2864
     31  CB       -19.9400   41.1070  -15.9100 C.3    45  ILE45       0.0276
     32  CG1      -18.5680   41.3810  -15.2970 C.3    45  ILE45       0.0022
     33  CG2      -20.6470   42.4240  -16.1990 C.3    45  ILE45       0.0022
     34  CD1      -17.5280   41.7990  -16.3070 C.3    45  ILE45       0.0001
     35  N        -20.6860   38.3490   -9.6320 N.3    50  VAL50      -0.1245
     36  CA       -19.4090   38.8700   -9.1500 C.3    50  VAL50       0.1561
     37  C        -19.2360   38.6970   -7.6350 C.2    50  VAL50       0.2260
     38  O        -18.1600   38.3230   -7.1750 O.2    50  VAL50      -0.2867
     39  CB       -19.2160   40.3520   -9.5250 C.3    50  VAL50       0.0252
     40  CG1      -17.9810   40.9190   -8.8450 C.3    50  VAL50       0.0019
     41  CG2      -19.1040   40.5010  -11.0350 C.3    50  VAL50       0.0019
     42  N        -18.2080   35.1170   -6.7160 N.3    53  VAL53      -0.1231
     43  CA       -16.8410   34.7540   -7.0870 C.3    53  VAL53       0.1692
     44  C        -15.8450   35.3580   -6.0960 C.2    53  VAL53       0.2592
     45  O        -14.9230   34.6910   -5.6360 O.2    53  VAL53      -0.2718
     46  CB       -16.5150   35.2190   -8.5210 C.3    53  VAL53       0.0266
     47  CG1      -15.0740   34.8970   -8.8780 C.3    53  VAL53       0.0020
     48  CG2      -17.4640   34.5630   -9.5020 C.3    53  VAL53       0.0020
     49  N        -16.0500   36.6230   -5.7590 N.am   54  THR54      -0.1953
     50  CA       -15.2190   37.3060   -4.7780 C.3    54  THR54       0.1897
     51  C        -15.3340   36.6160   -3.4200 C.2    54  THR54       0.2313
     52  O        -14.3370   36.3840   -2.7450 O.2    54  THR54      -0.2863
     53  CB       -15.6510   38.7740   -4.6420 C.3    54  THR54       0.1794
     54  OG1      -15.5230   39.4220   -5.9140 O.3    54  THR54      -0.2208
     55  CG2      -14.7990   39.5000   -3.6120 C.3    54  THR54       0.0378
     56  N        -13.4000   33.3000   -3.3740 N.3    57  ARG57      -0.1245
     57  CA       -11.9600   33.4890   -3.2850 C.3    57  ARG57       0.1563
     58  C        -11.5560   33.8710   -1.8600 C.2    57  ARG57       0.2260
     59  O        -10.6050   33.3150   -1.3090 O.2    57  ARG57      -0.2867
     60  CB       -11.4820   34.5550   -4.2750 C.3    57  ARG57       0.0307
     61  CG        -9.9770   34.7780   -4.2330 C.3    57  ARG57       0.0489
     62  CD        -9.5180   35.6630   -5.3740 C.3    57  ARG57       0.2205
     63  NE        -8.2630   36.3420   -5.0700 N.pl3  57  ARG57      -0.0865
     64  CZ        -8.1780   37.5300   -4.4760 C.cat  57  ARG57       0.5346
     65  NH1       -9.2770   38.1800   -4.1130 N.pl3  57  ARG57       0.1354
     66  NH2       -6.9900   38.0700   -4.2410 N.pl3  57  ARG57       0.1354
     67  N         -4.8510   31.7470   -8.0570 N.3    74  THR74      -0.1203
     68  CA        -5.8580   32.2620   -8.9730 C.3    74  THR74       0.1994
     69  C         -5.1570   33.0320  -10.0830 C.2    74  THR74       0.2618
     70  O         -4.0600   33.5510   -9.8820 O.2    74  THR74      -0.2717
     71  CB        -6.8420   33.2120   -8.2550 C.3    74  THR74       0.1784
     72  OG1       -6.1440   34.3880   -7.8250 O.3    74  THR74      -0.2211
     73  CG2       -7.4640   32.5330   -7.0470 C.3    74  THR74       0.0376
     74  N         -5.7770   33.0950  -11.2570 N.am   75  PHE75      -0.1961
     75  CA        -5.2870   33.9780  -12.3080 C.3    75  PHE75       0.1771
     76  C         -6.3990   34.3000  -13.2990 C.2    75  PHE75       0.2619
     77  O         -7.5220   33.8310  -13.1620 O.2    75  PHE75      -0.2715
     78  CB        -4.0390   33.4040  -13.0010 C.3    75  PHE75       0.0574
     79  CG        -4.2340   32.0450  -13.6220 C.ar   75  PHE75      -0.0200
     80  CD1       -4.6730   31.9220  -14.9330 C.ar   75  PHE75      -0.0042
     81  CD2       -3.9390   30.8880  -12.9060 C.ar   75  PHE75      -0.0042
     82  CE1       -4.8360   30.6740  -15.5150 C.ar   75  PHE75      -0.0003
     83  CE2       -4.1050   29.6370  -13.4830 C.ar   75  PHE75      -0.0003
     84  CZ        -4.5500   29.5320  -14.7900 C.ar   75  PHE75      -0.0000
     85  N         -6.0940   35.1330  -14.2800 N.am   76  GLN76      -0.1977
     86  CA        -7.1170   35.5940  -15.1960 C.3    76  GLN76       0.1601
     87  C         -6.4950   35.9210  -16.5410 C.2    76  GLN76       0.2287
     88  O         -5.3100   36.2390  -16.6210 O.2    76  GLN76      -0.2864
     89  CB        -7.8000   36.8370  -14.6200 C.3    76  GLN76       0.0394
     90  CG        -6.8210   37.9270  -14.2020 C.3    76  GLN76       0.0908
     91  CD        -7.5100   39.1850  -13.7090 C.2    76  GLN76       0.2608
     92  OE1       -7.2040   39.6970  -12.6350 O.2    76  GLN76      -0.2717
     93  NE2       -8.4380   39.6950  -14.5010 N.am   76  GLN76      -0.0878
     94  N        -11.6910   33.8180  -15.5360 N.3    81  LEU81      -0.1231
     95  CA       -11.0800   33.7300  -14.2210 C.3    81  LEU81       0.1693
     96  C        -10.7980   32.2580  -13.9500 C.2    81  LEU81       0.2592
     97  O        -11.5860   31.3980  -14.3400 O.2    81  LEU81      -0.2718
     98  CB       -12.0340   34.2650  -13.1540 C.3    81  LEU81       0.0284
     99  CG       -12.4540   35.7270  -13.2960 C.3    81  LEU81       0.0019
    100  CD1      -13.5270   36.0750  -12.2760 C.3    81  LEU81       0.0001
    101  CD2      -11.2490   36.6410  -13.1510 C.3    81  LEU81       0.0001
    102  N         -9.6900   31.9760  -13.2700 N.am   82  TYR82      -0.1962
    103  CA        -9.2720   30.6030  -12.9940 C.3    82  TYR82       0.1771
    104  C         -8.9320   30.4120  -11.5180 C.2    82  TYR82       0.2619
    105  O         -8.1130   31.1490  -10.9680 O.2    82  TYR82      -0.2715
    106  CB        -8.0190   30.2480  -13.7860 C.3    82  TYR82       0.0574
    107  CG        -8.1110   30.3950  -15.2830 C.ar   82  TYR82      -0.0198
    108  CD1       -8.0680   31.6480  -15.8810 C.ar   82  TYR82      -0.0009
    109  CD2       -8.1970   29.2780  -16.1040 C.ar   82  TYR82      -0.0009
    110  CE1       -8.1240   31.7850  -17.2510 C.ar   82  TYR82       0.0417
    111  CE2       -8.2530   29.4050  -17.4810 C.ar   82  TYR82       0.0417
    112  CZ        -8.2180   30.6640  -18.0460 C.ar   82  TYR82       0.1957
    113  OH        -8.2700   30.8070  -19.4120 O.3    82  TYR82      -0.2866
    114  N         -9.5450   29.4060  -10.9000 N.am   83  PHE83      -0.1974
    115  CA        -9.2430   29.0110   -9.5300 C.3    83  PHE83       0.1639
    116  C         -8.4910   27.6940   -9.5930 C.2    83  PHE83       0.2290
    117  O         -9.0140   26.7150  -10.1100 O.2    83  PHE83      -0.2864
    118  CB       -10.5250   28.7390   -8.7380 C.3    83  PHE83       0.0560
    119  CG       -11.3360   29.9600   -8.3950 C.ar   83  PHE83      -0.0200
    120  CD1      -12.3380   30.4060   -9.2410 C.ar   83  PHE83      -0.0042
    121  CD2      -11.1440   30.6190   -7.1930 C.ar   83  PHE83      -0.0042
    122  CE1      -13.1060   31.5130   -8.9080 C.ar   83  PHE83      -0.0003
    123  CE2      -11.9070   31.7240   -6.8560 C.ar   83  PHE83      -0.0003
    124  CZ       -12.8870   32.1720   -7.7140 C.ar   83  PHE83      -0.0000
@<TRIPOS>BOND
     1   113   112    1
     2   112   111   ar
     3   112   110   ar
     4    10    11    1
     5    12    11    1
     6    12    13    2
     7    14    11    1
     8    14    15    1
     9   111   109   ar
    10    16    15    1
    11    16    17    1
    12   110   108   ar
    13    18    17    1
    14    88    87    2
    15    87    86    1
    16    34    32    1
    17    33    31    1
    18   109   107   ar
    19    31    32    1
    20    31    28    1
    21   108   107   ar
    22    19    20    1
    23    94    95    1
    24    82    80   ar
    25    82    84   ar
    26    29    28    1
    27    29    30    2
    28   107   106    1
    29    86    89    1
    30    86    85    1
    31    27    28    1
    32    27    21   am
    33    80    79   ar
    34    84    83   ar
    35    89    90    1
    36    93    91   am
    37    20    21    1
    38    20    23    1
    39    97    96    2
    40    85    76   am
    41    95    96    1
    42    95    98    1
    43    90    91    1
    44    21    22    2
    45    96   102   am
    46   106   103    1
    47    24    23    1
    48    24    26    1
    49    23    25    1
    50    91    92    2
    51    79    78    1
    52    79    81   ar
    53    83    81   ar
    54     4     3    2
    55    76    77    2
    56    76    75    1
    57    99    98    1
    58    99   101    1
    59    99   100    1
    60   102   103    1
    61    78    75    1
    62   103   104    1
    63     3     2    1
    64    75    74    1
    65     5     6    1
    66     5     2    1
    67     6     7    1
    68   104   105    2
    69   104   114   am
    70     2     1    1
    71    74    69   am
    72    41    39    1
    73   114   115    1
    74     7     8    1
    75   117   116    2
    76    69    70    2
    77    69    68    1
    78     8     9    1
    79    35    36    1
    80   116   115    1
    81   115   118    1
    82    39    36    1
    83    39    40    1
    84    48    46    1
    85   120   122   ar
    86   120   119   ar
    87    36    37    1
    88    68    71    1
    89    68    67    1
    90   122   124   ar
    91    47    46    1
    92   118   119    1
    93    46    43    1
    94   119   121   ar
    95    71    72    1
    96    71    73    1
    97   124   123   ar
    98    37    38    2
    99   121   123   ar
   100    43    42    1
   101    43    44    1
   102    44    49   am
   103    44    45    2
   104    54    53    1
   105    49    50    1
   106    62    63    1
   107    62    61    1
   108    63    64    2
   109    50    53    1
   110    50    51    1
   111    53    55    1
   112    64    66    1
   113    64    65    1
   114    60    61    1
   115    60    57    1
   116    51    52    2
   117    56    57    1
   118    57    58    1
   119    58    59    2
