@<TRIPOS>MOLECULE
tmp/4a0fB01.pdb
 137 136 0 0 0
SMALL
GASTEIGER

@<TRIPOS>ATOM
      1  N         68.6990    7.0840   23.7930 N.3   343  TRP343     -0.1227
      2  CA        67.4370    7.7880   24.0200 C.3   343  TRP343      0.1737
      3  C         66.9630    8.4290   22.7090 C.2   343  TRP343      0.2595
      4  O         66.3200    9.4840   22.7030 O.2   343  TRP343     -0.2718
      5  CB        67.6300    8.8610   25.0940 C.3   343  TRP343      0.0564
      6  CG        66.4720    9.0790   26.0350 C.ar  343  TRP343      0.0003
      7  CD1       65.1580    9.3160   25.7060 C.ar  343  TRP343      0.0946
      8  CD2       66.5390    9.1290   27.4680 C.ar  343  TRP343      0.0152
      9  NE1       64.4030    9.4870   26.8530 N.ar  343  TRP343     -0.2442
     10  CE2       65.2290    9.3780   27.9440 C.ar  343  TRP343      0.0810
     11  CE3       67.5790    8.9850   28.3970 C.ar  343  TRP343      0.0012
     12  CZ2       64.9390    9.4790   29.3100 C.ar  343  TRP343      0.0191
     13  CZ3       67.2930    9.0860   29.7440 C.ar  343  TRP343      0.0001
     14  CH2       65.9850    9.3310   30.1910 C.ar  343  TRP343      0.0015
     15  N         67.3150    7.7860   21.6030 N.am  344  TRP344     -0.1976
     16  CA        66.8810    8.1970   20.2770 C.3   344  TRP344      0.1640
     17  C         67.3990    9.5700   19.8920 C.2   344  TRP344      0.2290
     18  O         66.7200   10.3020   19.1660 O.2   344  TRP344     -0.2864
     19  CB        65.3540    8.1620   20.1690 C.3   344  TRP344      0.0576
     20  CG        64.7370    7.0390   20.9300 C.ar  344  TRP344      0.0006
     21  CD1       65.1940    5.7470   21.0240 C.ar  344  TRP344      0.0946
     22  CD2       63.5620    7.1090   21.7330 C.ar  344  TRP344      0.0152
     23  NE1       64.3720    5.0170   21.8400 N.ar  344  TRP344     -0.2442
     24  CE2       63.3570    5.8260   22.2870 C.ar  344  TRP344      0.0810
     25  CE3       62.6580    8.1310   22.0370 C.ar  344  TRP344      0.0012
     26  CZ2       62.2830    5.5390   23.1260 C.ar  344  TRP344      0.0191
     27  CZ3       61.5870    7.8440   22.8700 C.ar  344  TRP344      0.0001
     28  CH2       61.4100    6.5570   23.4040 C.ar  344  TRP344      0.0015
     29  N         64.6430   21.4690   25.7200 N.3   402  ASN402     -0.1225
     30  CA        64.4290   20.0750   25.3200 C.3   402  ASN402      0.1785
     31  C         63.0410   19.8630   24.7360 C.2   402  ASN402      0.2598
     32  O         62.2920   20.8290   24.5780 O.2   402  ASN402     -0.2718
     33  CB        64.6660   19.1410   26.5000 C.3   402  ASN402      0.1169
     34  CG        63.8480   19.5250   27.6990 C.2   402  ASN402      0.2627
     35  OD1       62.8070   20.1430   27.5600 O.2   402  ASN402     -0.2716
     36  ND2       64.3050   19.1630   28.8820 N.am  402  ASN402     -0.0877
     37  N         62.7080   18.6080   24.4110 N.am  403  GLY403     -0.1942
     38  CA        61.4060   18.2480   23.8550 C.3   403  GLY403      0.2014
     39  C         60.2650   18.6560   24.7730 C.2   403  GLY403      0.2639
     40  O         59.3060   19.2790   24.3350 O.2   403  GLY403     -0.2714
     41  N         60.3750   18.3070   26.0530 N.am  404  SER404     -0.1949
     42  CA        59.4010   18.7140   27.0540 C.3   404  SER404      0.1924
     43  C         59.0680   20.2170   27.0570 C.2   404  SER404      0.2314
     44  O         57.8900   20.5960   27.1030 O.2   404  SER404     -0.2863
     45  CB        59.8740   18.3090   28.4490 C.3   404  SER404      0.2116
     46  OG        59.5730   16.9590   28.7220 O.3   404  SER404     -0.2180
     47  N         57.2310   21.2450   23.6630 N.3   407  ILE407     -0.1245
     48  CA        55.8440   20.8240   23.7650 C.3   407  ILE407      0.1561
     49  C         54.9750   21.7340   24.6460 C.2   407  ILE407      0.2260
     50  O         53.8690   22.1080   24.2420 O.2   407  ILE407     -0.2867
     51  CB        55.7530   19.3710   24.2620 C.3   407  ILE407      0.0252
     52  CG1       56.1550   18.4020   23.1400 C.3   407  ILE407      0.0019
     53  CG2       54.3440   19.0640   24.8000 C.3   407  ILE407      0.0019
     54  CD1       55.1860   18.3890   21.9540 C.3   407  ILE407      0.0001
     55  N         53.6020    9.9730   23.3150 N.3   435  TYR435     -0.1227
     56  CA        54.4340   10.4670   24.3980 C.3   435  TYR435      0.1736
     57  C         54.9310   11.8430   24.0300 C.2   435  TYR435      0.2595
     58  O         55.2410   12.0790   22.8680 O.2   435  TYR435     -0.2718
     59  CB        55.6170    9.5210   24.6250 C.3   435  TYR435      0.0548
     60  CG        56.6430   10.0590   25.6050 C.ar  435  TYR435     -0.0200
     61  CD1       56.3250   10.2430   26.9450 C.ar  435  TYR435     -0.0009
     62  CD2       57.9250   10.3910   25.1870 C.ar  435  TYR435     -0.0009
     63  CE1       57.2550   10.7460   27.8350 C.ar  435  TYR435      0.0417
     64  CE2       58.8510   10.8960   26.0670 C.ar  435  TYR435      0.0417
     65  CZ        58.5150   11.0710   27.3950 C.ar  435  TYR435      0.1957
     66  OH        59.4400   11.5620   28.2980 O.3   435  TYR435     -0.2866
     67  N         55.0120   12.7480   25.0080 N.am  436  HIS436     -0.1961
     68  CA        55.3600   14.1500   24.7300 C.3   436  HIS436      0.1787
     69  C         56.2180   14.8050   25.8180 C.2   436  HIS436      0.2621
     70  O         56.2370   16.0300   25.9530 O.2   436  HIS436     -0.2715
     71  CB        54.0970   14.9940   24.4620 C.3   436  HIS436      0.0785
     72  CG        53.1390   14.3540   23.5030 C.ar  436  HIS436      0.0821
     73  ND1       53.3600   14.3230   22.1420 N.ar  436  HIS436     -0.2267
     74  CD2       51.9760   13.6870   23.7090 C.ar  436  HIS436      0.1154
     75  CE1       52.3670   13.6780   21.5510 C.ar  436  HIS436      0.1986
     76  NE2       51.5200   13.2770   22.4790 N.ar  436  HIS436     -0.2212
     77  N         56.9310   13.9940   26.5890 N.am  437  GLY437     -0.1940
     78  CA        57.8500   14.5270   27.5720 C.3   437  GLY437      0.2014
     79  C         57.3830   14.4640   29.0110 C.2   437  GLY437      0.2638
     80  O         56.1980   14.2680   29.2850 O.2   437  GLY437     -0.2714
     81  N         58.3280   14.6790   29.9280 N.am  438  ASP438     -0.1971
     82  CA        58.1370   14.3790   31.3470 C.3   438  ASP438      0.1709
     83  C         57.7790   15.5450   32.2940 C.2   438  ASP438      0.2293
     84  O         57.4170   15.3200   33.4560 O.2   438  ASP438     -0.2864
     85  CB        59.3460   13.6060   31.8790 C.3   438  ASP438      0.1436
     86  CG        59.3750   12.1600   31.4020 C.2   438  ASP438      0.3671
     87  OD1       58.6750   11.8280   30.4160 O.co2 438  ASP438     -0.2456
     88  OD2       60.0980   11.3520   32.0240 O.co2 438  ASP438     -0.2456
     89  N         51.9460   12.4840   17.7110 N.3   524  GLU524     -0.1245
     90  CA        53.3060   12.0400   17.4410 C.3   524  GLU524      0.1567
     91  C         53.2650   11.3900   16.0550 C.2   524  GLU524      0.2260
     92  O         52.8600   10.2320   15.9160 O.2   524  GLU524     -0.2867
     93  CB        53.7290   11.0240   18.5020 C.3   524  GLU524      0.0388
     94  CG        55.2150   10.7580   18.6040 C.3   524  GLU524      0.1160
     95  CD        55.5560    9.8800   19.7990 C.2   524  GLU524      0.3649
     96  OE1       54.6380    9.5990   20.6160 O.co2 524  GLU524     -0.2457
     97  OE2       56.7430    9.4770   19.9130 O.co2 524  GLU524     -0.2457
     98  N         54.2450   16.7870   17.0140 N.3   556  ASP556     -0.1239
     99  CA        55.3670   16.5360   17.8950 C.3   556  ASP556      0.1674
    100  C         56.3730   15.7230   17.1010 C.2   556  ASP556      0.2266
    101  O         56.2400   14.5000   16.9740 O.2   556  ASP556     -0.2867
    102  CB        54.9220   15.7800   19.1460 C.3   556  ASP556      0.1410
    103  CG        56.0290   15.6450   20.1870 C.2   556  ASP556      0.3668
    104  OD1       57.2150   15.8330   19.8410 O.co2 556  ASP556     -0.2456
    105  OD2       55.7160   15.3340   21.3590 O.co2 556  ASP556     -0.2456
    106  N         59.6960   15.7390   17.7900 N.3   558  VAL558     -0.1231
    107  CA        60.9100   15.6200   18.5840 C.3   558  VAL558      0.1692
    108  C         61.5940   14.2850   18.2750 C.2   558  VAL558      0.2592
    109  O         62.8160   14.2260   18.1140 O.2   558  VAL558     -0.2718
    110  CB        60.6210   15.7910   20.1040 C.3   558  VAL558      0.0266
    111  CG1       61.8040   15.3390   20.9210 C.3   558  VAL558      0.0020
    112  CG2       60.2910   17.2320   20.4210 C.3   558  VAL558      0.0020
    113  N         60.8030   13.2200   18.1550 N.am  559  PHE559     -0.1976
    114  CA        61.3580   11.9260   17.7790 C.3   559  PHE559      0.1639
    115  C         61.5980   11.7580   16.2690 C.2   559  PHE559      0.2290
    116  O         62.6820   11.3400   15.8590 O.2   559  PHE559     -0.2864
    117  CB        60.5120   10.7900   18.3380 C.3   559  PHE559      0.0560
    118  CG        60.8910    9.4310   17.8180 C.ar  559  PHE559     -0.0200
    119  CD1       61.9920    8.7620   18.3240 C.ar  559  PHE559     -0.0042
    120  CD2       60.1370    8.8160   16.8350 C.ar  559  PHE559     -0.0042
    121  CE1       62.3430    7.5180   17.8530 C.ar  559  PHE559     -0.0003
    122  CE2       60.4830    7.5620   16.3640 C.ar  559  PHE559     -0.0003
    123  CZ        61.5870    6.9160   16.8770 C.ar  559  PHE559     -0.0000
    124  N         63.6080   18.3790   18.4340 N.3   584  ALA584     -0.1231
    125  CA        64.7220   18.2790   19.3640 C.3   584  ALA584      0.1694
    126  C         65.4810   17.0000   19.0610 C.2   584  ALA584      0.2591
    127  O         65.7070   16.6950   17.8920 O.2   584  ALA584     -0.2718
    128  CB        64.2470   18.3170   20.7980 C.3   584  ALA584      0.0304
    129  N         65.8750   16.2540   20.0910 N.am  585  LYS585     -0.1980
    130  CA        66.6610   15.0300   19.8920 C.3   585  LYS585      0.1596
    131  C         67.7080   15.0810   18.7470 C.2   585  LYS585      0.2287
    132  O         68.8750   15.4340   18.9820 O.2   585  LYS585     -0.2864
    133  CB        65.7510   13.7960   19.7930 C.3   585  LYS585      0.0298
    134  CG        65.1830   13.3790   21.1590 C.3   585  LYS585      0.0038
    135  CD        64.3920   12.0710   21.1530 C.3   585  LYS585      0.0206
    136  CE        63.8040   11.7690   22.5250 C.3   585  LYS585      0.1093
    137  NZ        62.3170   11.7720   22.5550 N.3   585  LYS585     -0.1314
@<TRIPOS>BOND
     1   116   115    2
     2    92    91    2
     3    91    90    1
     4   115   114    1
     5   122   120   ar
     6   122   123   ar
     7   120   118   ar
     8   123   121   ar
     9   101   100    2
    10    98    99    1
    11   100    99    1
    12    90    89    1
    13    90    93    1
    14   114   113    1
    15   114   117    1
    16   106   107    1
    17   118   119   ar
    18   118   117    1
    19   121   119   ar
    20   127   126    2
    21    99   102    1
    22   109   108    2
    23   113   108   am
    24   108   107    1
    25   124   125    1
    26    93    94    1
    27   107   110    1
    28    94    95    1
    29   131   132    2
    30   131   130    1
    31   126   125    1
    32   126   129   am
    33   102   103    1
    34    18    17    2
    35   125   128    1
    36   133   130    1
    37   133   134    1
    38    95    97   ar
    39    95    96   ar
    40   104   103   ar
    41   130   129    1
    42    17    16    1
    43   110   112    1
    44   110   111    1
    45    19    16    1
    46    19    20    1
    47   103   105   ar
    48    16    15    1
    49    20    21   ar
    50    20    22   ar
    51    21    23   ar
    52   135   134    1
    53   135   136    1
    54    75    73   ar
    55    75    76   ar
    56    15     3   am
    57    22    25   ar
    58    22    24   ar
    59    23    24   ar
    60    54    52    1
    61    25    27   ar
    62    73    72   ar
    63    24    26   ar
    64    76    74   ar
    65   136   137    1
    66     4     3    2
    67     3     2    1
    68    58    57    2
    69    27    28   ar
    70    26    28   ar
    71    52    51    1
    72    55    56    1
    73    72    74   ar
    74    72    71    1
    75    47    48    1
    76    48    51    1
    77    48    49    1
    78     1     2    1
    79    38    37    1
    80    38    39    1
    81     2     5    1
    82    57    56    1
    83    57    67   am
    84    50    49    2
    85    51    53    1
    86    40    39    2
    87    56    59    1
    88    37    31   am
    89    71    68    1
    90    32    31    2
    91    59    60    1
    92    68    67    1
    93    68    69    1
    94    31    30    1
    95    39    41   am
    96     5     6    1
    97    62    60   ar
    98    62    64   ar
    99    30    29    1
   100    30    33    1
   101    60    61   ar
   102     7     6   ar
   103     7     9   ar
   104    69    70    2
   105    69    77   am
   106     6     8   ar
   107    41    42    1
   108    64    65   ar
   109    33    34    1
   110    77    78    1
   111     9    10   ar
   112    61    63   ar
   113    42    43    1
   114    42    45    1
   115    43    44    2
   116    65    63   ar
   117    65    66    1
   118     8    10   ar
   119     8    11   ar
   120    35    34    2
   121    78    79    1
   122    34    36   am
   123    10    12   ar
   124    11    13   ar
   125    45    46    1
   126    79    80    2
   127    79    81   am
   128    12    14   ar
   129    13    14   ar
   130    81    82    1
   131    87    86   ar
   132    82    85    1
   133    82    83    1
   134    86    85    1
   135    86    88   ar
   136    83    84    2
