@<TRIPOS>MOLECULE
tmp/4a0gC00.pdb
 146 144 0 0 0
SMALL
GASTEIGER

@<TRIPOS>ATOM
      1  N        -26.4530  -15.1440  -93.9230 N.3   342  TRP342     -0.1227
      2  CA       -25.9010  -14.5150  -95.1020 C.3   342  TRP342      0.1737
      3  C        -24.9370  -15.4960  -95.7700 C.2   342  TRP342      0.2595
      4  O        -23.8870  -15.1070  -96.2800 O.2   342  TRP342     -0.2718
      5  CB       -25.2050  -13.2030  -94.7190 C.3   342  TRP342      0.0564
      6  CG       -25.3210  -12.1270  -95.7550 C.ar  342  TRP342      0.0003
      7  CD1      -25.4260  -12.2980  -97.1130 C.ar  342  TRP342      0.0946
      8  CD2      -25.3540  -10.7150  -95.5300 C.ar  342  TRP342      0.0152
      9  NE1      -25.5170  -11.0770  -97.7450 N.ar  342  TRP342     -0.2442
     10  CE2      -25.4760  -10.0870  -96.7930 C.ar  342  TRP342      0.0810
     11  CE3      -25.2890   -9.9130  -94.3840 C.ar  342  TRP342      0.0012
     12  CZ2      -25.5350   -8.7040  -96.9420 C.ar  342  TRP342      0.0191
     13  CZ3      -25.3440   -8.5350  -94.5330 C.ar  342  TRP342      0.0001
     14  CH2      -25.4680   -7.9450  -95.8030 C.ar  342  TRP342      0.0015
     15  N        -25.3060  -16.7760  -95.7500 N.am  343  TRP343     -0.1976
     16  CA       -24.5840  -17.8270  -96.4780 C.3   343  TRP343      0.1640
     17  C        -23.1460  -17.9760  -95.9970 C.2   343  TRP343      0.2290
     18  O        -22.2740  -18.4610  -96.7290 O.2   343  TRP343     -0.2864
     19  CB       -24.6310  -17.5780  -97.9950 C.3   343  TRP343      0.0576
     20  CG       -25.9170  -16.9470  -98.4190 C.ar  343  TRP343      0.0006
     21  CD1      -27.1790  -17.2780  -97.9890 C.ar  343  TRP343      0.0946
     22  CD2      -26.0790  -15.8540  -99.3180 C.ar  343  TRP343      0.0152
     23  NE1      -28.1100  -16.4610  -98.5730 N.ar  343  TRP343     -0.2442
     24  CE2      -27.4600  -15.5740  -99.4000 C.ar  343  TRP343      0.0810
     25  CE3      -25.1920  -15.0860 -100.0770 C.ar  343  TRP343      0.0012
     26  CZ2      -27.9750  -14.5560 -100.2140 C.ar  343  TRP343      0.0191
     27  CZ3      -25.6970  -14.0820 -100.8770 C.ar  343  TRP343      0.0001
     28  CH2      -27.0770  -13.8260 -100.9450 C.ar  343  TRP343      0.0015
     29  N        -12.7040   -9.1170  -97.0200 N.3   403  ASN403     -0.1225
     30  CA       -13.9810   -9.7640  -97.3020 C.3   403  ASN403      0.1785
     31  C        -14.1190  -10.1420  -98.7790 C.2   403  ASN403      0.2598
     32  O        -13.2460   -9.8290  -99.5840 O.2   403  ASN403     -0.2718
     33  CB       -15.1540   -8.8790  -96.8690 C.3   403  ASN403      0.1169
     34  CG       -15.1740   -7.5210  -97.5800 C.2   403  ASN403      0.2627
     35  OD1      -14.9260   -7.4090  -98.8070 O.2   403  ASN403     -0.2716
     36  ND2      -15.4630   -6.4700  -96.7990 N.am  403  ASN403     -0.0877
     37  N        -15.2210  -10.8070  -99.1260 N.am  404  GLY404     -0.1942
     38  CA       -15.4330  -11.2760 -100.4830 C.3   404  GLY404      0.2014
     39  C        -15.3490  -10.1810 -101.5360 C.2   404  GLY404      0.2639
     40  O        -14.8460  -10.4020 -102.6410 O.2   404  GLY404     -0.2714
     41  N        -15.8330   -8.9900 -101.2030 N.am  405  SER405     -0.1949
     42  CA       -15.8400   -7.8980 -102.1630 C.3   405  SER405      0.1924
     43  C        -14.4230   -7.4520 -102.5170 C.2   405  SER405      0.2314
     44  O        -14.0780   -7.2780 -103.7070 O.2   405  SER405     -0.2863
     45  CB       -16.6220   -6.7200 -101.6050 C.3   405  SER405      0.2116
     46  OG       -17.9560   -7.0950 -101.3230 O.3   405  SER405     -0.2180
     47  N        -12.5620   -9.7340 -104.6190 N.3   408  ILE408     -0.1245
     48  CA       -12.9520   -9.5800 -106.0140 C.3   408  ILE408      0.1561
     49  C        -12.3190   -8.3440 -106.7020 C.2   408  ILE408      0.2260
     50  O        -11.8490   -8.4460 -107.8390 O.2   408  ILE408     -0.2867
     51  CB       -14.4870   -9.6100 -106.1630 C.3   408  ILE408      0.0252
     52  CG1      -15.0070  -11.0290 -105.8750 C.3   408  ILE408      0.0019
     53  CG2      -14.9110   -9.1480 -107.5550 C.3   408  ILE408      0.0019
     54  CD1      -16.5160  -11.0940 -105.6030 C.3   408  ILE408      0.0001
     55  N        -23.8690  -11.6410 -108.8810 N.3   432  TYR432     -0.1227
     56  CA       -23.5570  -10.7140 -107.8110 C.3   432  TYR432      0.1736
     57  C        -22.1080  -10.8750 -107.4200 C.2   432  TYR432      0.2595
     58  O        -21.6240  -12.0050 -107.2720 O.2   432  TYR432     -0.2718
     59  CB       -24.4330  -10.9920 -106.5980 C.3   432  TYR432      0.0548
     60  CG       -23.9990  -10.2330 -105.3600 C.ar  432  TYR432     -0.0200
     61  CD1      -24.1300   -8.8440 -105.2890 C.ar  432  TYR432     -0.0009
     62  CD2      -23.4740  -10.9060 -104.2520 C.ar  432  TYR432     -0.0009
     63  CE1      -23.7470   -8.1460 -104.1580 C.ar  432  TYR432      0.0417
     64  CE2      -23.0920  -10.2170 -103.1180 C.ar  432  TYR432      0.0417
     65  CZ       -23.2330   -8.8370 -103.0750 C.ar  432  TYR432      0.1957
     66  OH       -22.8510   -8.1430 -101.9450 O.3   432  TYR432     -0.2866
     67  N        -21.4160   -9.7550 -107.2440 N.am  433  HIS433     -0.1961
     68  CA       -19.9950   -9.8140 -106.9530 C.3   433  HIS433      0.1787
     69  C        -19.5340   -8.7720 -105.9490 C.2   433  HIS433      0.2621
     70  O        -18.3970   -8.3130 -106.0280 O.2   433  HIS433     -0.2715
     71  CB       -19.1750   -9.6810 -108.2380 C.3   433  HIS433      0.0785
     72  CG       -19.5490  -10.6660 -109.3040 C.ar  433  HIS433      0.0821
     73  ND1      -19.2280  -12.0060 -109.2310 N.ar  433  HIS433     -0.2267
     74  CD2      -20.2150  -10.5060 -110.4720 C.ar  433  HIS433      0.1154
     75  CE1      -19.6730  -12.6250 -110.3120 C.ar  433  HIS433      0.1986
     76  NE2      -20.2770  -11.7370 -111.0800 N.ar  433  HIS433     -0.2212
     77  N        -20.3990   -8.3860 -105.0110 N.am  434  GLY434     -0.1940
     78  CA       -19.9610   -7.5180 -103.9180 C.3   434  GLY434      0.2014
     79  C        -20.2270   -6.0090 -103.9820 C.2   434  GLY434      0.2638
     80  O        -20.6030   -5.4530 -105.0230 O.2   434  GLY434     -0.2714
     81  N        -19.9720   -5.3420 -102.8530 N.am  435  ASP435     -0.1971
     82  CA       -20.4760   -3.9920 -102.5890 C.3   435  ASP435      0.1709
     83  C        -19.4000   -2.9160 -102.5270 C.2   435  ASP435      0.2293
     84  O        -19.7210   -1.7220 -102.4720 O.2   435  ASP435     -0.2864
     85  CB       -21.2720   -3.9730 -101.2730 C.3   435  ASP435      0.1436
     86  CG       -22.6260   -4.6760 -101.3870 C.2   435  ASP435      0.3671
     87  OD1      -22.8800   -5.3510 -102.4140 O.co2 435  ASP435     -0.2456
     88  OD2      -23.4380   -4.5560 -100.4400 O.co2 435  ASP435     -0.2456
     89  N        -20.2610  -16.4290 -111.6470 N.3   477  GLU477     -0.1245
     90  CA       -20.6500  -17.0430 -110.3900 C.3   477  GLU477      0.1567
     91  C        -21.0060  -18.4760 -110.7740 C.2   477  GLU477      0.2260
     92  O        -22.1070  -18.7370 -111.2550 O.2   477  GLU477     -0.2867
     93  CB       -21.8890  -16.3420 -109.8340 C.3   477  GLU477      0.0388
     94  CG       -21.7260  -15.7030 -108.4770 C.3   477  GLU477      0.1160
     95  CD       -23.0770  -15.4190 -107.8030 C.2   477  GLU477      0.3649
     96  OE1      -24.0270  -15.0460 -108.5360 O.co2 477  GLU477     -0.2457
     97  OE2      -23.1940  -15.5740 -106.5530 O.co2 477  GLU477     -0.2457
     98  N        -26.3800  -16.7930 -106.5150 N.3   482  GLY482     -0.1210
     99  CA       -26.8990  -16.7040 -105.1640 C.3   482  GLY482      0.1956
    100  C        -27.7910  -15.4970 -104.9520 C.2   482  GLY482      0.2611
    101  O        -29.0220  -15.6230 -104.9320 O.2   482  GLY482     -0.2717
    102  N        -27.1740  -14.3250 -104.8070 N.am  483  ALA483     -0.1979
    103  CA       -27.9190  -13.1080 -104.4760 C.3   483  ALA483      0.1597
    104  C        -28.9810  -12.7180 -105.5230 C.2   483  ALA483      0.2287
    105  O        -29.9030  -11.9470 -105.2320 O.2   483  ALA483     -0.2864
    106  CB       -26.9560  -11.9560 -104.2150 C.3   483  ALA483      0.0319
    107  N        -15.6810  -16.2840 -109.2530 N.3   511  ASP511     -0.1239
    108  CA       -16.1000  -15.7800 -107.9570 C.3   511  ASP511      0.1674
    109  C        -16.7070  -16.9290 -107.1590 C.2   511  ASP511      0.2266
    110  O        -17.8840  -17.2310 -107.3280 O.2   511  ASP511     -0.2867
    111  CB       -17.1290  -14.6660 -108.1200 C.3   511  ASP511      0.1410
    112  CG       -17.6310  -14.1460 -106.7830 C.2   511  ASP511      0.3668
    113  OD1      -17.2320  -14.7030 -105.7330 O.co2 511  ASP511     -0.2456
    114  OD2      -18.4330  -13.1860 -106.7840 O.co2 511  ASP511     -0.2456
    115  N        -16.9000  -16.9740 -103.8140 N.3   513  VAL513     -0.1231
    116  CA       -17.2280  -16.5010 -102.4700 C.3   513  VAL513      0.1692
    117  C        -18.4050  -17.2930 -101.9010 C.2   513  VAL513      0.2592
    118  O        -18.3280  -17.8130 -100.7840 O.2   513  VAL513     -0.2718
    119  CB       -17.5380  -14.9960 -102.4550 C.3   513  VAL513      0.0266
    120  CG1      -18.1370  -14.6100 -101.1290 C.3   513  VAL513      0.0020
    121  CG2      -16.2620  -14.1940 -102.7090 C.3   513  VAL513      0.0020
    122  N        -19.4730  -17.4080 -102.6960 N.am  514  PHE514     -0.1976
    123  CA       -20.6660  -18.1790 -102.3100 C.3   514  PHE514      0.1639
    124  C        -20.4870  -19.6990 -102.4720 C.2   514  PHE514      0.2290
    125  O        -20.7570  -20.4550 -101.5280 O.2   514  PHE514     -0.2864
    126  CB       -21.9030  -17.6800 -103.0860 C.3   514  PHE514      0.0560
    127  CG       -23.1760  -18.4330 -102.7880 C.ar  514  PHE514     -0.0200
    128  CD1      -23.5970  -18.6400 -101.4830 C.ar  514  PHE514     -0.0042
    129  CD2      -23.9670  -18.9140 -103.8240 C.ar  514  PHE514     -0.0042
    130  CE1      -24.7750  -19.3290 -101.2230 C.ar  514  PHE514     -0.0003
    131  CE2      -25.1440  -19.5970 -103.5650 C.ar  514  PHE514     -0.0003
    132  CZ       -25.5460  -19.7980 -102.2740 C.ar  514  PHE514     -0.0000
    133  N        -14.3330  -16.7890  -99.6290 N.3   539  ALA539     -0.1231
    134  CA       -14.6560  -16.2030  -98.3230 C.3   539  ALA539      0.1694
    135  C        -16.0250  -16.7610  -97.9490 C.2   539  ALA539      0.2591
    136  O        -16.4900  -17.7120  -98.5540 O.2   539  ALA539     -0.2718
    137  CB       -14.8940  -14.6970  -98.4300 C.3   539  ALA539      0.0304
    138  N        -16.6780  -16.1490  -96.9660 N.am  540  LYS540     -0.1980
    139  CA       -17.8520  -16.7330  -96.3080 C.3   540  LYS540      0.1596
    140  C        -17.4920  -18.0960  -95.6930 C.2   540  LYS540      0.2287
    141  O        -16.9330  -18.1510  -94.5990 O.2   540  LYS540     -0.2864
    142  CB       -19.1140  -16.7990  -97.1960 C.3   540  LYS540      0.0298
    143  CG       -19.6900  -15.4130  -97.5770 C.3   540  LYS540      0.0038
    144  CD       -20.9750  -15.5190  -98.3910 C.3   540  LYS540      0.0206
    145  CE       -21.5760  -14.1330  -98.7130 C.3   540  LYS540      0.1093
    146  NZ       -21.5070  -13.8050 -100.2020 N.3   540  LYS540     -0.1314
@<TRIPOS>BOND
     1    89    90    1
     2    92    91    2
     3    76    74   ar
     4    76    75   ar
     5    91    90    1
     6    74    72   ar
     7    90    93    1
     8    75    73   ar
     9    93    94    1
    10    72    73   ar
    11    72    71    1
    12   107   108    1
    13    55    56    1
    14    96    95   ar
    15    94    95    1
    16    71    68    1
    17   111   108    1
    18   111   112    1
    19   108   109    1
    20    50    49    2
    21    56    57    1
    22    56    59    1
    23    95    97   ar
    24    53    51    1
    25    57    58    2
    26    57    67   am
    27   110   109    2
    28    67    68    1
    29    68    69    1
    30   114   112   ar
    31   112   113   ar
    32    49    48    1
    33    59    60    1
    34    98    99    1
    35    51    48    1
    36    51    52    1
    37    70    69    2
    38    48    47    1
    39    69    77   am
    40    52    54    1
    41   104   105    2
    42   104   103    1
    43    60    61   ar
    44    60    62   ar
    45    61    63   ar
    46    99   100    1
    47    80    79    2
    48    77    78    1
    49   100   101    2
    50   100   102   am
    51   102   103    1
    52   103   106    1
    53    62    64   ar
    54    63    65   ar
    55    79    78    1
    56    79    81   am
    57   129   131   ar
    58   129   127   ar
    59   115   116    1
    60    44    43    2
    61   131   132   ar
    62    64    65   ar
    63   126   127    1
    64   126   123    1
    65    65    66    1
    66    81    82    1
    67   127   128   ar
    68   121   119    1
    69   122   123    1
    70   122   117   am
    71    40    39    2
    72    82    83    1
    73    82    85    1
    74    83    84    2
    75    43    42    1
    76   124   123    1
    77   124   125    2
    78   116   119    1
    79   116   117    1
    80   119   120    1
    81    87    86   ar
    82   132   130   ar
    83    42    45    1
    84    42    41    1
    85   117   118    2
    86    45    46    1
    87    39    41   am
    88    39    38    1
    89   128   130   ar
    90    86    85    1
    91    86    88   ar
    92    28    27   ar
    93    28    26   ar
    94    27    25   ar
    95    38    37    1
    96    26    24   ar
    97   146   145    1
    98    25    22   ar
    99   133   134    1
   100    32    31    2
   101    24    22   ar
   102    24    23   ar
   103    22    20   ar
   104    37    31   am
   105    35    34    2
   106    31    30    1
   107   145   144    1
   108    23    21   ar
   109   136   135    2
   110   137   134    1
   111    20    19    1
   112    20    21   ar
   113   144   143    1
   114   134   135    1
   115    19    16    1
   116   135   138   am
   117     9     7   ar
   118     9    10   ar
   119    34    33    1
   120    34    36   am
   121   143   142    1
   122    30    29    1
   123    30    33    1
   124   142   139    1
   125     7     6   ar
   126   138   139    1
   127    12    10   ar
   128    12    14   ar
   129    10     8   ar
   130    18    17    2
   131    16    17    1
   132    16    15    1
   133   139   140    1
   134     4     3    2
   135    14    13   ar
   136     3    15   am
   137     3     2    1
   138     6     8   ar
   139     6     5    1
   140   140   141    2
   141     8    11   ar
   142     2     5    1
   143     2     1    1
   144    13    11   ar
