@<TRIPOS>MOLECULE
tmp/4a0gA00.pdb
 142 140 0 0 0
SMALL
GASTEIGER

@<TRIPOS>ATOM
      1  N        -30.8790   -4.9100  -11.7000 N.3   354  TRP354     -0.1227
      2  CA       -30.2360   -5.4590  -10.5130 C.3   354  TRP354      0.1737
      3  C        -29.6350   -4.3340   -9.6460 C.2   354  TRP354      0.2595
      4  O        -28.5460   -4.4660   -9.0850 O.2   354  TRP354     -0.2718
      5  CB       -29.1970   -6.5040  -10.9410 C.3   354  TRP354      0.0564
      6  CG       -29.0440   -7.7370  -10.0590 C.ar  354  TRP354      0.0003
      7  CD1      -29.0560   -7.7840   -8.6960 C.ar  354  TRP354      0.0946
      8  CD2      -28.8020   -9.0830  -10.5010 C.ar  354  TRP354      0.0152
      9  NE1      -28.8340   -9.0720   -8.2620 N.ar  354  TRP354     -0.2442
     10  CE2      -28.6810   -9.8920   -9.3550 C.ar  354  TRP354      0.0810
     11  CE3      -28.6750   -9.6860  -11.7600 C.ar  354  TRP354      0.0012
     12  CZ2      -28.4440  -11.2660   -9.4220 C.ar  354  TRP354      0.0191
     13  CZ3      -28.4380  -11.0570  -11.8280 C.ar  354  TRP354      0.0001
     14  CH2      -28.3250  -11.8260  -10.6670 C.ar  354  TRP354      0.0015
     15  N        -30.3620   -3.2310   -9.5480 N.am  355  TRP355     -0.1976
     16  CA       -29.9730   -2.1220   -8.6790 C.3   355  TRP355      0.1640
     17  C        -28.6270   -1.4660   -9.0900 C.2   355  TRP355      0.2290
     18  O        -27.9800   -0.7490   -8.3000 O.2   355  TRP355     -0.2864
     19  CB       -29.9720   -2.5690   -7.1990 C.3   355  TRP355      0.0576
     20  CG       -31.0500   -3.5730   -6.8840 C.ar  355  TRP355      0.0006
     21  CD1      -32.2910   -3.6410   -7.4470 C.ar  355  TRP355      0.0946
     22  CD2      -30.9680   -4.6800   -5.9760 C.ar  355  TRP355      0.0152
     23  NE1      -32.9940   -4.7010   -6.9390 N.ar  355  TRP355     -0.2442
     24  CE2      -32.2080   -5.3570   -6.0360 C.ar  355  TRP355      0.0810
     25  CE3      -29.9760   -5.1590   -5.1140 C.ar  355  TRP355      0.0012
     26  CZ2      -32.4740   -6.4860   -5.2680 C.ar  355  TRP355      0.0191
     27  CZ3      -30.2420   -6.2830   -4.3620 C.ar  355  TRP355      0.0001
     28  CH2      -31.4770   -6.9300   -4.4390 C.ar  355  TRP355      0.0015
     29  N        -16.2510   -6.7880   -7.5810 N.3   415  ASN415     -0.1225
     30  CA       -17.6780   -6.5670   -7.3260 C.3   415  ASN415      0.1785
     31  C        -18.0380   -6.5060   -5.8460 C.2   415  ASN415      0.2598
     32  O        -17.1660   -6.5910   -4.9950 O.2   415  ASN415     -0.2718
     33  CB       -18.5380   -7.6010   -8.0690 C.3   415  ASN415      0.1169
     34  CG       -18.3060   -9.0210   -7.5890 C.2   415  ASN415      0.2627
     35  OD1      -17.8110   -9.2640   -6.4780 O.2   415  ASN415     -0.2716
     36  ND2      -18.6870   -9.9760   -8.4190 N.am  415  ASN415     -0.0877
     37  N        -19.3230   -6.3650   -5.5410 N.am  416  GLY416     -0.1942
     38  CA       -19.7490   -6.2220   -4.1610 C.3   416  GLY416      0.2014
     39  C        -19.2200   -7.3730   -3.3290 C.2   416  GLY416      0.2639
     40  O        -18.7040   -7.1960   -2.2150 O.2   416  GLY416     -0.2714
     41  N        -19.3220   -8.5660   -3.8960 N.am  417  SER417     -0.1949
     42  CA       -19.0450   -9.7820   -3.1500 C.3   417  SER417      0.1924
     43  C        -17.5560   -9.8810   -2.8000 C.2   417  SER417      0.2314
     44  O        -17.1940  -10.2460   -1.6980 O.2   417  SER417     -0.2863
     45  CB       -19.5410  -11.0220   -3.9250 C.3   417  SER417      0.2116
     46  OG       -19.7870  -12.1260   -3.0510 O.3   417  SER417     -0.2180
     47  N        -16.6770   -7.2580   -0.0810 N.3   420  ILE420     -0.1245
     48  CA       -17.1050   -7.7490    1.2220 C.3   420  ILE420      0.1561
     49  C        -16.1050   -8.7260    1.8480 C.2   420  ILE420      0.2260
     50  O        -15.7950   -8.6250    3.0400 O.2   420  ILE420     -0.2867
     51  CB       -18.5120   -8.4210    1.1480 C.3   420  ILE420      0.0252
     52  CG1      -19.6060   -7.3690    0.9530 C.3   420  ILE420      0.0019
     53  CG2      -18.7890   -9.2050    2.4070 C.3   420  ILE420      0.0019
     54  CD1      -19.5800   -6.2690    1.9850 C.3   420  ILE420      0.0001
     55  N        -27.8700   -8.8470    3.4560 N.3   449  TYR449     -0.1227
     56  CA       -27.3320   -9.6100    2.3290 C.3   449  TYR449      0.1736
     57  C        -26.0200   -8.9740    1.8970 C.2   449  TYR449      0.2595
     58  O        -25.8640   -7.7460    1.9310 O.2   449  TYR449     -0.2718
     59  CB       -28.2980   -9.5700    1.1420 C.3   449  TYR449      0.0548
     60  CG       -27.6840  -10.0530   -0.1450 C.ar  449  TYR449     -0.0200
     61  CD1      -27.5570  -11.4130   -0.4020 C.ar  449  TYR449     -0.0009
     62  CD2      -27.2420   -9.1570   -1.1180 C.ar  449  TYR449     -0.0009
     63  CE1      -27.0120  -11.8690   -1.5780 C.ar  449  TYR449      0.0417
     64  CE2      -26.6830   -9.6080   -2.2990 C.ar  449  TYR449      0.0417
     65  CZ       -26.5640  -10.9710   -2.5180 C.ar  449  TYR449      0.1957
     66  OH       -26.0350  -11.4840   -3.6850 O.3   449  TYR449     -0.2866
     67  N        -25.0810   -9.7920    1.4560 N.am  450  HIS450     -0.1961
     68  CA       -23.7600   -9.2580    1.2250 C.3   450  HIS450      0.1787
     69  C        -23.0150   -9.9200    0.0960 C.2   450  HIS450      0.2621
     70  O        -21.7950   -9.8350    0.0470 O.2   450  HIS450     -0.2715
     71  CB       -22.9400   -9.3370    2.5080 C.3   450  HIS450      0.0785
     72  CG       -23.6100   -8.6930    3.6740 C.ar  450  HIS450      0.0821
     73  ND1      -23.6640   -7.3290    3.8310 N.ar  450  HIS450     -0.2267
     74  CD2      -24.2970   -9.2200    4.7140 C.ar  450  HIS450      0.1154
     75  CE1      -24.3230   -7.0410    4.9420 C.ar  450  HIS450      0.1986
     76  NE2      -24.7160   -8.1720    5.4980 N.ar  450  HIS450     -0.2212
     77  N        -23.7350  -10.5500   -0.8270 N.am  451  GLY451     -0.1940
     78  CA       -23.0810  -11.1200   -1.9940 C.3   451  GLY451      0.2014
     79  C        -23.0040  -12.6320   -1.9360 C.2   451  GLY451      0.2638
     80  O        -23.1470  -13.2240   -0.8710 O.2   451  GLY451     -0.2714
     81  N        -22.7830  -13.2700   -3.0760 N.am  452  ASP452     -0.1971
     82  CA       -22.9370  -14.7200   -3.1450 C.3   452  ASP452      0.1709
     83  C        -21.6560  -15.6040   -3.0970 C.2   452  ASP452      0.2293
     84  O        -21.7540  -16.8110   -3.1940 O.2   452  ASP452     -0.2864
     85  CB       -23.7350  -15.0780   -4.3950 C.3   452  ASP452      0.1436
     86  CG       -25.1440  -14.5220   -4.3750 C.2   452  ASP452      0.3671
     87  OD1      -25.5670  -13.9960   -3.3280 O.co2 452  ASP452     -0.2456
     88  OD2      -25.8340  -14.6250   -5.4100 O.co2 452  ASP452     -0.2456
     89  N        -26.1090   -3.6700    6.3680 N.3   548  GLU548     -0.1245
     90  CA       -26.6820   -2.9050    5.2630 C.3   548  GLU548      0.1567
     91  C        -27.3480   -1.6830    5.8780 C.2   548  GLU548      0.2260
     92  O        -28.4340   -1.7930    6.4060 O.2   548  GLU548     -0.2867
     93  CB       -27.7500   -3.7220    4.5340 C.3   548  GLU548      0.0388
     94  CG       -27.2420   -4.6390    3.4160 C.3   548  GLU548      0.1160
     95  CD       -28.3760   -5.2610    2.6390 C.2   548  GLU548      0.3649
     96  OE1      -28.8800   -4.6150    1.7010 O.co2 548  GLU548     -0.2457
     97  OE2      -28.7870   -6.3810    2.9920 O.co2 548  GLU548     -0.2457
     98  N        -31.8380   -7.0110   -0.7380 N.3   554  ALA554     -0.1245
     99  CA       -32.1770   -8.3330   -1.2500 C.3   554  ALA554      0.1562
    100  C        -33.1690   -9.0150   -0.3390 C.2   554  ALA554      0.2260
    101  O        -33.9630   -9.8310   -0.7970 O.2   554  ALA554     -0.2867
    102  CB       -30.9300   -9.1940   -1.4000 C.3   554  ALA554      0.0290
    103  N        -21.7860   -2.1460    4.6310 N.3   582  ASP582     -0.1239
    104  CA       -21.9670   -2.6330    3.2830 C.3   582  ASP582      0.1674
    105  C        -22.8850   -1.6760    2.5460 C.2   582  ASP582      0.2266
    106  O        -24.1010   -1.7850    2.6370 O.2   582  ASP582     -0.2867
    107  CB       -22.5600   -4.0450    3.2740 C.3   582  ASP582      0.1410
    108  CG       -22.7670   -4.5840    1.8610 C.2   582  ASP582      0.3668
    109  OD1      -22.6800   -3.7840    0.8900 O.co2 582  ASP582     -0.2456
    110  OD2      -23.0510   -5.7980    1.7260 O.co2 582  ASP582     -0.2456
    111  N        -22.8880   -1.3080   -0.7570 N.3   584  VAL584     -0.1231
    112  CA       -22.9310   -1.6940   -2.1510 C.3   584  VAL584      0.1692
    113  C        -24.2720   -1.3100   -2.7750 C.2   584  VAL584      0.2592
    114  O        -24.3260   -0.8360   -3.9160 O.2   584  VAL584     -0.2718
    115  CB       -22.6400   -3.1830   -2.3280 C.3   584  VAL584      0.0266
    116  CG1      -23.0560   -3.6410   -3.7250 C.3   584  VAL584      0.0020
    117  CG2      -21.1790   -3.4380   -2.0640 C.3   584  VAL584      0.0020
    118  N        -25.3470   -1.5090   -2.0240 N.am  585  PHE585     -0.1976
    119  CA       -26.6690   -1.0960   -2.4790 C.3   585  PHE585      0.1639
    120  C        -26.8780    0.3930   -2.2590 C.2   585  PHE585      0.2290
    121  O        -27.2750    1.0900   -3.1810 O.2   585  PHE585     -0.2864
    122  CB       -27.7800   -1.9020   -1.7890 C.3   585  PHE585      0.0560
    123  CG       -29.1770   -1.4950   -2.1920 C.ar  585  PHE585     -0.0200
    124  CD1      -29.5810   -1.5450   -3.5140 C.ar  585  PHE585     -0.0042
    125  CD2      -30.0940   -1.0680   -1.2400 C.ar  585  PHE585     -0.0042
    126  CE1      -30.8810   -1.1850   -3.8860 C.ar  585  PHE585     -0.0003
    127  CE2      -31.3990   -0.6940   -1.6020 C.ar  585  PHE585     -0.0003
    128  CZ       -31.7930   -0.7610   -2.9220 C.ar  585  PHE585     -0.0000
    129  N        -20.1420   -0.5180   -4.6720 N.3   610  ALA610     -0.1231
    130  CA       -20.1630   -1.0330   -6.0350 C.3   610  ALA610      0.1694
    131  C        -21.4490   -0.5660   -6.7080 C.2   610  ALA610      0.2591
    132  O        -21.8410    0.5910   -6.5520 O.2   610  ALA610     -0.2718
    133  CB       -20.0420   -2.5520   -6.0680 C.3   610  ALA610      0.0304
    134  N        -22.1100   -1.4560   -7.4410 N.am  611  LYS611     -0.1980
    135  CA       -23.3230   -1.0870   -8.1970 C.3   611  LYS611      0.1596
    136  C        -23.2800    0.3390   -8.8060 C.2   611  LYS611      0.2287
    137  O        -22.6670    0.5380   -9.8650 O.2   611  LYS611     -0.2864
    138  CB       -24.6010   -1.3630   -7.3750 C.3   611  LYS611      0.0298
    139  CG       -24.8650   -2.8850   -7.2320 C.3   611  LYS611      0.0038
    140  CD       -26.1210   -3.2750   -6.4450 C.3   611  LYS611      0.0206
    141  CE       -26.2040   -4.8260   -6.3440 C.3   611  LYS611      0.1093
    142  NZ       -26.1330   -5.3390   -4.9400 N.3   611  LYS611     -0.1314
@<TRIPOS>BOND
     1    13    11   ar
     2    13    14   ar
     3    11     8   ar
     4     1     2    1
     5     5     2    1
     6     5     6    1
     7    14    12   ar
     8     2     3    1
     9     8     6   ar
    10     8    10   ar
    11     6     7   ar
    12   137   136    2
    13     3    15   am
    14     3     4    2
    15    15    16    1
    16    12    10   ar
    17    10     9   ar
    18    17    16    1
    19    17    18    2
    20   136   135    1
    21     7     9   ar
    22    16    19    1
    23    36    34   am
    24   135   134    1
    25   135   138    1
    26    33    34    1
    27    33    30    1
    28    34    35    2
    29    29    30    1
    30    21    23   ar
    31    21    20   ar
    32   134   131   am
    33   138   139    1
    34    30    31    1
    35   139   140    1
    36    19    20    1
    37    23    24   ar
    38    20    22   ar
    39   131   132    2
    40   131   130    1
    41   140   141    1
    42   141   142    1
    43   133   130    1
    44    24    22   ar
    45    24    26   ar
    46   130   129    1
    47    22    25   ar
    48    31    37   am
    49    31    32    2
    50    37    38    1
    51    88    86   ar
    52    26    28   ar
    53    25    27   ar
    54    28    27   ar
    55    85    86    1
    56    85    82    1
    57    86    87   ar
    58    38    39    1
    59    45    42    1
    60    45    46    1
    61   114   113    2
    62    41    39   am
    63    41    42    1
    64   126   124   ar
    65   126   128   ar
    66   116   115    1
    67    66    65    1
    68   124   123   ar
    69    39    40    2
    70    84    83    2
    71   121   120    2
    72    42    43    1
    73    82    83    1
    74    82    81    1
    75    81    79   am
    76   128   127   ar
    77    43    44    2
    78   113   112    1
    79   113   118   am
    80    65    64   ar
    81    65    63   ar
    82   119   120    1
    83   119   118    1
    84   119   122    1
    85   115   112    1
    86   115   117    1
    87    64    62   ar
    88   123   122    1
    89   123   125   ar
    90   112   111    1
    91    78    79    1
    92    78    77    1
    93    79    80    2
    94   127   125   ar
    95    63    61   ar
    96   102    99    1
    97    99    98    1
    98    99   100    1
    99    62    60   ar
   100    77    69   am
   101   101   100    2
   102    61    60   ar
   103    60    59    1
   104    47    48    1
   105    70    69    2
   106    69    68    1
   107   109   108   ar
   108    52    51    1
   109    52    54    1
   110    59    56    1
   111    51    48    1
   112    51    53    1
   113    48    49    1
   114    68    67    1
   115    68    71    1
   116    67    57   am
   117    96    95   ar
   118   110   108   ar
   119    49    50    2
   120   108   107    1
   121    57    58    2
   122    57    56    1
   123    56    55    1
   124    71    72    1
   125   105   106    2
   126   105   104    1
   127    95    97   ar
   128    95    94    1
   129   107   104    1
   130   104   103    1
   131    94    93    1
   132    72    73   ar
   133    72    74   ar
   134    73    75   ar
   135    93    90    1
   136    74    76   ar
   137    75    76   ar
   138    90    91    1
   139    90    89    1
   140    91    92    2
