@<TRIPOS>MOLECULE
tmp/4a0gD01.pdb
 134 132 0 0 0
SMALL
GASTEIGER

@<TRIPOS>ATOM
      1  N          1.6710   -2.5710  -87.7520 N.3   330  TRP330     -0.1227
      2  CA         0.8680   -1.6790  -88.5660 C.3   330  TRP330      0.1737
      3  C         -0.0740   -0.8860  -87.6570 C.2   330  TRP330      0.2595
      4  O         -1.2270   -0.6420  -87.9950 O.2   330  TRP330     -0.2718
      5  CB         0.1060   -2.4770  -89.6300 C.3   330  TRP330      0.0564
      6  CG        -0.0640   -1.7620  -90.9320 C.ar  330  TRP330      0.0003
      7  CD1       -0.1870   -0.4120  -91.1240 C.ar  330  TRP330      0.0946
      8  CD2       -0.1290   -2.3570  -92.2370 C.ar  330  TRP330      0.0152
      9  NE1       -0.3370   -0.1310  -92.4650 N.ar  330  TRP330     -0.2442
     10  CE2       -0.3010   -1.3070  -93.1720 C.ar  330  TRP330      0.0810
     11  CE3       -0.0640   -3.6760  -92.7080 C.ar  330  TRP330      0.0012
     12  CZ2       -0.4040   -1.5370  -94.5520 C.ar  330  TRP330      0.0191
     13  CZ3       -0.1710   -3.9020  -94.0820 C.ar  330  TRP330      0.0001
     14  CH2       -0.3340   -2.8340  -94.9840 C.ar  330  TRP330      0.0015
     15  N          0.4410   -0.4990  -86.4950 N.am  331  TRP331     -0.1976
     16  CA        -0.2690    0.3880  -85.5790 C.3   331  TRP331      0.1640
     17  C         -1.5880   -0.2180  -85.1140 C.2   331  TRP331      0.2290
     18  O         -2.5080    0.4930  -84.7130 O.2   331  TRP331     -0.2864
     19  CB        -0.4930    1.7600  -86.2190 C.3   331  TRP331      0.0576
     20  CG         0.6270    2.1620  -87.1100 C.ar  331  TRP331      0.0006
     21  CD1        1.9610    2.0100  -86.8710 C.ar  331  TRP331      0.0946
     22  CD2        0.5200    2.7620  -88.3980 C.ar  331  TRP331      0.0152
     23  NE1        2.6870    2.4840  -87.9210 N.ar  331  TRP331     -0.2442
     24  CE2        1.8270    2.9480  -88.8840 C.ar  331  TRP331      0.0810
     25  CE3       -0.5540    3.1630  -89.1940 C.ar  331  TRP331      0.0012
     26  CZ2        2.0940    3.5160  -90.1310 C.ar  331  TRP331      0.0191
     27  CZ3       -0.2890    3.7250  -90.4290 C.ar  331  TRP331      0.0001
     28  CH2        1.0210    3.8970  -90.8870 C.ar  331  TRP331      0.0015
     29  N        -12.9470   -2.9920  -92.3040 N.3   391  ASN391     -0.1225
     30  CA       -11.6680   -2.3530  -91.9590 C.3   391  ASN391      0.1785
     31  C        -11.7210   -0.8330  -91.9600 C.2   391  ASN391      0.2598
     32  O        -12.7310   -0.2460  -92.3320 O.2   391  ASN391     -0.2718
     33  CB       -10.5400   -2.8480  -92.8740 C.3   391  ASN391      0.1169
     34  CG       -10.8160   -2.5980  -94.3460 C.2   391  ASN391      0.2627
     35  OD1      -11.2850   -1.5310  -94.7420 O.2   391  ASN391     -0.2716
     36  ND2      -10.5170   -3.5910  -95.1680 N.am  391  ASN391     -0.0877
     37  N        -10.6230   -0.1970  -91.5700 N.am  392  GLY392     -0.1942
     38  CA       -10.5600    1.2570  -91.5410 C.3   392  GLY392      0.2014
     39  C        -10.9400    1.9610  -92.8350 C.2   392  GLY392      0.2639
     40  O        -11.5790    2.9990  -92.8150 O.2   392  GLY392     -0.2714
     41  N        -10.5490    1.3900  -93.9640 N.am  393  SER393     -0.1949
     42  CA       -10.8130    2.0000  -95.2530 C.3   393  SER393      0.1924
     43  C        -12.3080    2.0350  -95.5660 C.2   393  SER393      0.2314
     44  O        -12.8520    3.0720  -95.9640 O.2   393  SER393     -0.2863
     45  CB       -10.0790    1.2330  -96.3450 C.3   393  SER393      0.2116
     46  OG        -8.6900    1.2040  -96.1020 O.3   393  SER393     -0.2180
     47  N        -14.2550    4.4340  -93.6870 N.3   396  ILE396     -0.1245
     48  CA       -14.0860    5.7740  -94.2260 C.3   396  ILE396      0.1561
     49  C        -14.9220    6.0110  -95.4840 C.2   396  ILE396      0.2260
     50  O        -15.5470    7.0630  -95.6080 O.2   396  ILE396     -0.2867
     51  CB       -12.6110    6.0950  -94.4770 C.3   396  ILE396      0.0252
     52  CG1      -11.9010    6.3220  -93.1420 C.3   396  ILE396      0.0019
     53  CG2      -12.4690    7.3130  -95.3760 C.3   396  ILE396      0.0019
     54  CD1      -10.3920    6.2780  -93.2290 C.3   396  ILE396      0.0001
     55  N         -3.6070   10.4190  -94.5590 N.3   422  TYR422     -0.1227
     56  CA        -3.8420    9.1000  -95.1250 C.3   422  TYR422      0.1736
     57  C         -5.1740    8.5870  -94.6550 C.2   422  TYR422      0.2595
     58  O         -5.4890    8.6880  -93.4770 O.2   422  TYR422     -0.2718
     59  CB        -2.7590    8.1230  -94.6810 C.3   422  TYR422      0.0548
     60  CG        -3.0710    6.6850  -95.0250 C.ar  422  TYR422     -0.0200
     61  CD1       -3.0660    6.2490  -96.3460 C.ar  422  TYR422     -0.0009
     62  CD2       -3.3630    5.7590  -94.0300 C.ar  422  TYR422     -0.0009
     63  CE1       -3.3530    4.9400  -96.6610 C.ar  422  TYR422      0.0417
     64  CE2       -3.6410    4.4480  -94.3380 C.ar  422  TYR422      0.0417
     65  CZ        -3.6400    4.0420  -95.6510 C.ar  422  TYR422      0.1957
     66  OH        -3.9230    2.7320  -95.9490 O.3   422  TYR422     -0.2866
     67  N         -5.9560    8.0290  -95.5710 N.am  423  HIS423     -0.1961
     68  CA        -7.3040    7.5940  -95.2340 C.3   423  HIS423      0.1787
     69  C         -7.7120    6.2790  -95.9040 C.2   423  HIS423      0.2620
     70  O         -8.8830    6.0970  -96.2180 O.2   423  HIS423     -0.2715
     71  CB        -8.3260    8.6930  -95.5810 C.3   423  HIS423      0.0785
     72  CG        -8.0180   10.0310  -94.9710 C.ar  423  HIS423      0.0821
     73  ND1       -8.1610   10.2900  -93.6250 N.ar  423  HIS423     -0.2267
     74  CD2       -7.5890   11.1890  -95.5290 C.ar  423  HIS423      0.1154
     75  CE1       -7.8310   11.5460  -93.3810 C.ar  423  HIS423      0.1986
     76  NE2       -7.4830   12.1150  -94.5200 N.ar  423  HIS423     -0.2212
     77  N         -6.7590    5.3770  -96.1360 N.am  424  GLY424     -0.1954
     78  CA        -7.0880    4.0490  -96.6340 C.3   424  GLY424      0.1869
     79  C         -6.9810    3.7260  -98.1220 C.2   424  GLY424      0.2309
     80  O         -6.7990    4.6050  -98.9580 O.2   424  GLY424     -0.2863
     81  N         -7.0940   13.8790  -90.2420 N.3   502  GLU502     -0.1245
     82  CA        -6.4460   12.9420  -89.3410 C.3   502  GLU502      0.1567
     83  C         -6.0080   13.7480  -88.1230 C.2   502  GLU502      0.2260
     84  O         -4.9840   14.4140  -88.1660 O.2   502  GLU502     -0.2867
     85  CB        -5.2040   12.3680  -90.0170 C.3   502  GLU502      0.0388
     86  CG        -5.1970   10.8610  -90.2280 C.3   502  GLU502      0.1160
     87  CD        -3.8160   10.3260  -90.5750 C.2   502  GLU502      0.3649
     88  OE1       -3.0690   11.0220  -91.2920 O.co2 502  GLU502     -0.2457
     89  OE2       -3.4750    9.2150  -90.1240 O.co2 502  GLU502     -0.2457
     90  N          0.5890    7.6710  -91.4290 N.3   508  ALA508     -0.1245
     91  CA         1.2200    7.1240  -92.6170 C.3   508  ALA508      0.1562
     92  C          2.0640    8.1310  -93.3940 C.2   508  ALA508      0.2260
     93  O          2.9560    7.7320  -94.1390 O.2   508  ALA508     -0.2867
     94  CB         0.1770    6.4950  -93.5210 C.3   508  ALA508      0.0290
     95  N        -11.2070   11.0200  -89.0400 N.3   536  ASP536     -0.1239
     96  CA       -10.6420    9.7010  -89.2480 C.3   536  ASP536      0.1674
     97  C         -9.8000    9.3250  -88.0370 C.2   536  ASP536      0.2266
     98  O         -8.6290    9.7150  -87.9630 O.2   536  ASP536     -0.2867
     99  CB        -9.7780    9.6750  -90.5150 C.3   536  ASP536      0.1410
    100  CG        -9.1180    8.3210  -90.7440 C.2   536  ASP536      0.3668
    101  OD1       -9.2630    7.4300  -89.8790 O.co2 536  ASP536     -0.2456
    102  OD2       -8.4430    8.1450  -91.7790 O.co2 536  ASP536     -0.2456
    103  N         -9.1370    6.1500  -87.1250 N.3   538  VAL538     -0.1231
    104  CA        -8.5820    4.8180  -87.2770 C.3   538  VAL538      0.1692
    105  C         -7.2310    4.6590  -86.5680 C.2   538  VAL538      0.2592
    106  O         -7.0320    3.7190  -85.8110 O.2   538  VAL538     -0.2718
    107  CB        -8.4420    4.4520  -88.7600 C.3   538  VAL538      0.0266
    108  CG1       -7.6320    3.1750  -88.9080 C.3   538  VAL538      0.0020
    109  CG2       -9.8190    4.2990  -89.3790 C.3   538  VAL538      0.0020
    110  N         -6.3120    5.5830  -86.8190 N.am  539  PHE539     -0.1976
    111  CA        -5.0100    5.5690  -86.1610 C.3   539  PHE539      0.1639
    112  C         -5.0650    6.1060  -84.7220 C.2   539  PHE539      0.2290
    113  O         -4.6080    5.4570  -83.8130 O.2   539  PHE539     -0.2864
    114  CB        -3.9730    6.3320  -86.9860 C.3   539  PHE539      0.0560
    115  CG        -2.6180    6.4210  -86.3440 C.ar  539  PHE539     -0.0200
    116  CD1       -2.0010    5.2960  -85.8260 C.ar  539  PHE539     -0.0042
    117  CD2       -1.9370    7.6240  -86.3090 C.ar  539  PHE539     -0.0042
    118  CE1       -0.7420    5.3790  -85.2590 C.ar  539  PHE539     -0.0003
    119  CE2       -0.6770    7.7090  -85.7450 C.ar  539  PHE539     -0.0003
    120  CZ        -0.0790    6.5830  -85.2210 C.ar  539  PHE539     -0.0000
    121  N        -10.9100    1.8440  -85.9400 N.3   564  ALA564     -0.1231
    122  CA       -10.4790    0.4790  -86.1870 C.3   564  ALA564      0.1694
    123  C         -9.1290    0.2650  -85.5070 C.2   564  ALA564      0.2591
    124  O         -8.8560    0.8490  -84.4510 O.2   564  ALA564     -0.2718
    125  CB       -10.3960    0.2120  -87.6640 C.3   564  ALA564      0.0304
    126  N         -8.2950   -0.5770  -86.1100 N.am  565  LYS565     -0.1980
    127  CA        -6.9730   -0.8440  -85.5830 C.3   565  LYS565      0.1596
    128  C         -7.0210   -1.1560  -84.0910 C.2   565  LYS565      0.2287
    129  O         -7.2450   -2.2990  -83.7070 O.2   565  LYS565     -0.2864
    130  CB        -6.0340    0.3390  -85.8590 C.3   565  LYS565      0.0298
    131  CG        -5.7600    0.5830  -87.3520 C.3   565  LYS565      0.0038
    132  CD        -4.3580    1.1020  -87.6430 C.3   565  LYS565      0.0206
    133  CE        -4.0650    1.0940  -89.1730 C.3   565  LYS565      0.1093
    134  NZ        -4.3310    2.4140  -89.8180 N.3   565  LYS565     -0.1314
@<TRIPOS>BOND
     1    80    79    2
     2    79    78    1
     3    63    61   ar
     4    63    65   ar
     5    78    77    1
     6    61    60   ar
     7    45    46    1
     8    45    42    1
     9    70    69    2
    10    77    69   am
    11    44    43    2
    12    66    65    1
    13    69    68    1
    14    65    64   ar
    15    50    49    2
    16    71    68    1
    17    71    72    1
    18    67    68    1
    19    67    57   am
    20    43    42    1
    21    74    72   ar
    22    74    76   ar
    23    49    48    1
    24    53    51    1
    25    42    41    1
    26    36    34   am
    27    56    59    1
    28    56    57    1
    29    56    55    1
    30    60    59    1
    31    60    62   ar
    32    14    12   ar
    33    14    13   ar
    34    72    73   ar
    35    35    34    2
    36    57    58    2
    37    12    10   ar
    38    76    75   ar
    39    51    48    1
    40    51    52    1
    41    34    33    1
    42    64    62   ar
    43    48    47    1
    44    93    92    2
    45    13    11   ar
    46    41    39   am
    47    73    75   ar
    48    94    91    1
    49    92    91    1
    50    54    52    1
    51    10     9   ar
    52    10     8   ar
    53    33    30    1
    54    39    40    2
    55    39    38    1
    56    11     8   ar
    57    91    90    1
    58     9     7   ar
    59    32    31    2
    60    29    30    1
    61     8     6   ar
    62    31    30    1
    63    31    37   am
    64   102   100   ar
    65    37    38    1
    66    88    87   ar
    67     7     6   ar
    68     6     5    1
    69    28    27   ar
    70    28    26   ar
    71   100    99    1
    72   100   101   ar
    73    87    86    1
    74    87    89   ar
    75    99    96    1
    76    27    25   ar
    77    81    82    1
    78    86    85    1
    79    26    24   ar
    80    85    82    1
    81   134   133    1
    82     5     2    1
    83   109   107    1
    84    82    83    1
    85    96    95    1
    86    96    97    1
    87    25    22   ar
    88   133   132    1
    89   108   107    1
    90    24    22   ar
    91    24    23   ar
    92   107   104    1
    93     2     1    1
    94     2     3    1
    95    22    20   ar
    96    84    83    2
    97    97    98    2
    98     4     3    2
    99    23    21   ar
   100   125   122    1
   101     3    15   am
   102   132   131    1
   103   131   130    1
   104   104   103    1
   105   104   105    1
   106    20    21   ar
   107    20    19    1
   108   114   115    1
   109   114   111    1
   110   110   105   am
   111   110   111    1
   112   105   106    2
   113    15    16    1
   114   115   117   ar
   115   115   116   ar
   116   117   119   ar
   117    19    16    1
   118   122   121    1
   119   122   123    1
   120   111   112    1
   121   126   127    1
   122   126   123   am
   123   130   127    1
   124   116   118   ar
   125   119   120   ar
   126   127   128    1
   127    16    17    1
   128   123   124    2
   129   118   120   ar
   130    17    18    2
   131   112   113    2
   132   128   129    2
