@<TRIPOS>MOLECULE
tmp/4a0hA01.pdb
 133 132 0 0 0
SMALL
GASTEIGER

@<TRIPOS>ATOM
      1  N         37.2940  -32.0530    8.0590 N.3   307  PHE307     -0.1241
      2  CA        37.9660  -33.2560    8.5330 C.3   307  PHE307      0.1605
      3  C         37.2450  -34.5600    8.1490 C.2   307  PHE307      0.2264
      4  O         37.0600  -35.4330    9.0150 O.2   307  PHE307     -0.2867
      5  CB        38.1650  -33.1840   10.0640 C.3   307  PHE307      0.0534
      6  CG        39.2230  -32.1930   10.5020 C.ar  307  PHE307     -0.0203
      7  CD1       40.5550  -32.5660   10.5600 C.ar  307  PHE307     -0.0042
      8  CD2       38.8760  -30.9080   10.8720 C.ar  307  PHE307     -0.0042
      9  CE1       41.5140  -31.6760   10.9550 C.ar  307  PHE307     -0.0003
     10  CE2       39.8270  -30.0080   11.2660 C.ar  307  PHE307     -0.0003
     11  CZ        41.1530  -30.3850   11.3070 C.ar  307  PHE307     -0.0000
     12  N         32.9690  -31.8250   19.0880 N.3   350  TRP350     -0.1227
     13  CA        34.3310  -31.2970   19.0030 C.3   350  TRP350      0.1737
     14  C         34.6610  -30.4280   20.2000 C.2   350  TRP350      0.2595
     15  O         35.1620  -29.3110   20.0540 O.2   350  TRP350     -0.2718
     16  CB        34.6070  -30.5510   17.6850 C.3   350  TRP350      0.0564
     17  CG        35.2910  -31.4030   16.6200 C.ar  350  TRP350      0.0003
     18  CD1       36.0610  -32.5110   16.8220 C.ar  350  TRP350      0.0946
     19  CD2       35.2330  -31.2130   15.1980 C.ar  350  TRP350      0.0152
     20  NE1       36.4940  -33.0160   15.6190 N.ar  350  TRP350     -0.2442
     21  CE2       35.9950  -32.2390   14.6080 C.ar  350  TRP350      0.0810
     22  CE3       34.6110  -30.2740   14.3650 C.ar  350  TRP350      0.0012
     23  CZ2       36.1570  -32.3440   13.2350 C.ar  350  TRP350      0.0191
     24  CZ3       34.7670  -30.3840   13.0120 C.ar  350  TRP350      0.0001
     25  CH2       35.5350  -31.4090   12.4560 C.ar  350  TRP350      0.0015
     26  N         34.3700  -30.9530   21.3850 N.am  351  TRP351     -0.1976
     27  CA        34.8580  -30.3630   22.6250 C.3   351  TRP351      0.1640
     28  C         34.3330  -28.9490   22.8860 C.2   351  TRP351      0.2290
     29  O         34.9930  -28.1290   23.5460 O.2   351  TRP351     -0.2864
     30  CB        36.3880  -30.3750   22.6220 C.3   351  TRP351      0.0576
     31  CG        36.9660  -31.5020   21.8240 C.ar  351  TRP351      0.0006
     32  CD1       36.3890  -32.7250   21.5610 C.ar  351  TRP351      0.0946
     33  CD2       38.2170  -31.5030   21.1530 C.ar  351  TRP351      0.0152
     34  NE1       37.2200  -33.4840   20.7630 N.ar  351  TRP351     -0.2442
     35  CE2       38.3540  -32.7560   20.5090 C.ar  351  TRP351      0.0810
     36  CE3       39.2470  -30.5700   21.0380 C.ar  351  TRP351      0.0012
     37  CZ2       39.4890  -33.0990   19.7730 C.ar  351  TRP351      0.0191
     38  CZ3       40.3630  -30.9080   20.3010 C.ar  351  TRP351      0.0001
     39  CH2       40.4740  -32.1610   19.6750 C.ar  351  TRP351      0.0015
     40  N         41.4690  -20.7570   16.2650 N.3   413  SER413     -0.1217
     41  CA        42.4260  -20.3840   15.2460 C.3   413  SER413      0.1889
     42  C         42.6430  -18.8710   15.2550 C.2   413  SER413      0.2288
     43  O         43.7680  -18.4060   15.4270 O.2   413  SER413     -0.2866
     44  CB        41.9670  -20.8580   13.8700 C.3   413  SER413      0.2089
     45  OG        41.7110  -22.2510   13.8680 O.3   413  SER413     -0.2183
     46  N         48.7220  -28.5430   18.9820 N.3   445  TYR445     -0.1241
     47  CA        47.8420  -28.1890   17.8800 C.3   445  TYR445      0.1605
     48  C         47.1740  -26.8810   18.2420 C.2   445  TYR445      0.2264
     49  O         46.9900  -26.6020   19.4250 O.2   445  TYR445     -0.2867
     50  CB        46.7880  -29.2710   17.7190 C.3   445  TYR445      0.0534
     51  CG        45.6870  -28.8940   16.7820 C.ar  445  TYR445     -0.0201
     52  CD1       44.6780  -28.0380   17.1810 C.ar  445  TYR445     -0.0009
     53  CD2       45.6410  -29.3970   15.5000 C.ar  445  TYR445     -0.0009
     54  CE1       43.6580  -27.6880   16.3270 C.ar  445  TYR445      0.0417
     55  CE2       44.6200  -29.0540   14.6400 C.ar  445  TYR445      0.0417
     56  CZ        43.6330  -28.1960   15.0570 C.ar  445  TYR445      0.1957
     57  OH        42.6100  -27.8480   14.2050 O.3   445  TYR445     -0.2866
     58  N         44.7790  -24.9290   15.6960 N.3   447  GLY447     -0.1210
     59  CA        43.8910  -24.4040   14.6770 C.3   447  GLY447      0.1956
     60  C         44.4220  -24.5510   13.2700 C.2   447  GLY447      0.2611
     61  O         45.6080  -24.8190   13.0730 O.2   447  GLY447     -0.2717
     62  N         43.5410  -24.3500   12.2920 N.am  448  ASP448     -0.1973
     63  CA        43.8300  -24.7270   10.9120 C.3   448  ASP448      0.1709
     64  C         44.0940  -23.5530    9.9630 C.2   448  ASP448      0.2293
     65  O         44.4340  -23.7640    8.8060 O.2   448  ASP448     -0.2864
     66  CB        42.7290  -25.6520   10.3720 C.3   448  ASP448      0.1436
     67  CG        42.3550  -26.7480   11.3570 C.2   448  ASP448      0.3671
     68  OD1       43.1330  -26.9700   12.2980 O.co2 448  ASP448     -0.2456
     69  OD2       41.2900  -27.3800   11.2060 O.co2 448  ASP448     -0.2456
     70  N         47.8650  -33.2910   10.3390 N.3   461  TYR461     -0.1241
     71  CA        47.0850  -32.0680   10.1560 C.3   461  TYR461      0.1605
     72  C         47.7660  -31.0470    9.2590 C.2   461  TYR461      0.2264
     73  O         47.1130  -30.1580    8.7030 O.2   461  TYR461     -0.2867
     74  CB        46.7610  -31.4430   11.5240 C.3   461  TYR461      0.0534
     75  CG        45.9830  -32.3850   12.4180 C.ar  461  TYR461     -0.0201
     76  CD1       45.1180  -33.3240   11.8660 C.ar  461  TYR461     -0.0009
     77  CD2       46.1290  -32.3610   13.7980 C.ar  461  TYR461     -0.0009
     78  CE1       44.4110  -34.2070   12.6550 C.ar  461  TYR461      0.0417
     79  CE2       45.4280  -33.2470   14.5980 C.ar  461  TYR461      0.0417
     80  CZ        44.5680  -34.1660   14.0180 C.ar  461  TYR461      0.1957
     81  OH        43.8660  -35.0480   14.7980 O.3   461  TYR461     -0.2866
     82  N         44.0440  -32.3070   19.8020 N.3   541  ALA541     -0.1245
     83  CA        44.0370  -32.8930   18.4640 C.3   541  ALA541      0.1562
     84  C         45.1980  -33.9070   18.3230 C.2   541  ALA541      0.2260
     85  O         45.1530  -34.8240   17.4770 O.2   541  ALA541     -0.2867
     86  CB        44.1380  -31.7970   17.4150 C.3   541  ALA541      0.0290
     87  N         35.9820  -22.6540   22.3090 N.3   598  LYS598     -0.1245
     88  CA        35.1810  -23.8560   22.5250 C.3   598  LYS598      0.1561
     89  C         34.1660  -23.6750   23.6680 C.2   598  LYS598      0.2260
     90  O         33.0620  -23.1740   23.4290 O.2   598  LYS598     -0.2867
     91  CB        36.0710  -25.0960   22.7260 C.3   598  LYS598      0.0271
     92  CG        36.8940  -25.4840   21.5030 C.3   598  LYS598      0.0035
     93  CD        37.3640  -26.9620   21.5280 C.3   598  LYS598      0.0206
     94  CE        38.0680  -27.3890   20.2430 C.3   598  LYS598      0.1093
     95  NZ        39.4550  -26.8230   20.1730 N.3   598  LYS598     -0.1314
     96  N         33.6630  -39.2780   18.3520 N.3   716  ARG716     -0.1231
     97  CA        34.6010  -39.1920   17.2580 C.3   716  ARG716      0.1679
     98  C         35.9570  -39.7320   17.7110 C.2   716  ARG716      0.2434
     99  O         36.3230  -39.5440   18.8680 O.2   716  ARG716     -0.2733
    100  CB        34.6830  -37.7410   16.7850 C.3   716  ARG716      0.0321
    101  CG        35.2500  -37.6550   15.4760 C.3   716  ARG716      0.0489
    102  CD        34.6170  -36.9840   14.3540 C.3   716  ARG716      0.2205
    103  NE        35.6500  -36.1880   13.7040 N.pl3 716  ARG716     -0.0865
    104  CZ        35.7490  -35.9990   12.3940 C.cat 716  ARG716      0.5346
    105  NH1       34.8460  -36.5370   11.5590 N.pl3 716  ARG716      0.1354
    106  NH2       36.7530  -35.2520   11.9220 N.pl3 716  ARG716      0.1354
    107  N         36.6860  -40.4440   16.8180 N.am  717  PRO717     -0.2718
    108  CA        38.0390  -40.9200   17.1680 C.3   717  PRO717      0.1535
    109  C         39.1250  -39.9690   16.7030 C.2   717  PRO717      0.2598
    110  O         38.8610  -39.0220   15.9560 O.2   717  PRO717     -0.2715
    111  CB        38.1600  -42.2410   16.4060 C.3   717  PRO717      0.0310
    112  CG        37.3270  -42.0000   15.1810 C.3   717  PRO717      0.0237
    113  CD        36.1910  -41.0590   15.5710 C.3   717  PRO717      0.0939
    114  N         40.3320  -40.2110   17.2010 N.am  718  LEU718     -0.1978
    115  CA        41.5550  -39.6440   16.6540 C.3   718  LEU718      0.1596
    116  C         42.3580  -40.8640   16.2400 C.2   718  LEU718      0.2287
    117  O         43.1790  -41.3720   17.0010 O.2   718  LEU718     -0.2864
    118  CB        42.2920  -38.8470   17.7230 C.3   718  LEU718      0.0297
    119  CG        41.6350  -37.5260   18.0970 C.3   718  LEU718      0.0022
    120  CD1       42.4790  -36.7630   19.1410 C.3   718  LEU718      0.0001
    121  CD2       41.4250  -36.7060   16.8170 C.3   718  LEU718      0.0001
    122  N         37.7160  -41.4510   22.7550 N.3   723  TYR723     -0.1241
    123  CA        37.3980  -40.6870   23.9590 C.3   723  TYR723      0.1605
    124  C         35.9170  -40.4290   24.2840 C.2   723  TYR723      0.2264
    125  O         35.0410  -40.4420   23.4200 O.2   723  TYR723     -0.2867
    126  CB        38.1570  -39.3670   23.9410 C.3   723  TYR723      0.0534
    127  CG        37.7750  -38.4690   22.7850 C.ar  723  TYR723     -0.0201
    128  CD1       38.2930  -38.6720   21.5170 C.ar  723  TYR723     -0.0009
    129  CD2       36.8940  -37.4140   22.9670 C.ar  723  TYR723     -0.0009
    130  CE1       37.9380  -37.8420   20.4730 C.ar  723  TYR723      0.0417
    131  CE2       36.5440  -36.5880   21.9290 C.ar  723  TYR723      0.0417
    132  CZ        37.0600  -36.8020   20.6940 C.ar  723  TYR723      0.1957
    133  OH        36.6990  -35.9630   19.6800 O.3   723  TYR723     -0.2866
@<TRIPOS>BOND
     1     1     2    1
     2     3     2    1
     3     3     4    2
     4     2     5    1
     5    73    72    2
     6    65    64    2
     7    72    71    1
     8    64    63    1
     9     5     6    1
    10    71    70    1
    11    71    74    1
    12    66    63    1
    13    66    67    1
    14     6     7   ar
    15     6     8   ar
    16     7     9   ar
    17     8    10   ar
    18    63    62    1
    19     9    11   ar
    20    69    67   ar
    21    10    11   ar
    22    67    68   ar
    23    74    75    1
    24   105   104    1
    25    76    75   ar
    26    76    78   ar
    27   106   104    1
    28    62    60   am
    29   104   103    2
    30    75    77   ar
    31    25    24   ar
    32    25    23   ar
    33    78    80   ar
    34    24    22   ar
    35    61    60    2
    36    23    21   ar
    37    60    59    1
    38   103   102    1
    39    77    79   ar
    40    45    44    1
    41    44    41    1
    42    80    79   ar
    43    80    81    1
    44    57    56    1
    45   102   101    1
    46    22    19   ar
    47    21    19   ar
    48    21    20   ar
    49    55    56   ar
    50    55    53   ar
    51    59    58    1
    52    56    54   ar
    53   112   113    1
    54   112   111    1
    55    19    17   ar
    56    41    42    1
    57    41    40    1
    58    42    43    2
    59   101   100    1
    60    53    51   ar
    61   113   107    1
    62    20    18   ar
    63   110   109    2
    64   116   115    1
    65   116   117    2
    66    54    52   ar
    67   111   108    1
    68    17    18   ar
    69    17    16    1
    70   115   114    1
    71   115   118    1
    72   109   108    1
    73   109   114   am
    74    51    52   ar
    75    51    50    1
    76   100    97    1
    77   121   119    1
    78   107   108    1
    79   107    98   am
    80    97    98    1
    81    97    96    1
    82    86    83    1
    83    85    84    2
    84    16    13    1
    85    98    99    2
    86    50    47    1
    87   118   119    1
    88    47    48    1
    89    47    46    1
    90   119   120    1
    91    48    49    2
    92    84    83    1
    93    83    82    1
    94    13    12    1
    95    13    14    1
    96    39    37   ar
    97    39    38   ar
    98   133   132    1
    99    37    35   ar
   100    15    14    2
   101    95    94    1
   102    14    26   am
   103    94    93    1
   104    38    36   ar
   105   130   132   ar
   106   130   128   ar
   107    35    34   ar
   108    35    33   ar
   109   132   131   ar
   110    34    32   ar
   111    36    33   ar
   112    33    31   ar
   113    26    27    1
   114    92    93    1
   115    92    91    1
   116   128   127   ar
   117    32    31   ar
   118    31    30    1
   119   131   129   ar
   120    87    88    1
   121    88    91    1
   122    88    89    1
   123    30    27    1
   124    27    28    1
   125   122   123    1
   126   127   129   ar
   127   127   126    1
   128    28    29    2
   129   125   124    2
   130    90    89    2
   131   126   123    1
   132   123   124    1
