@<TRIPOS>MOLECULE
tmp/4a0hA06.pdb
 114 110 0 0 0
SMALL
GASTEIGER

@<TRIPOS>ATOM
      1  N         -4.0550  -20.8090   28.2260 N.3    17  ASN17      -0.1225
      2  CA        -4.5350  -20.7200   29.5940 C.3    17  ASN17       0.1785
      3  C         -5.5690  -21.8030   29.9240 C.2    17  ASN17       0.2597
      4  O         -5.7270  -22.8120   29.2100 O.2    17  ASN17      -0.2718
      5  CB        -5.1110  -19.3240   29.9040 C.3    17  ASN17       0.1169
      6  CG        -5.0420  -18.9790   31.3950 C.2    17  ASN17       0.2627
      7  OD1       -5.0330  -19.8690   32.2420 O.2    17  ASN17      -0.2716
      8  ND2       -5.0010  -17.6900   31.7150 N.am   17  ASN17      -0.0877
      9  N         -6.2450  -21.5910   31.0440 N.am   18  THR18      -0.1953
     10  CA        -7.2690  -22.4950   31.5140 C.3    18  THR18       0.1897
     11  C         -8.6220  -22.0320   30.9730 C.2    18  THR18       0.2313
     12  O         -8.8440  -20.8290   30.7940 O.2    18  THR18      -0.2863
     13  CB        -7.2520  -22.5560   33.0600 C.3    18  THR18       0.1794
     14  OG1       -7.6340  -23.8620   33.4900 O.3    18  THR18      -0.2208
     15  CG2       -8.1700  -21.4840   33.6980 C.3    18  THR18       0.0378
     16  N         -3.5390  -34.8170   35.6210 N.3    48  GLN48      -0.1231
     17  CA        -4.9450  -34.4410   35.8460 C.3    48  GLN48       0.1698
     18  C         -5.1630  -34.0570   37.2920 C.2    48  GLN48       0.2592
     19  O         -4.9360  -34.8580   38.1910 O.2    48  GLN48      -0.2718
     20  CB        -5.8830  -35.6170   35.5570 C.3    48  GLN48       0.0381
     21  CG        -7.3500  -35.3360   35.8380 C.3    48  GLN48       0.0905
     22  CD        -8.0450  -34.6820   34.6860 C.2    48  GLN48       0.2608
     23  OE1       -8.4220  -35.3540   33.7130 O.2    48  GLN48      -0.2717
     24  NE2       -8.2520  -33.3700   34.7880 N.am   48  GLN48      -0.0878
     25  N         -5.6330  -32.8430   37.5250 N.am   49  THR49      -0.1953
     26  CA        -6.0670  -32.4870   38.8710 C.3    49  THR49       0.1897
     27  C         -7.5830  -32.2680   38.9020 C.2    49  THR49       0.2313
     28  O         -8.2400  -32.2710   37.8410 O.2    49  THR49      -0.2863
     29  CB        -5.3030  -31.2830   39.4620 C.3    49  THR49       0.1794
     30  OG1       -5.7050  -30.0880   38.7970 O.3    49  THR49      -0.2208
     31  CG2       -3.7740  -31.4500   39.3350 C.3    49  THR49       0.0378
     32  N        -13.5110  -33.8020   37.9020 N.3    54  ASP54      -0.1239
     33  CA       -13.0070  -33.5000   36.5700 C.3    54  ASP54       0.1674
     34  C        -12.1360  -34.6570   36.1150 C.2    54  ASP54       0.2266
     35  O        -11.2350  -35.0950   36.8370 O.2    54  ASP54      -0.2867
     36  CB       -12.1800  -32.2200   36.5770 C.3    54  ASP54       0.1410
     37  CG       -12.8810  -31.0830   37.3040 C.2    54  ASP54       0.3668
     38  OD1      -14.1130  -31.2150   37.5400 O.co2  54  ASP54      -0.2456
     39  OD2      -12.2100  -30.0660   37.6160 O.co2  54  ASP54      -0.2456
     40  N        -10.6990  -34.9950   32.2700 N.3    56  ASP56      -0.1239
     41  CA       -10.6540  -34.7030   30.8540 C.3    56  ASP56       0.1674
     42  C        -10.6770  -36.0060   30.0480 C.2    56  ASP56       0.2266
     43  O        -11.2920  -36.0640   28.9870 O.2    56  ASP56      -0.2867
     44  CB        -9.3750  -33.9170   30.5380 C.3    56  ASP56       0.1410
     45  CG        -9.3890  -32.5070   31.1000 C.2    56  ASP56       0.3668
     46  OD1      -10.4510  -31.8690   31.1120 O.co2  56  ASP56      -0.2456
     47  OD2       -8.3290  -32.0110   31.5180 O.co2  56  ASP56      -0.2456
     48  N         -8.5410  -29.7850   42.6910 N.3   131  ALA131     -0.1231
     49  CA        -8.6370  -29.0170   41.4480 C.3   131  ALA131      0.1694
     50  C         -7.7520  -27.7690   41.4210 C.2   131  ALA131      0.2592
     51  O         -8.2490  -26.6530   41.3280 O.2   131  ALA131     -0.2718
     52  CB       -10.0910  -28.6440   41.1660 C.3   131  ALA131      0.0304
     53  N         -6.4390  -27.9640   41.4890 N.am  132  ILE132     -0.1966
     54  CA        -5.4840  -26.8510   41.5090 C.3   132  ILE132      0.1727
     55  C         -4.2430  -27.1760   40.6820 C.2   132  ILE132      0.2617
     56  O         -4.1060  -28.2780   40.1450 O.2   132  ILE132     -0.2715
     57  CB        -5.0570  -26.5430   42.9440 C.3   132  ILE132      0.0290
     58  CG1       -4.0220  -27.5460   43.4230 C.3   132  ILE132      0.0022
     59  CG2       -6.2390  -26.6950   43.8710 C.3   132  ILE132      0.0023
     60  CD1       -4.1880  -27.8950   44.8780 C.3   132  ILE132      0.0001
     61  N         -3.3310  -26.2260   40.5610 N.am  133  SER133     -0.1936
     62  CA        -2.0490  -26.5490   39.9400 C.3   133  SER133      0.2040
     63  C         -1.4770  -27.8270   40.5340 C.2   133  SER133      0.2485
     64  O         -1.3960  -27.9820   41.7580 O.2   133  SER133     -0.2729
     65  CB        -1.0290  -25.4380   40.1440 C.3   133  SER133      0.2129
     66  OG         0.2700  -25.8950   39.7950 O.3   133  SER133     -0.2179
     67  N         -1.0650  -28.7450   39.6620 N.am  134  PRO134     -0.2715
     68  CA        -0.4170  -29.9960   40.0520 C.3   134  PRO134      0.1536
     69  C          0.6860  -29.7940   41.1100 C.2   134  PRO134      0.2598
     70  O          0.8490  -30.6200   42.0130 O.2   134  PRO134     -0.2715
     71  CB         0.2020  -30.4770   38.7340 C.3   134  PRO134      0.0310
     72  CG        -0.6690  -29.9130   37.6970 C.3   134  PRO134      0.0237
     73  CD        -1.1400  -28.5930   38.2010 C.3   134  PRO134      0.0939
     74  N          1.4330  -28.7050   41.0130 N.am  135  HIS135     -0.1974
     75  CA         2.5740  -28.5450   41.9020 C.3   135  HIS135      0.1656
     76  C          2.1320  -28.4640   43.3600 C.2   135  HIS135      0.2291
     77  O          2.7610  -29.0620   44.2350 O.2   135  HIS135     -0.2864
     78  CB         3.4750  -27.3710   41.4730 C.3   135  HIS135      0.0771
     79  CG         2.9530  -26.0180   41.8470 C.ar  135  HIS135      0.0820
     80  ND1        1.7810  -25.4960   41.3300 N.ar  135  HIS135     -0.2267
     81  CD2        3.4570  -25.0640   42.6610 C.ar  135  HIS135      0.1154
     82  CE1        1.5850  -24.2910   41.8260 C.ar  135  HIS135      0.1986
     83  NE2        2.5860  -24.0010   42.6380 N.ar  135  HIS135     -0.2212
     84  N         -1.5140  -30.1860   30.8100 N.3   171  ALA171     -0.1231
     85  CA        -2.3150  -29.6730   31.9030 C.3   171  ALA171      0.1694
     86  C         -2.0120  -28.2100   32.1550 C.2   171  ALA171      0.2593
     87  O         -0.8920  -27.8500   32.5070 O.2   171  ALA171     -0.2718
     88  CB        -2.0680  -30.4750   33.1500 C.3   171  ALA171      0.0304
     89  N         -3.0230  -27.3650   31.9760 N.am  172  GLY172     -0.1942
     90  CA        -2.9120  -25.9590   32.3130 C.3   172  GLY172      0.2014
     91  C         -2.3370  -25.1880   31.1570 C.2   172  GLY172      0.2639
     92  O         -2.4490  -25.5860   29.9880 O.2   172  GLY172     -0.2714
     93  N         -1.7140  -24.0680   31.4840 N.am  173  GLY173     -0.1954
     94  CA        -1.0380  -23.2860   30.4760 C.3   173  GLY173      0.1869
     95  C          0.2660  -23.9040   30.0070 C.2   173  GLY173      0.2309
     96  O          0.8580  -24.7780   30.6410 O.2   173  GLY173     -0.2863
     97  N          3.0930  -22.6930   30.2140 N.3   175  ALA175     -0.1231
     98  CA         4.1410  -22.5400   31.2030 C.3   175  ALA175      0.1694
     99  C          3.6440  -22.7840   32.6390 C.2   175  ALA175      0.2593
    100  O          4.1030  -22.1470   33.5940 O.2   175  ALA175     -0.2718
    101  CB         4.7950  -21.1680   31.0630 C.3   175  ALA175      0.0304
    102  N          2.7280  -23.7350   32.7910 N.am  176  SER176     -0.1939
    103  CA         2.1810  -24.0790   34.1050 C.3   176  SER176      0.2040
    104  C          2.9670  -25.1820   34.7880 C.2   176  SER176      0.2485
    105  O          3.3010  -26.1690   34.1540 O.2   176  SER176     -0.2729
    106  CB         0.7150  -24.5030   33.9830 C.3   176  SER176      0.2129
    107  OG        -0.1140  -23.3920   33.7270 O.3   176  SER176     -0.2179
    108  N          3.2400  -25.0250   36.0980 N.am  177  PRO177     -0.2726
    109  CA         4.0400  -26.0110   36.8330 C.3   177  PRO177      0.1402
    110  C          3.3920  -27.3790   36.8480 C.2   177  PRO177      0.2269
    111  O          2.1930  -27.4930   37.1030 O.2   177  PRO177     -0.2865
    112  CB         4.0870  -25.4440   38.2490 C.3   177  PRO177      0.0296
    113  CG         3.8820  -23.9850   38.0860 C.3   177  PRO177      0.0237
    114  CD         2.9060  -23.8580   36.9350 C.3   177  PRO177      0.0939
@<TRIPOS>BOND
     1     1     2    1
     2    43    42    2
     3     4     3    2
     4     2     5    1
     5     2     3    1
     6     5     6    1
     7     3     9   am
     8    92    91    2
     9    95    94    1
    10    95    96    2
    11    42    41    1
    12    97    98    1
    13    94    93    1
    14    44    41    1
    15    44    45    1
    16    12    11    2
    17    84    85    1
    18    41    40    1
    19    11    10    1
    20     9    10    1
    21   101    98    1
    22    45    46   ar
    23    45    47   ar
    24    91    93   am
    25    91    90    1
    26    98    99    1
    27     6     8   am
    28     6     7    2
    29    10    13    1
    30    85    86    1
    31    85    88    1
    32    89    86   am
    33    89    90    1
    34    86    87    2
    35    99   102   am
    36    99   100    2
    37   102   103    1
    38    13    14    1
    39    13    15    1
    40    23    22    2
    41   107   106    1
    42   106   103    1
    43   103   104    1
    44   105   104    2
    45    22    24   am
    46    22    21    1
    47   104   108   am
    48    20    21    1
    49    20    17    1
    50    16    17    1
    51    17    18    1
    52   108   109    1
    53   108   114    1
    54    34    33    1
    55    34    35    2
    56    33    36    1
    57    33    32    1
    58    36    37    1
    59   109   110    1
    60   109   112    1
    61   110   111    2
    62   114   113    1
    63    18    25   am
    64    18    19    2
    65    37    38   ar
    66    37    39   ar
    67    25    26    1
    68    72    73    1
    69    72    71    1
    70    28    27    2
    71   113   112    1
    72    73    67    1
    73    71    68    1
    74    30    29    1
    75    26    27    1
    76    26    29    1
    77    31    29    1
    78    67    68    1
    79    67    63   am
    80    66    65    1
    81    62    65    1
    82    62    63    1
    83    62    61    1
    84    68    69    1
    85    56    55    2
    86    63    64    2
    87    61    55   am
    88    55    54    1
    89    74    69   am
    90    74    75    1
    91    69    70    2
    92    52    49    1
    93    51    50    2
    94    80    82   ar
    95    80    79   ar
    96    50    49    1
    97    50    53   am
    98    49    48    1
    99    78    79    1
   100    78    75    1
   101    53    54    1
   102    54    57    1
   103    82    83   ar
   104    79    81   ar
   105    75    76    1
   106    83    81   ar
   107    57    58    1
   108    57    59    1
   109    76    77    2
   110    58    60    1
