@<TRIPOS>MOLECULE
tmp/4a0hA03.pdb
 117 110 0 0 0
SMALL
GASTEIGER

@<TRIPOS>ATOM
      1  N         -2.3160  -25.3150   25.6720 N.3    15  SER15      -0.1217
      2  CA        -3.2990  -24.2470   25.7230 C.3    15  SER15       0.1889
      3  C         -2.6960  -22.9920   26.3470 C.2    15  SER15       0.2288
      4  O         -1.9220  -23.0910   27.2840 O.2    15  SER15      -0.2866
      5  CB        -4.5530  -24.7190   26.4570 C.3    15  SER15       0.2089
      6  OG        -5.5380  -23.6990   26.4930 O.3    15  SER15      -0.2183
      7  N         -4.0550  -20.8090   28.2260 N.3    17  ASN17      -0.1225
      8  CA        -4.5350  -20.7200   29.5940 C.3    17  ASN17       0.1785
      9  C         -5.5690  -21.8030   29.9240 C.2    17  ASN17       0.2598
     10  O         -5.7270  -22.8120   29.2100 O.2    17  ASN17      -0.2718
     11  CB        -5.1110  -19.3240   29.9040 C.3    17  ASN17       0.1169
     12  CG        -5.0420  -18.9790   31.3950 C.2    17  ASN17       0.2627
     13  OD1       -5.0330  -19.8690   32.2420 O.2    17  ASN17      -0.2716
     14  ND2       -5.0010  -17.6900   31.7150 N.am   17  ASN17      -0.0877
     15  N         -6.2450  -21.5910   31.0440 N.am   18  THR18      -0.1939
     16  CA        -7.2690  -22.4950   31.5140 C.3    18  THR18       0.2028
     17  C         -8.6220  -22.0320   30.9730 C.2    18  THR18       0.2643
     18  O         -8.8440  -20.8290   30.7940 O.2    18  THR18      -0.2714
     19  CB        -7.2520  -22.5560   33.0600 C.3    18  THR18       0.1808
     20  OG1       -7.6340  -23.8620   33.4900 O.3    18  THR18      -0.2208
     21  CG2       -8.1700  -21.4840   33.6980 C.3    18  THR18       0.0379
     22  N         -9.5020  -22.9930   30.6960 N.am   19  SER19      -0.1935
     23  CA       -10.9000  -22.7220   30.2970 C.3    19  SER19       0.2055
     24  C        -11.0310  -22.1300   28.8820 C.2    19  SER19       0.2642
     25  O        -11.7220  -21.1200   28.6740 O.2    19  SER19      -0.2714
     26  CB       -11.6000  -21.8200   31.3290 C.3    19  SER19       0.2130
     27  OG       -11.6720  -22.4420   32.6110 O.3    19  SER19      -0.2179
     28  N        -10.3690  -22.7740   27.9200 N.am   20  LEU20      -0.1977
     29  CA       -10.2500  -22.2390   26.5790 C.3    20  LEU20       0.1596
     30  C        -10.6410  -23.2670   25.5290 C.2    20  LEU20       0.2287
     31  O        -10.6050  -22.9710   24.3290 O.2    20  LEU20      -0.2864
     32  CB        -8.8170  -21.7850   26.3210 C.3    20  LEU20       0.0297
     33  CG        -8.2600  -20.5440   27.0080 C.3    20  LEU20       0.0022
     34  CD1       -6.8810  -20.3330   26.4580 C.3    20  LEU20       0.0001
     35  CD2       -9.0870  -19.2710   26.7870 C.3    20  LEU20       0.0001
     36  N         -9.3930  -26.6790   25.4860 N.3    22  LYS22      -0.1231
     37  CA        -8.3840  -27.7170   25.2970 C.3    22  LYS22       0.1693
     38  C         -8.9290  -29.1340   25.0530 C.2    22  LYS22       0.2592
     39  O         -8.6670  -29.7550   24.0190 O.2    22  LYS22      -0.2718
     40  CB        -7.4290  -27.7050   26.4890 C.3    22  LYS22       0.0285
     41  CG        -6.2330  -28.6310   26.3380 C.3    22  LYS22       0.0035
     42  CD        -4.9610  -27.9850   26.8550 C.3    22  LYS22       0.0206
     43  CE        -4.9590  -27.8500   28.3650 C.3    22  LYS22       0.1093
     44  NZ        -5.3710  -29.0990   29.0390 N.3    22  LYS22      -0.1314
     45  N         -9.6940  -29.6310   26.0110 N.am   23  THR23      -0.1953
     46  CA       -10.3100  -30.9540   25.9310 C.3    23  THR23       0.1897
     47  C        -11.4220  -31.1030   24.8650 C.2    23  THR23       0.2313
     48  O        -11.6120  -32.1860   24.3160 O.2    23  THR23      -0.2863
     49  CB       -10.8650  -31.3300   27.2940 C.3    23  THR23       0.1794
     50  OG1       -9.9700  -30.8620   28.3140 O.3    23  THR23      -0.2208
     51  CG2      -11.0760  -32.8540   27.4020 C.3    23  THR23       0.0378
     52  N         -3.7660  -38.3100   28.8100 N.3    45  LYS45      -0.1245
     53  CA        -3.8050  -37.1870   29.7270 C.3    45  LYS45       0.1561
     54  C         -2.8390  -37.4770   30.8850 C.2    45  LYS45       0.2260
     55  O         -3.2320  -38.0500   31.9020 O.2    45  LYS45      -0.2867
     56  CB        -5.2210  -36.9810   30.2540 C.3    45  LYS45       0.0271
     57  CG        -5.3370  -35.8200   31.2200 C.3    45  LYS45       0.0035
     58  CD        -5.4020  -34.5170   30.4630 C.3    45  LYS45       0.0206
     59  CE        -5.4910  -33.3590   31.4160 C.3    45  LYS45       0.1093
     60  NZ        -5.6710  -32.0720   30.7030 N.3    45  LYS45      -0.1314
     61  N         -1.1750  -35.6330   33.1190 N.3    47  ILE47      -0.1231
     62  CA        -1.4330  -35.0010   34.4160 C.3    47  ILE47       0.1692
     63  C         -2.8730  -34.5080   34.5040 C.2    47  ILE47       0.2592
     64  O         -3.3650  -33.8630   33.5700 O.2    47  ILE47      -0.2718
     65  CB        -0.4640  -33.8220   34.6940 C.3    47  ILE47       0.0266
     66  CG1        0.9840  -34.2790   34.6250 C.3    47  ILE47       0.0019
     67  CG2       -0.7020  -33.2310   36.0510 C.3    47  ILE47       0.0020
     68  CD1        1.2890  -35.4120   35.5410 C.3    47  ILE47       0.0001
     69  N         -3.5390  -34.8170   35.6210 N.am   48  GLN48      -0.1966
     70  CA        -4.9450  -34.4410   35.8460 C.3    48  GLN48       0.1733
     71  C         -5.1630  -34.0570   37.2920 C.2    48  GLN48       0.2617
     72  O         -4.9360  -34.8580   38.1910 O.2    48  GLN48      -0.2715
     73  CB        -5.8830  -35.6170   35.5570 C.3    48  GLN48       0.0408
     74  CG        -7.3500  -35.3360   35.8380 C.3    48  GLN48       0.0908
     75  CD        -8.0450  -34.6820   34.6860 C.2    48  GLN48       0.2608
     76  OE1       -8.4220  -35.3540   33.7130 O.2    48  GLN48      -0.2717
     77  NE2       -8.2520  -33.3700   34.7880 N.am   48  GLN48      -0.0878
     78  N         -5.6330  -32.8430   37.5250 N.am   49  THR49      -0.1951
     79  CA        -6.0670  -32.4870   38.8710 C.3    49  THR49       0.1897
     80  C         -7.5830  -32.2680   38.9020 C.2    49  THR49       0.2313
     81  O         -8.2400  -32.2710   37.8410 O.2    49  THR49      -0.2863
     82  CB        -5.3030  -31.2830   39.4620 C.3    49  THR49       0.1794
     83  OG1       -5.7050  -30.0880   38.7970 O.3    49  THR49      -0.2208
     84  CG2       -3.7740  -31.4500   39.3350 C.3    49  THR49       0.0378
     85  N        -10.6990  -34.9950   32.2700 N.3    56  ASP56      -0.1239
     86  CA       -10.6540  -34.7030   30.8540 C.3    56  ASP56       0.1674
     87  C        -10.6770  -36.0060   30.0480 C.2    56  ASP56       0.2266
     88  O        -11.2920  -36.0640   28.9870 O.2    56  ASP56      -0.2867
     89  CB        -9.3750  -33.9170   30.5380 C.3    56  ASP56       0.1410
     90  CG        -9.3890  -32.5070   31.1000 C.2    56  ASP56       0.3668
     91  OD1      -10.4510  -31.8690   31.1120 O.co2  56  ASP56      -0.2456
     92  OD2       -8.3290  -32.0110   31.5180 O.co2  56  ASP56      -0.2456
     93  N         -2.5230  -34.7080   25.9350 N.3   169  GLU169     -0.1231
     94  CA        -3.0870  -33.4420   26.4010 C.3   169  GLU169      0.1699
     95  C         -2.3700  -32.9020   27.6350 C.2   169  GLU169      0.2593
     96  O         -2.4150  -33.5050   28.7160 O.2   169  GLU169     -0.2718
     97  CB        -4.5970  -33.5280   26.6680 C.3   169  GLU169      0.0402
     98  CG        -5.2270  -32.1360   26.7500 C.3   169  GLU169      0.1161
     99  CD        -6.6500  -32.1280   27.2460 C.2   169  GLU169      0.3649
    100  OE1       -7.5080  -32.7680   26.6050 O.co2 169  GLU169     -0.2457
    101  OE2       -6.9040  -31.4650   28.2730 O.co2 169  GLU169     -0.2457
    102  N         -1.7220  -31.7530   27.4660 N.am  170  THR170     -0.1939
    103  CA        -1.1020  -31.0740   28.5900 C.3   170  THR170      0.2028
    104  C         -2.0710  -30.7040   29.7240 C.2   170  THR170      0.2642
    105  O         -3.2790  -30.8800   29.6240 O.2   170  THR170     -0.2714
    106  CB        -0.3560  -29.8230   28.1450 C.3   170  THR170      0.1808
    107  OG1       -1.2820  -28.8160   27.7000 O.3   170  THR170     -0.2208
    108  CG2        0.5900  -30.1730   27.0390 C.3   170  THR170      0.0379
    109  N         -1.5140  -30.1860   30.8100 N.am  171  ALA171     -0.1963
    110  CA        -2.3150  -29.6730   31.9030 C.3   171  ALA171      0.1728
    111  C         -2.0120  -28.2100   32.1550 C.2   171  ALA171      0.2616
    112  O         -0.8920  -27.8500   32.5070 O.2   171  ALA171     -0.2715
    113  CB        -2.0680  -30.4750   33.1500 C.3   171  ALA171      0.0334
    114  N         -3.0230  -27.3650   31.9760 N.am  172  GLY172     -0.1955
    115  CA        -2.9120  -25.9590   32.3130 C.3   172  GLY172      0.1869
    116  C         -2.3370  -25.1880   31.1570 C.2   172  GLY172      0.2309
    117  O         -2.4490  -25.5860   29.9880 O.2   172  GLY172     -0.2863
@<TRIPOS>BOND
     1    39    38    2
     2    48    47    2
     3    31    30    2
     4    47    46    1
     5    38    37    1
     6    38    45   am
     7    37    36    1
     8    37    40    1
     9    30    29    1
    10     1     2    1
    11     2     3    1
    12     2     5    1
    13    46    45    1
    14    46    49    1
    15    93    94    1
    16    32    29    1
    17    32    33    1
    18    41    40    1
    19    41    42    1
    20     3     4    2
    21    94    97    1
    22    94    95    1
    23     5     6    1
    24    34    33    1
    25    29    28    1
    26   100    99   ar
    27    97    98    1
    28    98    99    1
    29    35    33    1
    30    42    43    1
    31   108   106    1
    32    99   101   ar
    33    49    51    1
    34    49    50    1
    35   102    95   am
    36   102   103    1
    37    95    96    2
    38   107   106    1
    39    28    24   am
    40   106   103    1
    41     7     8    1
    42    43    44    1
    43   103   104    1
    44    25    24    2
    45    52    53    1
    46    24    23    1
    47    88    87    2
    48    10     9    2
    49     8    11    1
    50     8     9    1
    51   105   104    2
    52   104   109   am
    53    53    56    1
    54    53    54    1
    55    11    12    1
    56     9    15   am
    57   117   116    2
    58    87    86    1
    59    56    57    1
    60    23    22    1
    61    23    26    1
    62    58    57    1
    63    58    59    1
    64    89    86    1
    65    89    90    1
    66    22    17   am
    67    60    59    1
    68    18    17    2
    69   109   110    1
    70    86    85    1
    71    54    55    2
    72    17    16    1
    73    15    16    1
    74    90    91   ar
    75    90    92   ar
    76   116   115    1
    77    26    27    1
    78    12    14   am
    79    12    13    2
    80    16    19    1
    81   110   111    1
    82   110   113    1
    83   114   111   am
    84   114   115    1
    85   111   112    2
    86    19    20    1
    87    19    21    1
    88    61    62    1
    89    64    63    2
    90    76    75    2
    91    62    63    1
    92    62    65    1
    93    63    69   am
    94    66    65    1
    95    66    68    1
    96    75    77   am
    97    75    74    1
    98    65    67    1
    99    73    74    1
   100    73    70    1
   101    69    70    1
   102    70    71    1
   103    71    78   am
   104    71    72    2
   105    78    79    1
   106    81    80    2
   107    83    82    1
   108    79    80    1
   109    79    82    1
   110    84    82    1
