@<TRIPOS>MOLECULE
tmp/4a0iA00.pdb
 113 109 0 0 0
SMALL
GASTEIGER

@<TRIPOS>ATOM
      1  N          9.3150  -41.1230   34.6080 N.3    44  THR44      -0.1218
      2  CA         9.8680  -40.8710   35.9310 C.3    44  THR44       0.1862
      3  C         10.0480  -42.1920   36.6680 C.2    44  THR44       0.2287
      4  O          9.8110  -43.2640   36.1030 O.2    44  THR44      -0.2866
      5  CB         8.9730  -39.9240   36.7680 C.3    44  THR44       0.1770
      6  OG1        7.6680  -40.4960   36.9260 O.3    44  THR44      -0.2211
      7  CG2        8.8470  -38.5740   36.0950 C.3    44  THR44       0.0375
      8  N          6.4140  -43.2390   37.6250 N.3    47  GLU47      -0.1245
      9  CA         5.5270  -43.1500   36.4660 C.3    47  GLU47       0.1567
     10  C          6.3360  -43.3070   35.1720 C.2    47  GLU47       0.2260
     11  O          6.5210  -42.3550   34.4220 O.2    47  GLU47      -0.2867
     12  CB         4.7450  -41.8260   36.4820 C.3    47  GLU47       0.0388
     13  CG         3.9030  -41.5900   37.7510 C.3    47  GLU47       0.1160
     14  CD         3.4840  -40.1280   37.9350 C.2    47  GLU47       0.3649
     15  OE1        3.9150  -39.2760   37.1310 O.co2  47  GLU47      -0.2457
     16  OE2        2.7280  -39.8290   38.8880 O.co2  47  GLU47      -0.2457
     17  N          5.0540  -42.5170   31.4670 N.3    50  LEU50      -0.1245
     18  CA         4.5220  -41.1610   31.3350 C.3    50  LEU50       0.1561
     19  C          4.7730  -40.5670   29.9540 C.2    50  LEU50       0.2260
     20  O          5.8770  -40.6410   29.4170 O.2    50  LEU50      -0.2867
     21  CB         5.1020  -40.2410   32.4040 C.3    50  LEU50       0.0270
     22  CG         4.3400  -38.9270   32.5820 C.3    50  LEU50       0.0019
     23  CD1        2.9480  -39.2000   33.1360 C.3    50  LEU50       0.0001
     24  CD2        5.1010  -37.9660   33.4880 C.3    50  LEU50       0.0001
     25  N         -0.7930  -31.9950   27.8610 N.3    58  LYS58      -0.1231
     26  CA        -1.5820  -32.9310   28.6410 C.3    58  LYS58       0.1693
     27  C         -0.6860  -34.1290   28.9700 C.2    58  LYS58       0.2592
     28  O          0.0510  -34.6180   28.1010 O.2    58  LYS58      -0.2718
     29  CB        -2.7940  -33.3910   27.8320 C.3    58  LYS58       0.0285
     30  CG        -3.8900  -34.0210   28.6660 C.3    58  LYS58       0.0035
     31  CD        -4.7140  -32.9520   29.3440 C.3    58  LYS58       0.0206
     32  CE        -5.6320  -33.5530   30.3710 C.3    58  LYS58       0.1093
     33  NZ        -6.1990  -32.4980   31.2370 N.3    58  LYS58      -0.1314
     34  N         -0.7340  -34.6000   30.2130 N.am   59  GLU59      -0.1966
     35  CA         0.1010  -35.7290   30.6050 C.3    59  GLU59       0.1733
     36  C         -0.7220  -36.9590   30.9330 C.2    59  GLU59       0.2616
     37  O         -1.6280  -36.9010   31.7580 O.2    59  GLU59      -0.2715
     38  CB         0.9490  -35.3730   31.8160 C.3    59  GLU59       0.0429
     39  CG         2.0230  -34.3590   31.5630 C.3    59  GLU59       0.1163
     40  CD         2.6870  -33.9280   32.8530 C.2    59  GLU59       0.3649
     41  OE1        2.0000  -33.3070   33.6980 O.co2  59  GLU59      -0.2457
     42  OE2        3.8890  -34.2250   33.0280 O.co2  59  GLU59      -0.2457
     43  N         -0.3750  -38.0750   30.3050 N.am   60  LEU60      -0.1963
     44  CA        -1.0700  -39.3450   30.5090 C.3    60  LEU60       0.1728
     45  C         -0.1060  -40.4630   30.8930 C.2    60  LEU60       0.2616
     46  O          0.9600  -40.6170   30.2890 O.2    60  LEU60      -0.2715
     47  CB        -1.8210  -39.7550   29.2400 C.3    60  LEU60       0.0311
     48  CG        -2.8780  -38.7880   28.7080 C.3    60  LEU60       0.0022
     49  CD1       -3.5070  -39.3400   27.4420 C.3    60  LEU60       0.0001
     50  CD2       -3.9370  -38.5270   29.7520 C.3    60  LEU60       0.0001
     51  N         -0.4910  -41.2370   31.9020 N.am   61  GLU61      -0.1963
     52  CA         0.2200  -42.4590   32.2730 C.3    61  GLU61       0.1733
     53  C         -0.7390  -43.6460   32.2320 C.2    61  GLU61       0.2617
     54  O         -1.8600  -43.5300   31.7320 O.2    61  GLU61      -0.2715
     55  CB         0.8430  -42.3310   33.6680 C.3    61  GLU61       0.0429
     56  CG        -0.1290  -41.9050   34.7600 C.3    61  GLU61       0.1163
     57  CD         0.4980  -41.9240   36.1440 C.2    61  GLU61       0.3649
     58  OE1        1.5640  -42.5570   36.3020 O.co2  61  GLU61      -0.2457
     59  OE2       -0.0760  -41.3080   37.0700 O.co2  61  GLU61      -0.2457
     60  N         -0.2930  -44.7860   32.7530 N.am   62  GLY62      -0.1940
     61  CA        -1.1260  -45.9780   32.8420 C.3    62  GLY62       0.2014
     62  C         -1.6380  -46.4790   31.5070 C.2    62  GLY62       0.2639
     63  O         -2.8080  -46.8350   31.3690 O.2    62  GLY62      -0.2714
     64  N         -0.7530  -46.5070   30.5180 N.am   63  TRP63      -0.1959
     65  CA        -1.1100  -46.9700   29.1840 C.3    63  TRP63       0.1771
     66  C         -1.3720  -48.4750   29.1200 C.2    63  TRP63       0.2619
     67  O         -0.8530  -49.2500   29.9230 O.2    63  TRP63      -0.2715
     68  CB        -0.0080  -46.5930   28.2000 C.3    63  TRP63       0.0590
     69  CG         0.0950  -45.1230   28.0350 C.ar   63  TRP63       0.0006
     70  CD1        0.8150  -44.2650   28.8060 C.ar   63  TRP63       0.0946
     71  CD2       -0.5840  -44.3220   27.0640 C.ar   63  TRP63       0.0152
     72  NE1        0.6330  -42.9850   28.3730 N.ar   63  TRP63      -0.2442
     73  CE2       -0.2260  -42.9930   27.3040 C.ar   63  TRP63       0.0810
     74  CE3       -1.4600  -44.6060   26.0120 C.ar   63  TRP63       0.0012
     75  CZ2       -0.7010  -41.9430   26.5250 C.ar   63  TRP63       0.0191
     76  CZ3       -1.9370  -43.5680   25.2460 C.ar   63  TRP63       0.0001
     77  CH2       -1.5570  -42.2540   25.5010 C.ar   63  TRP63       0.0015
     78  N         -2.1810  -48.8770   28.1480 N.am   64  GLU64      -0.1977
     79  CA        -2.4880  -50.2770   27.9230 C.3    64  GLU64       0.1602
     80  C         -2.3100  -50.6030   26.4440 C.2    64  GLU64       0.2287
     81  O         -2.4930  -49.7400   25.5910 O.2    64  GLU64      -0.2864
     82  CB        -3.9070  -50.5860   28.3890 C.3    64  GLU64       0.0415
     83  CG        -4.1350  -50.2630   29.8550 C.3    64  GLU64       0.1163
     84  CD        -5.2740  -51.0440   30.4660 C.2    64  GLU64       0.3649
     85  OE1       -5.7730  -51.9880   29.8190 O.co2  64  GLU64      -0.2457
     86  OE2       -5.6650  -50.7200   31.6040 O.co2  64  GLU64      -0.2457
     87  N         -4.6580  -49.3360   23.8530 N.3    67  ASP67      -0.1239
     88  CA        -4.9000  -47.8910   23.8600 C.3    67  ASP67       0.1674
     89  C         -4.5320  -47.2620   22.5240 C.2    67  ASP67       0.2266
     90  O         -3.3850  -47.3400   22.0920 O.2    67  ASP67      -0.2867
     91  CB        -4.0980  -47.2060   24.9690 C.3    67  ASP67       0.1410
     92  CG        -4.7110  -47.3930   26.3540 C.2    67  ASP67       0.3668
     93  OD1       -5.8710  -47.8490   26.4470 O.co2  67  ASP67      -0.2456
     94  OD2       -4.0300  -47.0680   27.3550 O.co2  67  ASP67      -0.2456
     95  N         -7.2380  -41.5610   23.0320 N.3    72  GLU72      -0.1245
     96  CA        -6.9720  -41.1780   24.4170 C.3    72  GLU72       0.1567
     97  C         -6.7210  -39.6750   24.5330 C.2    72  GLU72       0.2260
     98  O         -7.1420  -39.0360   25.5050 O.2    72  GLU72      -0.2867
     99  CB        -5.7800  -41.9650   24.9860 C.3    72  GLU72       0.0388
    100  CG        -5.9620  -43.4800   25.0270 C.3    72  GLU72       0.1160
    101  CD        -7.0700  -43.9420   25.9860 C.2    72  GLU72       0.3649
    102  OE1       -7.1150  -43.4590   27.1410 O.co2  72  GLU72      -0.2457
    103  OE2       -7.8940  -44.7970   25.5830 O.co2  72  GLU72      -0.2457
    104  N         -9.0430  -36.8530   26.6670 N.3    76  HIS76      -0.1241
    105  CA        -8.4300  -36.0740   27.7470 C.3    76  HIS76       0.1621
    106  C         -8.1800  -34.5830   27.4520 C.2    76  HIS76       0.2264
    107  O         -8.2240  -33.7560   28.3570 O.2    76  HIS76      -0.2867
    108  CB        -7.1430  -36.7420   28.2310 C.3    76  HIS76       0.0745
    109  CG        -7.3770  -37.9830   29.0290 C.ar   76  HIS76       0.0817
    110  ND1       -7.7480  -37.9550   30.3570 N.ar   76  HIS76      -0.2268
    111  CD2       -7.2970  -39.2890   28.6870 C.ar   76  HIS76       0.1154
    112  CE1       -7.8840  -39.1930   30.7990 C.ar   76  HIS76       0.1986
    113  NE2       -7.6180  -40.0210   29.8060 N.ar   76  HIS76      -0.2212
@<TRIPOS>BOND
     1    90    89    2
     2    89    88    1
     3    95    96    1
     4    87    88    1
     5    88    91    1
     6    96    97    1
     7    96    99    1
     8    97    98    2
     9    91    92    1
    10    99   100    1
    11   100   101    1
    12    76    77   ar
    13    76    74   ar
    14    77    75   ar
    15   103   101   ar
    16    81    80    2
    17   101   102   ar
    18    74    71   ar
    19    92    93   ar
    20    92    94   ar
    21    80    79    1
    22    75    73   ar
    23   104   105    1
    24    71    73   ar
    25    71    69   ar
    26    73    72   ar
    27    49    48    1
    28   106   105    1
    29   106   107    2
    30   105   108    1
    31    29    26    1
    32    29    30    1
    33    25    26    1
    34    79    78    1
    35    79    82    1
    36    69    68    1
    37    69    70   ar
    38    28    27    2
    39    78    66   am
    40    68    65    1
    41   108   109    1
    42    72    70   ar
    43    82    83    1
    44    26    27    1
    45    30    31    1
    46   111   109   ar
    47   111   113   ar
    48    48    47    1
    49    48    50    1
    50    27    34   am
    51   109   110   ar
    52    66    65    1
    53    66    67    2
    54    65    64    1
    55    47    44    1
    56    31    32    1
    57    20    19    2
    58   113   112   ar
    59    85    84   ar
    60    83    84    1
    61    19    18    1
    62    34    35    1
    63    46    45    2
    64    43    44    1
    65    43    36   am
    66   110   112   ar
    67    32    33    1
    68    84    86   ar
    69    44    45    1
    70    64    62   am
    71    35    36    1
    72    35    38    1
    73    45    51   am
    74    36    37    2
    75    18    17    1
    76    18    21    1
    77    63    62    2
    78    62    61    1
    79    39    38    1
    80    39    40    1
    81    54    53    2
    82    51    52    1
    83    53    52    1
    84    53    60   am
    85    52    55    1
    86    21    22    1
    87    22    23    1
    88    22    24    1
    89    60    61    1
    90    40    42   ar
    91    40    41   ar
    92    55    56    1
    93    11    10    2
    94     1     2    1
    95    56    57    1
    96    10     9    1
    97     2     3    1
    98     2     5    1
    99     7     5    1
   100     4     3    2
   101    57    58   ar
   102    57    59   ar
   103     9    12    1
   104     9     8    1
   105    12    13    1
   106     5     6    1
   107    15    14   ar
   108    13    14    1
   109    14    16   ar
