@<TRIPOS>MOLECULE
tmp/4a0iB00.pdb
 122 117 0 0 0
SMALL
GASTEIGER

@<TRIPOS>ATOM
      1  N         32.5340   -1.2410    7.1080 N.3    44  THR44      -0.1218
      2  CA        33.8990   -1.3340    7.6190 C.3    44  THR44       0.1862
      3  C         34.5150    0.0590    7.6750 C.2    44  THR44       0.2287
      4  O         33.8430    1.0550    7.3910 O.2    44  THR44      -0.2866
      5  CB        34.7840   -2.2530    6.7530 C.3    44  THR44       0.1770
      6  OG1       34.8080   -1.7780    5.4010 O.3    44  THR44      -0.2211
      7  CG2       34.2580   -3.6700    6.7710 C.3    44  THR44       0.0375
      8  N         35.2140    0.9100    3.9280 N.3    47  GLU47      -0.1245
      9  CA        34.0320    0.6600    3.1020 C.3    47  GLU47       0.1567
     10  C         32.7560    0.7560    3.9490 C.2    47  GLU47       0.2260
     11  O         32.1070   -0.2490    4.2290 O.2    47  GLU47      -0.2867
     12  CB        34.1390   -0.7060    2.4110 C.3    47  GLU47       0.0388
     13  CG        35.3920   -0.8880    1.5420 C.3    47  GLU47       0.1160
     14  CD        35.6880   -2.3470    1.2190 C.2    47  GLU47       0.3649
     15  OE1       34.9710   -3.2270    1.7420 O.co2  47  GLU47      -0.2457
     16  OE2       36.6370   -2.6150    0.4470 O.co2  47  GLU47      -0.2457
     17  N         29.1180   -0.4450    2.9180 N.3    50  LEU50      -0.1245
     18  CA        29.0850   -1.8470    2.5020 C.3    50  LEU50       0.1561
     19  C         27.7680   -2.5480    2.8520 C.2    50  LEU50       0.2260
     20  O         27.2560   -2.4370    3.9730 O.2    50  LEU50      -0.2867
     21  CB        30.2620   -2.6240    3.0940 C.3    50  LEU50       0.0270
     22  CG        30.5300   -3.9740    2.4210 C.3    50  LEU50       0.0019
     23  CD1       30.9910   -3.7730    0.9830 C.3    50  LEU50       0.0001
     24  CD2       31.5510   -4.7760    3.1990 C.3    50  LEU50       0.0001
     25  N         26.3000  -11.6580   -1.9870 N.3    58  LYS58      -0.1231
     26  CA        26.9630  -10.7380   -2.8870 C.3    58  LYS58       0.1693
     27  C         27.1940   -9.4590   -2.0960 C.2    58  LYS58       0.2592
     28  O         26.3130   -9.0130   -1.3630 O.2    58  LYS58      -0.2718
     29  CB        26.0510  -10.4350   -4.0740 C.3    58  LYS58       0.0285
     30  CG        26.7460   -9.8090   -5.2550 C.3    58  LYS58       0.0035
     31  CD        27.4780  -10.8730   -6.0410 C.3    58  LYS58       0.0206
     32  CE        28.4060  -10.2430   -7.0580 C.3    58  LYS58       0.1093
     33  NZ        29.3480  -11.2430   -7.6180 N.3    58  LYS58      -0.1314
     34  N         28.3780   -8.8720   -2.2250 N.am   59  GLU59      -0.1966
     35  CA        28.6880   -7.6500   -1.4910 C.3    59  GLU59       0.1733
     36  C         28.8600   -6.4500   -2.4060 C.2    59  GLU59       0.2616
     37  O         29.6470   -6.4970   -3.3500 O.2    59  GLU59      -0.2715
     38  CB        29.9510   -7.8300   -0.6740 C.3    59  GLU59       0.0429
     39  CG        29.8330   -8.7930    0.4740 C.3    59  GLU59       0.1163
     40  CD        31.1880   -9.0390    1.1180 C.2    59  GLU59       0.3649
     41  OE1       32.0760   -9.5920    0.4320 O.co2  59  GLU59      -0.2457
     42  OE2       31.3760   -8.6610    2.2950 O.co2  59  GLU59      -0.2457
     43  N         28.1270   -5.3770   -2.1060 N.am   60  LEU60      -0.1963
     44  CA        28.1840   -4.1490   -2.8960 C.3    60  LEU60       0.1728
     45  C         28.5020   -2.9260   -2.0380 C.2    60  LEU60       0.2616
     46  O         27.9400   -2.7510   -0.9560 O.2    60  LEU60      -0.2715
     47  CB        26.8520   -3.9210   -3.6220 C.3    60  LEU60       0.0311
     48  CG        26.3970   -5.0130   -4.5910 C.3    60  LEU60       0.0022
     49  CD1       25.0590   -4.6590   -5.2110 C.3    60  LEU60       0.0001
     50  CD2       27.4320   -5.2360   -5.6750 C.3    60  LEU60       0.0001
     51  N         29.4060   -2.0860   -2.5340 N.am   61  GLU61      -0.1963
     52  CA        29.7070   -0.7950   -1.9140 C.3    61  GLU61       0.1733
     53  C         29.5100    0.2910   -2.9550 C.2    61  GLU61       0.2617
     54  O         28.9670    0.0190   -4.0360 O.2    61  GLU61      -0.2715
     55  CB        31.1490   -0.7530   -1.3890 C.3    61  GLU61       0.0429
     56  CG        32.2310   -0.6910   -2.5120 C.3    61  GLU61       0.1163
     57  CD        32.7120   -2.1170   -2.9080 C.2    61  GLU61       0.3649
     58  OE1       32.0170   -3.1370   -2.6330 O.co2  61  GLU61      -0.2457
     59  OE2       33.8120   -2.2270   -3.5110 O.co2  61  GLU61      -0.2457
     60  N         29.9500    1.5120   -2.6280 N.am   62  GLY62      -0.1940
     61  CA        29.8950    2.6370   -3.5440 C.3    62  GLY62       0.2014
     62  C         28.4980    2.9650   -4.0260 C.2    62  GLY62       0.2639
     63  O         28.2880    3.2220   -5.2160 O.2    62  GLY62      -0.2714
     64  N         27.5360    2.9470   -3.1060 N.am   63  TRP63      -0.1959
     65  CA        26.1560    3.2880   -3.4250 C.3    63  TRP63       0.1771
     66  C         25.9580    4.7660   -3.7980 C.2    63  TRP63       0.2619
     67  O         26.7290    5.6550   -3.3890 O.2    63  TRP63      -0.2715
     68  CB        25.2650    2.9360   -2.2520 C.3    63  TRP63       0.0590
     69  CG        25.2340    1.4640   -2.0260 C.ar   63  TRP63       0.0006
     70  CD1       26.1000    0.7370   -1.2700 C.ar   63  TRP63       0.0946
     71  CD2       24.3200    0.5260   -2.6060 C.ar   63  TRP63       0.0152
     72  NE1       25.7740   -0.5910   -1.3280 N.ar   63  TRP63      -0.2442
     73  CE2       24.6890   -0.7490   -2.1470 C.ar   63  TRP63       0.0810
     74  CE3       23.2170    0.6440   -3.4620 C.ar   63  TRP63       0.0012
     75  CZ2       23.9820   -1.9110   -2.4970 C.ar   63  TRP63       0.0191
     76  CZ3       22.5270   -0.5060   -3.8280 C.ar   63  TRP63       0.0001
     77  CH2       22.9070   -1.7700   -3.3360 C.ar   63  TRP63       0.0015
     78  N         24.9120    5.0130   -4.5800 N.am   64  GLU64      -0.1977
     79  CA        24.5330    6.3640   -4.9660 C.3    64  GLU64       0.1602
     80  C         23.0380    6.5720   -4.7270 C.2    64  GLU64       0.2287
     81  O         22.2490    5.6280   -4.8110 O.2    64  GLU64      -0.2864
     82  CB        24.9000    6.6180   -6.4250 C.3    64  GLU64       0.0415
     83  CG        26.3770    6.3920   -6.7120 C.3    64  GLU64       0.1163
     84  CD        26.8910    7.1990   -7.8950 C.2    64  GLU64       0.3649
     85  OE1       26.1520    8.0650   -8.4020 O.co2  64  GLU64      -0.2457
     86  OE2       28.0470    6.9690   -8.3120 O.co2  64  GLU64      -0.2457
     87  N         20.4930    4.9190   -6.8420 N.3    67  ASP67      -0.1239
     88  CA        20.6190    3.4670   -6.9900 C.3    67  ASP67       0.1674
     89  C         19.3530    2.7410   -6.5220 C.2    67  ASP67       0.2266
     90  O         18.9670    2.8400   -5.3580 O.2    67  ASP67      -0.2867
     91  CB        21.8160    2.9290   -6.1950 C.3    67  ASP67       0.1410
     92  CG        23.1520    3.2100   -6.8660 C.2    67  ASP67       0.3668
     93  OD1       23.1520    3.6010   -8.0540 O.co2  67  ASP67      -0.2456
     94  OD2       24.2050    3.0280   -6.2010 O.co2  67  ASP67      -0.2456
     95  N         20.2720   -3.1380   -8.8190 N.3    72  GLU72      -0.1245
     96  CA        21.7040   -3.3380   -8.6200 C.3    72  GLU72       0.1567
     97  C         21.9840   -4.7920   -8.2590 C.2    72  GLU72       0.2260
     98  O         23.0000   -5.3590   -8.6520 O.2    72  GLU72      -0.2867
     99  CB        22.2480   -2.4030   -7.5300 C.3    72  GLU72       0.0388
    100  CG        22.1180   -0.9080   -7.8300 C.3    72  GLU72       0.1160
    101  CD        23.0040   -0.4330   -8.9790 C.2    72  GLU72       0.3649
    102  OE1       24.2050   -0.8040   -9.0200 O.co2  72  GLU72      -0.2457
    103  OE2       22.4940    0.3290   -9.8370 O.co2  72  GLU72      -0.2457
    104  N         24.2980   -7.5520  -10.4940 N.3    76  HIS76      -0.1241
    105  CA        25.4710   -8.1820   -9.8870 C.3    76  HIS76       0.1621
    106  C         25.3240   -9.6700   -9.5200 C.2    76  HIS76       0.2264
    107  O         26.3010  -10.4130   -9.5460 O.2    76  HIS76      -0.2867
    108  CB        25.9340   -7.3840   -8.6690 C.3    76  HIS76       0.0745
    109  CG        26.5930   -6.0940   -9.0190 C.ar   76  HIS76       0.0817
    110  ND1       27.8990   -6.0230   -9.4610 N.ar   76  HIS76      -0.2268
    111  CD2       26.1340   -4.8220   -9.0020 C.ar   76  HIS76       0.1154
    112  CE1       28.2140   -4.7630   -9.6980 C.ar   76  HIS76       0.1986
    113  NE2       27.1590   -4.0120   -9.4290 N.ar   76  HIS76      -0.2212
    114  N         30.7220  -19.1440   -1.2820 N.3   111  LYS111     -0.1245
    115  CA        31.4130  -17.8820   -1.0770 C.3   111  LYS111      0.1561
    116  C         32.6370  -18.1570   -0.2310 C.2   111  LYS111      0.2260
    117  O         33.7460  -17.7680   -0.6080 O.2   111  LYS111     -0.2867
    118  CB        30.5050  -16.8160   -0.4180 C.3   111  LYS111      0.0271
    119  CG        31.0250  -15.3510   -0.4870 C.3   111  LYS111      0.0035
    120  CD        30.8550  -14.7400   -1.9000 C.3   111  LYS111      0.0206
    121  CE        31.4480  -13.3090   -2.0610 C.3   111  LYS111      0.1093
    122  NZ        30.7730  -12.2270   -1.2790 N.3   111  LYS111     -0.1314
@<TRIPOS>BOND
     1   104   105    1
     2   105   106    1
     3   105   108    1
     4   103   101   ar
     5   112   110   ar
     6   112   113   ar
     7   107   106    2
     8   110   109   ar
     9   113   111   ar
    10   102   101   ar
    11   109   111   ar
    12   109   108    1
    13   101   100    1
    14    95    96    1
    15    98    97    2
    16    96    97    1
    17    96    99    1
    18    85    84   ar
    19    86    84   ar
    20    93    92   ar
    21    84    83    1
    22   100    99    1
    23    33    32    1
    24    32    31    1
    25    88    87    1
    26    88    89    1
    27    88    91    1
    28    92    94   ar
    29    92    91    1
    30    83    82    1
    31    89    90    2
    32    82    79    1
    33    31    30    1
    34    50    48    1
    35    30    29    1
    36    63    62    2
    37    49    48    1
    38    79    80    1
    39    79    78    1
    40    81    80    2
    41    48    47    1
    42    78    66   am
    43    29    26    1
    44    54    53    2
    45    62    61    1
    46    62    64   am
    47    76    74   ar
    48    76    77   ar
    49    66    65    1
    50    66    67    2
    51    47    44    1
    52    61    60    1
    53    59    57   ar
    54    74    71   ar
    55    65    64    1
    56    65    68    1
    57    37    36    2
    58    77    75   ar
    59    53    60   am
    60    53    52    1
    61    57    58   ar
    62    57    56    1
    63    44    43    1
    64    44    45    1
    65    26    27    1
    66    26    25    1
    67    71    73   ar
    68    71    69   ar
    69    51    45   am
    70    51    52    1
    71    56    55    1
    72    75    73   ar
    73    36    43   am
    74    36    35    1
    75    68    69    1
    76    34    27   am
    77    34    35    1
    78    73    72   ar
    79    27    28    2
    80   121   120    1
    81   121   122    1
    82    45    46    2
    83    69    70   ar
    84    52    55    1
    85   120   119    1
    86    35    38    1
    87    72    70   ar
    88   114   115    1
    89   115   118    1
    90   115   116    1
    91    38    39    1
    92   117   116    2
    93   119   118    1
    94    41    40   ar
    95    16    14   ar
    96    39    40    1
    97    23    22    1
    98    40    42   ar
    99    14    13    1
   100    14    15   ar
   101    13    12    1
   102    12     9    1
   103    22    21    1
   104    22    24    1
   105    18    19    1
   106    18    17    1
   107    18    21    1
   108    19    20    2
   109     9     8    1
   110     9    10    1
   111    10    11    2
   112     6     5    1
   113     5     7    1
   114     5     2    1
   115     1     2    1
   116     4     3    2
   117     2     3    1
