@<TRIPOS>MOLECULE
tmp/4a0jB00.pdb
 113 109 0 0 0
SMALL
GASTEIGER

@<TRIPOS>ATOM
      1  N         32.6500   -2.1420    7.2120 N.3    44  THR44      -0.1218
      2  CA        34.0210   -2.3090    7.6670 C.3    44  THR44       0.1862
      3  C         34.6510   -0.9280    7.7660 C.2    44  THR44       0.2287
      4  O         33.9620    0.0830    7.6010 O.2    44  THR44      -0.2866
      5  CB        34.8370   -3.1830    6.7000 C.3    44  THR44       0.1770
      6  OG1       34.8480   -2.5520    5.4290 O.3    44  THR44      -0.2211
      7  CG2       34.2790   -4.5890    6.5950 C.3    44  THR44       0.0375
      8  N         35.3310    0.0280    4.1380 N.3    47  GLU47      -0.1245
      9  CA        34.0770   -0.1430    3.4170 C.3    47  GLU47       0.1567
     10  C         32.8820    0.0000    4.3540 C.2    47  GLU47       0.2260
     11  O         32.3080   -0.9960    4.7930 O.2    47  GLU47      -0.2867
     12  CB        34.0600   -1.5080    2.7340 C.3    47  GLU47       0.0388
     13  CG        35.2350   -1.7440    1.8010 C.3    47  GLU47       0.1160
     14  CD        35.6200   -3.2070    1.7020 C.2    47  GLU47       0.3649
     15  OE1       35.1370   -4.0100    2.5290 O.co2  47  GLU47      -0.2457
     16  OE2       36.4090   -3.5570    0.7970 O.co2  47  GLU47      -0.2457
     17  N         29.3840   -1.2920    2.9500 N.3    50  LEU50      -0.1245
     18  CA        29.3440   -2.6900    2.5480 C.3    50  LEU50       0.1561
     19  C         28.0190   -3.3620    2.9360 C.2    50  LEU50       0.2260
     20  O         27.6150   -3.3410    4.1020 O.2    50  LEU50      -0.2867
     21  CB        30.5200   -3.4440    3.1740 C.3    50  LEU50       0.0270
     22  CG        30.7700   -4.8650    2.6600 C.3    50  LEU50       0.0019
     23  CD1       31.1220   -4.8560    1.1750 C.3    50  LEU50       0.0001
     24  CD2       31.8680   -5.5370    3.4690 C.3    50  LEU50       0.0001
     25  N         26.6500  -12.6700   -1.7070 N.3    58  LYS58      -0.1231
     26  CA        27.2880  -11.6740   -2.5540 C.3    58  LYS58       0.1693
     27  C         27.4910  -10.3960   -1.7280 C.2    58  LYS58       0.2592
     28  O         26.6660  -10.0610   -0.8720 O.2    58  LYS58      -0.2718
     29  CB        26.4130  -11.3850   -3.7820 C.3    58  LYS58       0.0285
     30  CG        27.0740  -10.5040   -4.8380 C.3    58  LYS58       0.0035
     31  CD        27.9230  -11.3340   -5.7840 C.3    58  LYS58       0.0206
     32  CE        29.1980  -10.6010   -6.1740 C.3    58  LYS58       0.1093
     33  NZ        30.2050  -11.5320   -6.7600 N.3    58  LYS58      -0.1314
     34  N         28.5910   -9.6910   -1.9690 N.am   59  GLU59      -0.1966
     35  CA        28.8730   -8.4510   -1.2420 C.3    59  GLU59       0.1733
     36  C         29.0410   -7.2530   -2.1800 C.2    59  GLU59       0.2616
     37  O         29.7010   -7.3600   -3.2100 O.2    59  GLU59      -0.2715
     38  CB        30.1150   -8.6060   -0.3670 C.3    59  GLU59       0.0429
     39  CG        30.0170   -9.7210    0.6550 C.3    59  GLU59       0.1163
     40  CD        31.3270   -9.9460    1.3880 C.2    59  GLU59       0.3649
     41  OE1       31.5690   -9.2580    2.4040 O.co2  59  GLU59      -0.2457
     42  OE2       32.1150  -10.8080    0.9430 O.co2  59  GLU59      -0.2457
     43  N         28.4400   -6.1190   -1.8130 N.am   60  LEU60      -0.1963
     44  CA        28.4180   -4.9400   -2.6690 C.3    60  LEU60       0.1728
     45  C         28.7330   -3.6520   -1.9060 C.2    60  LEU60       0.2616
     46  O         28.0020   -3.2590   -0.9960 O.2    60  LEU60      -0.2715
     47  CB        27.0630   -4.7990   -3.3690 C.3    60  LEU60       0.0311
     48  CG        26.5350   -5.9890   -4.1750 C.3    60  LEU60       0.0022
     49  CD1       25.1660   -5.6690   -4.7630 C.3    60  LEU60       0.0001
     50  CD2       27.5080   -6.4100   -5.2750 C.3    60  LEU60       0.0001
     51  N         29.8310   -3.0030   -2.2830 N.am   61  GLU61      -0.1963
     52  CA        30.1680   -1.6870   -1.7640 C.3    61  GLU61       0.1733
     53  C         29.8150   -0.6680   -2.8350 C.2    61  GLU61       0.2617
     54  O         29.3510   -1.0300   -3.9240 O.2    61  GLU61      -0.2715
     55  CB        31.6660   -1.5920   -1.4260 C.3    61  GLU61       0.0429
     56  CG        32.5640   -1.8780   -2.6690 C.3    61  GLU61       0.1163
     57  CD        34.0460   -2.0750   -2.3340 C.2    61  GLU61       0.3649
     58  OE1       34.4510   -1.9500   -1.1560 O.co2  61  GLU61      -0.2457
     59  OE2       34.8210   -2.3320   -3.2640 O.co2  61  GLU61      -0.2457
     60  N         30.0280    0.6050   -2.5190 N.am   62  GLY62      -0.1940
     61  CA        29.8990    1.6670   -3.4970 C.3    62  GLY62       0.2014
     62  C         28.4810    1.9360   -3.9440 C.2    62  GLY62       0.2639
     63  O         28.2040    2.0550   -5.1430 O.2    62  GLY62      -0.2714
     64  N         27.5810    2.0470   -2.9760 N.am   63  TRP63      -0.1959
     65  CA        26.1840    2.3060   -3.2790 C.3    63  TRP63       0.1771
     66  C         25.9590    3.7720   -3.6190 C.2    63  TRP63       0.2619
     67  O         26.5600    4.6650   -3.0070 O.2    63  TRP63      -0.2715
     68  CB        25.2950    1.8830   -2.1120 C.3    63  TRP63       0.0590
     69  CG        25.2180    0.3920   -1.9580 C.ar   63  TRP63       0.0006
     70  CD1       26.0820   -0.4040   -1.2610 C.ar   63  TRP63       0.0946
     71  CD2       24.2280   -0.4860   -2.5210 C.ar   63  TRP63       0.0152
     72  NE1       25.6930   -1.7150   -1.3540 N.ar   63  TRP63      -0.2442
     73  CE2       24.5600   -1.7940   -2.1210 C.ar   63  TRP63       0.0810
     74  CE3       23.0920   -0.2880   -3.3170 C.ar   63  TRP63       0.0012
     75  CZ2       23.7960   -2.9080   -2.4890 C.ar   63  TRP63       0.0191
     76  CZ3       22.3450   -1.3810   -3.6900 C.ar   63  TRP63       0.0001
     77  CH2       22.6950   -2.6830   -3.2720 C.ar   63  TRP63       0.0015
     78  N         25.1070    4.0030   -4.6150 N.am   64  GLU64      -0.1977
     79  CA        24.6800    5.3460   -4.9820 C.3    64  GLU64       0.1602
     80  C         23.1930    5.4810   -4.6530 C.2    64  GLU64       0.2287
     81  O         22.4280    4.5290   -4.8150 O.2    64  GLU64      -0.2864
     82  CB        24.9430    5.6120   -6.4680 C.3    64  GLU64       0.0415
     83  CG        26.2600    5.0600   -6.9700 C.3    64  GLU64       0.1163
     84  CD        27.3960    6.0280   -6.7590 C.2    64  GLU64       0.3649
     85  OE1       27.1260    7.2440   -6.6620 O.co2  64  GLU64      -0.2457
     86  OE2       28.5570    5.5730   -6.6870 O.co2  64  GLU64      -0.2457
     87  N         20.5120    3.8800   -6.7970 N.3    67  ASP67      -0.1239
     88  CA        20.4910    2.4260   -6.9980 C.3    67  ASP67       0.1674
     89  C         19.2290    1.7650   -6.4430 C.2    67  ASP67       0.2266
     90  O         18.8180    2.0270   -5.3080 O.2    67  ASP67      -0.2867
     91  CB        21.7110    1.7680   -6.3550 C.3    67  ASP67       0.1410
     92  CG        23.0190    2.1820   -7.0100 C.2    67  ASP67       0.3668
     93  OD1       22.9860    2.5980   -8.1890 O.co2  67  ASP67      -0.2456
     94  OD2       24.0810    2.0800   -6.3490 O.co2  67  ASP67      -0.2456
     95  N         20.0130   -4.1260   -8.6270 N.3    72  GLU72      -0.1245
     96  CA        21.4420   -4.2720   -8.3640 C.3    72  GLU72       0.1567
     97  C         21.7940   -5.6900   -7.9040 C.2    72  GLU72       0.2260
     98  O         22.9430   -6.1150   -8.0040 O.2    72  GLU72      -0.2867
     99  CB        21.8810   -3.2490   -7.3120 C.3    72  GLU72       0.0388
    100  CG        23.2490   -2.6220   -7.5770 C.3    72  GLU72       0.1160
    101  CD        23.3190   -1.8890   -8.9110 C.2    72  GLU72       0.3649
    102  OE1       22.4040   -1.0810   -9.2050 O.co2  72  GLU72      -0.2457
    103  OE2       24.2940   -2.1210   -9.6620 O.co2  72  GLU72      -0.2457
    104  N         24.4540   -8.2700  -10.0550 N.3    76  HIS76      -0.1241
    105  CA        25.6770   -8.8560   -9.5100 C.3    76  HIS76       0.1621
    106  C         25.5510  -10.2810   -8.9590 C.2    76  HIS76       0.2264
    107  O         26.5480  -10.8760   -8.5320 O.2    76  HIS76      -0.2867
    108  CB        26.2570   -7.9280   -8.4440 C.3    76  HIS76       0.0745
    109  CG        26.6120   -6.5740   -8.9650 C.ar   76  HIS76       0.0817
    110  ND1       27.8900   -6.2400   -9.3580 N.ar   76  HIS76      -0.2268
    111  CD2       25.8550   -5.4720   -9.1740 C.ar   76  HIS76       0.1154
    112  CE1       27.9070   -4.9890   -9.7790 C.ar   76  HIS76       0.1986
    113  NE2       26.6840   -4.4990   -9.6780 N.ar   76  HIS76      -0.2212
@<TRIPOS>BOND
     1   104   105    1
     2   112   113   ar
     3   112   110   ar
     4   113   111   ar
     5   103   101   ar
     6   105   106    1
     7   105   108    1
     8   110   109   ar
     9   102   101   ar
    10   111   109   ar
    11   109   108    1
    12   106   107    2
    13   101   100    1
    14    95    96    1
    15    96    97    1
    16    96    99    1
    17    93    92   ar
    18    98    97    2
    19   100    99    1
    20    92    91    1
    21    92    94   ar
    22    88    87    1
    23    88    89    1
    24    88    91    1
    25    83    84    1
    26    83    82    1
    27    33    32    1
    28    84    86   ar
    29    84    85   ar
    30    82    79    1
    31    89    90    2
    32    32    31    1
    33    31    30    1
    34    50    48    1
    35    63    62    2
    36    79    80    1
    37    79    78    1
    38    30    29    1
    39    81    80    2
    40    49    48    1
    41    78    66   am
    42    48    47    1
    43    62    61    1
    44    62    64   am
    45    54    53    2
    46    29    26    1
    47    76    74   ar
    48    76    77   ar
    49    66    65    1
    50    66    67    2
    51    61    60    1
    52    47    44    1
    53    74    71   ar
    54    65    64    1
    55    65    68    1
    56    77    75   ar
    57    59    57   ar
    58    37    36    2
    59    53    60   am
    60    53    52    1
    61    56    57    1
    62    56    55    1
    63    44    45    1
    64    44    43    1
    65    26    27    1
    66    26    25    1
    67    71    73   ar
    68    71    69   ar
    69    75    73   ar
    70    57    58   ar
    71    51    45   am
    72    51    52    1
    73    36    43   am
    74    36    35    1
    75    73    72   ar
    76    68    69    1
    77    34    27   am
    78    34    35    1
    79    69    70   ar
    80    45    46    2
    81    52    55    1
    82    27    28    2
    83    72    70   ar
    84    35    38    1
    85    38    39    1
    86    39    40    1
    87    16    14   ar
    88    42    40   ar
    89    23    22    1
    90    40    41   ar
    91    14    13    1
    92    14    15   ar
    93    13    12    1
    94    18    19    1
    95    18    17    1
    96    18    21    1
    97    22    21    1
    98    22    24    1
    99    12     9    1
   100    19    20    2
   101     9     8    1
   102     9    10    1
   103    10    11    2
   104     6     5    1
   105     7     5    1
   106     5     2    1
   107     1     2    1
   108     4     3    2
   109     2     3    1
