@<TRIPOS>MOLECULE
tmp/4a0nA00.pdb
 122 118 0 0 0
SMALL
GASTEIGER

@<TRIPOS>ATOM
      1  N         20.8370    8.5160  -20.4580 N.3    38  THR38      -0.1218
      2  CA        20.7500    7.2810  -21.2210 C.3    38  THR38       0.1862
      3  C         22.1580    6.8810  -21.6300 C.2    38  THR38       0.2287
      4  O         23.0810    7.6960  -21.5690 O.2    38  THR38      -0.2866
      5  CB        19.8770    7.4330  -22.4750 C.3    38  THR38       0.1770
      6  OG1       20.4970    8.3490  -23.3820 O.3    38  THR38      -0.2211
      7  CG2       18.4990    7.9470  -22.1040 C.3    38  THR38       0.0375
      8  N         23.0680    9.4020  -24.4280 N.3    41  GLU41      -0.1245
      9  CA        23.0080   10.8190  -24.0760 C.3    41  GLU41       0.1567
     10  C         22.9810   10.9770  -22.5600 C.2    41  GLU41       0.2260
     11  O         21.9300   11.2200  -21.9690 O.2    41  GLU41      -0.2867
     12  CB        21.8130   11.5120  -24.7410 C.3    41  GLU41       0.0388
     13  CG        20.4950   10.7670  -24.6120 C.3    41  GLU41       0.1160
     14  CD        19.6560   10.8350  -25.8750 C.2    41  GLU41       0.3649
     15  OE1       19.7630   11.8400  -26.6080 O.co2  41  GLU41      -0.2457
     16  OE2       18.8910    9.8810  -26.1360 O.co2  41  GLU41      -0.2457
     17  N         21.5470   14.1240  -20.7310 N.3    44  LEU44      -0.1245
     18  CA        20.1390   14.4260  -20.9570 C.3    44  LEU44       0.1561
     19  C         19.4290   14.8110  -19.6550 C.2    44  LEU44       0.2260
     20  O         19.4260   14.0500  -18.6850 O.2    44  LEU44      -0.2867
     21  CB        19.4340   13.2280  -21.6000 C.3    44  LEU44       0.0270
     22  CG        17.9380   13.4070  -21.8620 C.3    44  LEU44       0.0019
     23  CD1       17.7020   13.9090  -23.2770 C.3    44  LEU44       0.0001
     24  CD2       17.1990   12.1060  -21.6220 C.3    44  LEU44       0.0001
     25  N         10.0890   18.7180  -21.3410 N.3    52  LYS52      -0.1231
     26  CA        11.0050   18.8670  -22.4680 C.3    52  LYS52       0.1693
     27  C         12.3520   18.2680  -22.0900 C.2    52  LYS52       0.2592
     28  O         12.7610   18.3490  -20.9370 O.2    52  LYS52      -0.2718
     29  CB        11.1660   20.3280  -22.8980 C.3    52  LYS52       0.0285
     30  CG        11.9070   20.4730  -24.2310 C.3    52  LYS52       0.0035
     31  CD        11.7900   21.8730  -24.8200 C.3    52  LYS52       0.0206
     32  CE        10.7850   21.9200  -25.9720 C.3    52  LYS52       0.1093
     33  NZ        11.1980   21.1240  -27.1710 N.3    52  LYS52      -0.1314
     34  N         13.0280   17.6610  -23.0620 N.am   53  GLU53      -0.1966
     35  CA        14.3080   16.9960  -22.8200 C.3    53  GLU53       0.1733
     36  C         15.4560   17.6140  -23.6140 C.2    53  GLU53       0.2616
     37  O         15.4200   17.6580  -24.8420 O.2    53  GLU53      -0.2715
     38  CB        14.1930   15.5040  -23.1230 C.3    53  GLU53       0.0429
     39  CG        14.0070   14.6620  -21.8770 C.3    53  GLU53       0.1163
     40  CD        13.3560   13.3300  -22.1650 C.2    53  GLU53       0.3649
     41  OE1       12.7270   13.2000  -23.2390 O.co2  53  GLU53      -0.2457
     42  OE2       13.4720   12.4180  -21.3150 O.co2  53  GLU53      -0.2457
     43  N         16.4740   18.0840  -22.9000 N.am   54  LEU54      -0.1963
     44  CA        17.5910   18.7810  -23.5270 C.3    54  LEU54       0.1728
     45  C         18.9090   18.0830  -23.2630 C.2    54  LEU54       0.2616
     46  O         19.2260   17.7520  -22.1210 O.2    54  LEU54      -0.2715
     47  CB        17.6720   20.2220  -23.0330 C.3    54  LEU54       0.0311
     48  CG        16.4080   21.0470  -23.2610 C.3    54  LEU54       0.0022
     49  CD1       16.6040   22.4600  -22.7450 C.3    54  LEU54       0.0001
     50  CD2       16.0100   21.0490  -24.7370 C.3    54  LEU54       0.0001
     51  N         19.6760   17.8800  -24.3290 N.am   55  GLU55      -0.1963
     52  CA        20.9540   17.1880  -24.2550 C.3    55  GLU55       0.1733
     53  C         22.0670   18.0390  -24.8580 C.2    55  GLU55       0.2617
     54  O         21.8290   19.1570  -25.3170 O.2    55  GLU55      -0.2715
     55  CB        20.8640   15.8780  -25.0220 C.3    55  GLU55       0.0429
     56  CG        20.4100   16.0780  -26.4480 C.3    55  GLU55       0.1163
     57  CD        20.9850   15.0480  -27.3850 C.2    55  GLU55       0.3649
     58  OE1       21.4940   14.0200  -26.8910 O.co2  55  GLU55      -0.2457
     59  OE2       20.9380   15.2720  -28.6140 O.co2  55  GLU55      -0.2457
     60  N         23.2810   17.4970  -24.8690 N.am   56  GLY56      -0.1940
     61  CA        24.4260   18.2080  -25.4010 C.3    56  GLY56       0.2014
     62  C         24.6190   19.5530  -24.7330 C.2    56  GLY56       0.2639
     63  O         24.7930   20.5720  -25.4020 O.2    56  GLY56      -0.2714
     64  N         24.5730   19.5590  -23.4050 N.am   57  TRP57      -0.1959
     65  CA        24.8100   20.7710  -22.6370 C.3    57  TRP57       0.1771
     66  C         26.2270   21.2640  -22.8560 C.2    57  TRP57       0.2619
     67  O         27.0650   20.5530  -23.4140 O.2    57  TRP57      -0.2715
     68  CB        24.5710   20.5160  -21.1520 C.3    57  TRP57       0.0590
     69  CG        23.1260   20.3360  -20.8380 C.ar   57  TRP57       0.0006
     70  CD1       22.4260   19.1670  -20.8440 C.ar   57  TRP57       0.0946
     71  CD2       22.1920   21.3640  -20.4960 C.ar   57  TRP57       0.0152
     72  NE1       21.1170   19.4010  -20.5180 N.ar   57  TRP57      -0.2442
     73  CE2       20.9450   20.7430  -20.2990 C.ar   57  TRP57       0.0810
     74  CE3       22.2910   22.7480  -20.3300 C.ar   57  TRP57       0.0012
     75  CZ2       19.8010   21.4590  -19.9440 C.ar   57  TRP57       0.0191
     76  CZ3       21.1600   23.4560  -19.9800 C.ar   57  TRP57       0.0001
     77  CH2       19.9300   22.8120  -19.7910 C.ar   57  TRP57       0.0015
     78  N         26.4890   22.4870  -22.4130 N.am   58  GLU58      -0.1977
     79  CA        27.8070   23.0870  -22.5570 C.3    58  GLU58       0.1602
     80  C         28.1170   23.9260  -21.3270 C.2    58  GLU58       0.2287
     81  O         27.2550   24.6580  -20.8450 O.2    58  GLU58      -0.2864
     82  CB        27.8640   23.9390  -23.8270 C.3    58  GLU58       0.0415
     83  CG        27.6700   23.1320  -25.1060 C.3    58  GLU58       0.1163
     84  CD        27.6540   23.9890  -26.3590 C.2    58  GLU58       0.3649
     85  OE1       27.0530   25.0850  -26.3220 O.co2  58  GLU58      -0.2457
     86  OE2       28.2430   23.5630  -27.3790 O.co2  58  GLU58      -0.2457
     87  N         26.2260   26.9340  -20.5490 N.3    61  ASP61      -0.1239
     88  CA        24.7960   26.9010  -20.8160 C.3    61  ASP61       0.1674
     89  C         24.0510   27.2810  -19.5460 C.2    61  ASP61       0.2266
     90  O         24.2480   26.6570  -18.5040 O.2    61  ASP61      -0.2867
     91  CB        24.3580   25.4980  -21.2450 C.3    61  ASP61       0.1410
     92  CG        24.3970   25.3030  -22.7470 C.2    61  ASP61       0.3668
     93  OD1       24.5650   26.3050  -23.4710 O.co2  61  ASP61      -0.2456
     94  OD2       24.2420   24.1490  -23.2020 O.co2  61  ASP61      -0.2456
     95  N         18.2890   28.2680  -21.4540 N.3    66  GLU66      -0.1245
     96  CA        17.9550   27.1750  -22.3600 C.3    66  GLU66       0.1567
     97  C         16.4940   26.7710  -22.2030 C.2    66  GLU66       0.2260
     98  O         15.8240   26.4090  -23.1680 O.2    66  GLU66      -0.2867
     99  CB        18.8660   25.9700  -22.1020 C.3    66  GLU66       0.0388
    100  CG        20.3190   26.1810  -22.5280 C.3    66  GLU66       0.1160
    101  CD        20.4610   26.4620  -24.0170 C.2    66  GLU66       0.3649
    102  OE1       20.1110   25.5790  -24.8320 O.co2  66  GLU66      -0.2457
    103  OE2       20.9180   27.5700  -24.3720 O.co2  66  GLU66      -0.2457
    104  N         14.1410   29.1040  -23.8290 N.3    69  LYS69      -0.1231
    105  CA        14.4330   29.0850  -25.2590 C.3    69  LYS69       0.1693
    106  C         13.7760   27.9160  -25.9810 C.2    69  LYS69       0.2592
    107  O         13.3320   28.0580  -27.1160 O.2    69  LYS69      -0.2718
    108  CB        15.9500   29.0650  -25.4950 C.3    69  LYS69       0.0285
    109  CG        16.3750   29.4360  -26.9120 C.3    69  LYS69       0.0035
    110  CD        17.8820   29.6640  -27.0020 C.3    69  LYS69       0.0206
    111  CE        18.6360   28.3700  -27.2800 C.3    69  LYS69       0.1093
    112  NZ        18.3520   27.8430  -28.6460 N.3    69  LYS69      -0.1314
    113  N         13.7140   26.7610  -25.3280 N.am   70  HIS70      -0.1976
    114  CA        13.1770   25.5690  -25.9740 C.3    70  HIS70       0.1656
    115  C         11.7250   25.2810  -25.6020 C.2    70  HIS70       0.2291
    116  O         10.9420   24.8530  -26.4450 O.2    70  HIS70      -0.2864
    117  CB        14.0710   24.3600  -25.6960 C.3    70  HIS70       0.0771
    118  CG        15.3790   24.4030  -26.4240 C.ar   70  HIS70       0.0820
    119  ND1       15.8540   23.3450  -27.1670 N.ar   70  HIS70      -0.2267
    120  CD2       16.2990   25.3890  -26.5410 C.ar   70  HIS70       0.1154
    121  CE1       17.0180   23.6720  -27.7020 C.ar   70  HIS70       0.1986
    122  NE2       17.3100   24.9080  -27.3380 N.ar   70  HIS70      -0.2212
@<TRIPOS>BOND
     1   112   111    1
     2    59    57   ar
     3   121   122   ar
     4   121   119   ar
     5    57    58   ar
     6    57    56    1
     7    86    84   ar
     8   122   120   ar
     9   111   110    1
    10    33    32    1
    11   119   118   ar
    12   107   106    2
    13   110   109    1
    14   109   108    1
    15    15    14   ar
    16   120   118   ar
    17    56    55    1
    18   116   115    2
    19   118   117    1
    20    84    85   ar
    21    84    83    1
    22    16    14   ar
    23   106   113   am
    24   106   105    1
    25   114   117    1
    26   114   115    1
    27   114   113    1
    28    32    31    1
    29    14    13    1
    30   108   105    1
    31    63    62    2
    32    61    60    1
    33    61    62    1
    34    54    53    2
    35   105   104    1
    36    83    82    1
    37    55    52    1
    38    60    53   am
    39    53    52    1
    40    37    36    2
    41   102   101   ar
    42    31    30    1
    43    12    13    1
    44    12     9    1
    45    50    48    1
    46    62    64   am
    47     8     9    1
    48   103   101   ar
    49    51    52    1
    50    51    45   am
    51    30    29    1
    52     9    10    1
    53   101   100    1
    54    82    79    1
    55    36    43   am
    56    36    35    1
    57    44    45    1
    58    44    47    1
    59    44    43    1
    60    93    92   ar
    61    67    66    2
    62    64    65    1
    63     6     5    1
    64    23    22    1
    65    45    46    2
    66    48    47    1
    67    48    49    1
    68    41    40   ar
    69    94    92   ar
    70    98    97    2
    71    38    35    1
    72    38    39    1
    73    34    35    1
    74    34    27   am
    75    29    26    1
    76    66    65    1
    77    66    78   am
    78    92    91    1
    79    65    68    1
    80    10    11    2
    81    79    78    1
    82    79    80    1
    83   100    99    1
    84     5     7    1
    85     5     2    1
    86    26    27    1
    87    26    25    1
    88    96    97    1
    89    96    99    1
    90    96    95    1
    91    40    39    1
    92    40    42   ar
    93    27    28    2
    94    22    24    1
    95    22    21    1
    96     3     4    2
    97     3     2    1
    98    21    18    1
    99    80    81    2
   100    91    88    1
   101     2     1    1
   102    68    69    1
   103    18    17    1
   104    18    19    1
   105    70    69   ar
   106    70    72   ar
   107    69    71   ar
   108    88    87    1
   109    88    89    1
   110    72    73   ar
   111    71    74   ar
   112    71    73   ar
   113    74    76   ar
   114    73    75   ar
   115    76    77   ar
   116    75    77   ar
   117    19    20    2
   118    89    90    2
