@<TRIPOS>MOLECULE
tmp/4a0rB03.pdb
 136 129 0 0 0
SMALL
GASTEIGER

@<TRIPOS>ATOM
      1  N          0.9580    7.4310   26.5090 N.3    15  ASN15      -0.1225
      2  CA        -0.3450    7.4780   25.8780 C.3    15  ASN15       0.1785
      3  C         -1.0120    8.7780   26.2220 C.2    15  ASN15       0.2598
      4  O         -0.4990    9.5510   27.0320 O.2    15  ASN15      -0.2718
      5  CB        -1.2500    6.3180   26.3250 C.3    15  ASN15       0.1169
      6  CG        -2.4980    6.1570   25.4240 C.2    15  ASN15       0.2627
      7  OD1       -2.5100    6.5860   24.2600 O.2    15  ASN15      -0.2716
      8  ND2       -3.5430    5.5330   25.9650 N.am   15  ASN15      -0.0877
      9  N         -2.1460    9.0250   25.5770 N.am   16  THR16      -0.1939
     10  CA        -2.9560   10.2020   25.8410 C.3    16  THR16       0.2028
     11  C         -3.7210   10.0230   27.1540 C.2    16  THR16       0.2642
     12  O         -3.9890    8.8910   27.5830 O.2    16  THR16      -0.2714
     13  CB        -3.9290   10.4390   24.7040 C.3    16  THR16       0.1808
     14  OG1       -4.2790   11.8190   24.6700 O.3    16  THR16      -0.2208
     15  CG2       -5.1800    9.6210   24.9000 C.3    16  THR16       0.0379
     16  N         -4.0260   11.1440   27.8060 N.am   17  SER17      -0.1949
     17  CA        -4.7620   11.1700   29.0800 C.3    17  SER17       0.1924
     18  C         -4.1370   10.3790   30.2270 C.2    17  SER17       0.2314
     19  O         -4.8450    9.7000   30.9740 O.2    17  SER17      -0.2863
     20  CB        -6.2160   10.7370   28.8730 C.3    17  SER17       0.2116
     21  OG        -6.8130   11.5700   27.8920 O.3    17  SER17      -0.2180
     22  N         -0.0340   14.2280   31.5680 N.3    20  LYS20      -0.1245
     23  CA         1.0010   15.1830   31.1920 C.3    20  LYS20       0.1561
     24  C          0.7110   16.5700   31.7580 C.2    20  LYS20       0.2260
     25  O          1.6210   17.2270   32.2490 O.2    20  LYS20      -0.2867
     26  CB         1.1900   15.2530   29.6650 C.3    20  LYS20       0.0271
     27  CG         1.9620   14.0950   29.0630 C.3    20  LYS20       0.0035
     28  CD         2.4180   14.4030   27.6470 C.3    20  LYS20       0.0206
     29  CE         1.2720   14.7890   26.7080 C.3    20  LYS20       0.1093
     30  NZ         0.3090   13.7030   26.5110 N.3    20  LYS20      -0.1314
     31  N          2.1740   24.6970   24.9100 N.3    47  LYS47      -0.1245
     32  CA         1.4500   23.5830   24.3060 C.3    47  LYS47       0.1561
     33  C          1.3990   23.8390   22.8160 C.2    47  LYS47       0.2260
     34  O          0.4670   24.4850   22.3370 O.2    47  LYS47      -0.2867
     35  CB         0.0380   23.5080   24.8610 C.3    47  LYS47       0.0271
     36  CG        -0.8130   22.3660   24.2990 C.3    47  LYS47       0.0035
     37  CD        -0.5010   21.0340   24.9560 C.3    47  LYS47       0.0206
     38  CE        -1.5830   20.0150   24.6270 C.3    47  LYS47       0.1093
     39  NZ        -1.3510   18.7150   25.3290 N.3    47  LYS47      -0.1314
     40  N          0.7400   22.0360   20.2370 N.3    49  ILE49      -0.1231
     41  CA        -0.3530   21.4110   19.5050 C.3    49  ILE49       0.1692
     42  C         -1.4700   21.0270   20.4630 C.2    49  ILE49       0.2592
     43  O         -1.2480   20.3010   21.4280 O.2    49  ILE49      -0.2718
     44  CB         0.1070   20.1170   18.8050 C.3    49  ILE49       0.0266
     45  CG1        1.2240   20.4100   17.8050 C.3    49  ILE49       0.0019
     46  CG2       -1.0720   19.4390   18.1390 C.3    49  ILE49       0.0020
     47  CD1        0.8290   21.4770   16.8420 C.3    49  ILE49       0.0001
     48  N         -2.6710   21.5180   20.1930 N.am   50  GLN50      -0.1966
     49  CA        -3.8390   21.1750   20.9860 C.3    50  GLN50       0.1733
     50  C         -4.9980   20.8490   20.0570 C.2    50  GLN50       0.2617
     51  O         -5.2120   21.5290   19.0540 O.2    50  GLN50      -0.2715
     52  CB        -4.2190   22.3500   21.8800 C.3    50  GLN50       0.0408
     53  CG        -5.4940   22.1440   22.7010 C.3    50  GLN50       0.0908
     54  CD        -5.2270   21.6560   24.1180 C.2    50  GLN50       0.2608
     55  OE1       -4.8960   22.4370   25.0260 O.2    50  GLN50      -0.2717
     56  NE2       -5.3770   20.3650   24.3170 N.am   50  GLN50      -0.0878
     57  N         -5.7350   19.7970   20.3720 N.am   51  THR51      -0.1951
     58  CA        -7.0420   19.5680   19.7470 C.3    51  THR51       0.1897
     59  C         -8.1250   19.3500   20.8060 C.2    51  THR51       0.2313
     60  O         -7.8410   19.3680   22.0090 O.2    51  THR51      -0.2863
     61  CB        -7.0480   18.3840   18.7870 C.3    51  THR51       0.1794
     62  OG1       -7.0750   17.1790   19.5470 O.3    51  THR51      -0.2208
     63  CG2       -5.8310   18.4240   17.8040 C.3    51  THR51       0.0378
     64  N        -11.4120   21.3750   25.2430 N.3    56  ASP56      -0.1239
     65  CA       -10.1570   20.9210   25.8400 C.3    56  ASP56       0.1674
     66  C         -9.0630   21.9720   25.6730 C.2    56  ASP56       0.2266
     67  O         -8.5960   22.2210   24.5580 O.2    56  ASP56      -0.2867
     68  CB        -9.6720   19.6320   25.1860 C.3    56  ASP56       0.1410
     69  CG       -10.4980   18.4240   25.5710 C.2    56  ASP56       0.3668
     70  OD1      -11.1640   18.4550   26.6300 O.co2  56  ASP56      -0.2456
     71  OD2      -10.4650   17.4300   24.8080 O.co2  56  ASP56      -0.2456
     72  N         -5.3970   22.5000   27.6290 N.3    58  ASP58      -0.1239
     73  CA        -4.3840   22.2270   28.6520 C.3    58  ASP58       0.1674
     74  C         -3.7740   23.5100   29.2200 C.2    58  ASP58       0.2266
     75  O         -3.4940   23.6000   30.4190 O.2    58  ASP58      -0.2867
     76  CB        -3.3250   21.2730   28.1140 C.3    58  ASP58       0.1410
     77  CG        -3.8480   19.8630   27.9790 C.2    58  ASP58       0.3668
     78  OD1       -4.9160   19.6040   28.5560 O.co2  58  ASP58      -0.2456
     79  OD2       -3.2140   19.0190   27.3130 O.co2  58  ASP58      -0.2456
     80  N        -11.6210   16.3980   18.4990 N.3   124  ALA124     -0.1231
     81  CA       -10.8000   15.7930   19.5480 C.3   124  ALA124      0.1694
     82  C        -10.1960   14.4970   19.0510 C.2   124  ALA124      0.2592
     83  O        -10.5410   13.4160   19.5300 O.2   124  ALA124     -0.2718
     84  CB       -11.6290   15.5310   20.7900 C.3   124  ALA124      0.0304
     85  N         -9.2910   14.6180   18.0860 N.am  125  ILE125     -0.1966
     86  CA        -8.6600   13.4710   17.4390 C.3   125  ILE125      0.1727
     87  C         -7.1970   13.7700   17.1520 C.2   125  ILE125      0.2617
     88  O         -6.6810   14.7810   17.6040 O.2   125  ILE125     -0.2715
     89  CB        -9.3590   13.1440   16.1180 C.3   125  ILE125      0.0290
     90  CG1       -9.3190   14.3720   15.1980 C.3   125  ILE125      0.0022
     91  CG2      -10.7730   12.6700   16.3890 C.3   125  ILE125      0.0023
     92  CD1      -10.3380   14.3890   14.0650 C.3   125  ILE125      0.0001
     93  N         -6.5270   12.9020   16.4010 N.am  126  SER126     -0.1936
     94  CA        -5.1120   13.0960   16.1410 C.3   126  SER126      0.2040
     95  C         -4.9190   14.3620   15.3280 C.2   126  SER126      0.2485
     96  O         -5.6930   14.6020   14.4070 O.2   126  SER126     -0.2729
     97  CB        -4.5290   11.8950   15.4110 C.3   126  SER126      0.2129
     98  OG        -3.3260   12.2350   14.7560 O.3   126  SER126     -0.2179
     99  N         -3.9010   15.1860   15.6810 N.am  127  PRO127     -0.2726
    100  CA        -3.5800   16.4450   15.0110 C.3   127  PRO127      0.1402
    101  C         -3.4690   16.3130   13.4960 C.2   127  PRO127      0.2269
    102  O         -3.7230   17.2890   12.8000 O.2   127  PRO127     -0.2865
    103  CB        -2.2250   16.8050   15.5980 C.3   127  PRO127      0.0296
    104  CG        -2.2640   16.2250   16.9300 C.3   127  PRO127      0.0237
    105  CD        -2.9960   14.9470   16.8180 C.3   127  PRO127      0.0939
    106  N          1.4600   16.3800   22.6100 N.3   164  ALA164     -0.1231
    107  CA         0.0540   16.0790   22.4640 C.3   164  ALA164      0.1694
    108  C         -0.1150   14.6020   22.1390 C.2   164  ALA164      0.2593
    109  O          0.1510   14.1840   21.0350 O.2   164  ALA164     -0.2718
    110  CB        -0.5570   16.9470   21.3460 C.3   164  ALA164      0.0304
    111  N         -0.5970   13.8280   23.1030 N.am  165  GLY165     -0.1942
    112  CA        -0.8270   12.4160   22.8990 C.3   165  GLY165      0.2014
    113  C          0.3810   11.6040   23.2710 C.2   165  GLY165      0.2639
    114  O          1.1300   11.9880   24.1610 O.2   165  GLY165     -0.2714
    115  N          0.5790   10.4830   22.5890 N.am  166  GLY166     -0.1954
    116  CA         1.7760    9.6820   22.7940 C.3   166  GLY166      0.1869
    117  C          3.0400   10.1780   22.1050 C.2   166  GLY166      0.2309
    118  O          3.0250   11.0240   21.2090 O.2   166  GLY166     -0.2863
    119  N          4.6850    8.9840   19.9400 N.3   168  ALA168     -0.1231
    120  CA         4.7300    8.6590   18.5210 C.3   168  ALA168      0.1694
    121  C          3.4020    8.9660   17.8420 C.2   168  ALA168      0.2593
    122  O          3.1030    8.4150   16.7850 O.2   168  ALA168     -0.2718
    123  CB         5.0870    7.1860   18.3440 C.3   168  ALA168      0.0304
    124  N          2.5990    9.8160   18.4790 N.am  169  SER169     -0.1939
    125  CA         1.4010   10.3820   17.8780 C.3   169  SER169      0.2040
    126  C          1.7600   11.3890   16.7780 C.2   169  SER169      0.2485
    127  O          2.6760   12.2020   16.9500 O.2   169  SER169     -0.2729
    128  CB         0.5790   11.1060   18.9380 C.3   169  SER169      0.2129
    129  OG         0.1470   10.2450   19.9850 O.3   169  SER169     -0.2179
    130  N          1.0490   11.3340   15.6390 N.am  170  PRO170     -0.2726
    131  CA         1.3280   12.2710   14.5410 C.3   170  PRO170      0.1402
    132  C          1.0420   13.7110   14.9220 C.2   170  PRO170      0.2269
    133  O          0.0690   13.9930   15.6150 O.2   170  PRO170     -0.2865
    134  CB         0.3560   11.8290   13.4270 C.3   170  PRO170      0.0296
    135  CG        -0.0020   10.4050   13.7740 C.3   170  PRO170      0.0237
    136  CD         0.0680   10.2980   15.2610 C.3   170  PRO170      0.0939
@<TRIPOS>BOND
     1   102   101    2
     2   134   135    1
     3   134   131    1
     4   101   100    1
     5   135   136    1
     6    92    90    1
     7    96    95    2
     8   131   132    1
     9   131   130    1
    10    98    97    1
    11   132   133    2
    12   100   103    1
    13   100    99    1
    14    90    89    1
    15   136   130    1
    16    95    99   am
    17    95    94    1
    18    97    94    1
    19   103   104    1
    20   130   126   am
    21    99   105    1
    22    89    91    1
    23    89    86    1
    24    94    93    1
    25    93    87   am
    26   126   127    2
    27   126   125    1
    28   122   121    2
    29   105   104    1
    30    47    45    1
    31    87    86    1
    32    87    88    2
    33    86    85    1
    34    63    61    1
    35    45    44    1
    36   121   124   am
    37   121   120    1
    38   125   124    1
    39   125   128    1
    40    85    82   am
    41    46    44    1
    42   123   120    1
    43    80    81    1
    44   120   119    1
    45    61    62    1
    46    61    58    1
    47    44    41    1
    48   128   129    1
    49    82    83    2
    50    82    81    1
    51    51    50    2
    52    41    40    1
    53    41    42    1
    54    81    84    1
    55    58    57    1
    56    58    59    1
    57    50    57   am
    58    50    49    1
    59    48    42   am
    60    48    49    1
    61    42    43    2
    62    59    60    2
    63    49    52    1
    64   109   108    2
    65   118   117    2
    66   110   107    1
    67    52    53    1
    68   117   116    1
    69   108   107    1
    70   108   111   am
    71    34    33    2
    72   107   106    1
    73   115   116    1
    74   115   113   am
    75    53    54    1
    76    33    32    1
    77   112   111    1
    78   112   113    1
    79   113   114    2
    80    54    56   am
    81    54    55    2
    82     7     6    2
    83    36    35    1
    84    36    37    1
    85    32    35    1
    86    32    31    1
    87    67    66    2
    88    38    37    1
    89    38    39    1
    90    14    13    1
    91    13    15    1
    92    13    10    1
    93    71    69   ar
    94    68    69    1
    95    68    65    1
    96    64    65    1
    97     6     8   am
    98     6     5    1
    99    69    70   ar
   100     9    10    1
   101     9     3   am
   102    66    65    1
   103    10    11    1
   104     2     3    1
   105     2     5    1
   106     2     1    1
   107     3     4    2
   108    30    29    1
   109    29    28    1
   110    11    12    2
   111    11    16   am
   112    79    77   ar
   113    72    73    1
   114    28    27    1
   115    16    17    1
   116    21    20    1
   117    77    76    1
   118    77    78   ar
   119    76    73    1
   120    73    74    1
   121    20    17    1
   122    27    26    1
   123    17    18    1
   124    74    75    2
   125    26    23    1
   126    18    19    2
   127    23    22    1
   128    23    24    1
   129    24    25    2
