@<TRIPOS>MOLECULE
tmp/4a0sB01.pdb
 209 204 0 0 0
SMALL
GASTEIGER

@<TRIPOS>ATOM
      1  N         28.8550  -29.3840    4.8890 N.3    35  ALA35      -0.1231
      2  CA        27.5550  -28.8060    5.2600 C.3    35  ALA35       0.1694
      3  C         26.3310  -29.5830    4.7610 C.2    35  ALA35       0.2592
      4  O         25.2230  -29.3910    5.2730 O.2    35  ALA35      -0.2718
      5  CB        27.4720  -27.3370    4.8480 C.3    35  ALA35       0.0304
      6  N         26.5490  -30.4650    3.7880 N.am   36  ASP36      -0.1974
      7  CA        25.4840  -31.2400    3.1620 C.3    36  ASP36       0.1709
      8  C         25.4890  -32.6860    3.6290 C.2    36  ASP36       0.2293
      9  O         24.6350  -33.4730    3.2060 O.2    36  ASP36      -0.2864
     10  CB        25.6380  -31.2240    1.6370 C.3    36  ASP36       0.1436
     11  CG        25.5790  -29.8260    1.0590 C.2    36  ASP36       0.3671
     12  OD1       24.5300  -29.1620    1.2130 O.co2  36  ASP36      -0.2456
     13  OD2       26.5880  -29.3850    0.4570 O.co2  36  ASP36      -0.2456
     14  N         23.5000  -25.5180   22.9170 N.3    76  TYR76      -0.1227
     15  CA        22.7180  -26.1230   21.8890 C.3    76  TYR76       0.1736
     16  C         23.0840  -25.6110   20.5010 C.2    76  TYR76       0.2595
     17  O         23.0580  -26.3720   19.5530 O.2    76  TYR76      -0.2718
     18  CB        21.2160  -26.0750   22.1760 C.3    76  TYR76       0.0548
     19  CG        20.5990  -27.3930   21.7910 C.ar   76  TYR76      -0.0200
     20  CD1       20.3510  -27.6870   20.4520 C.ar   76  TYR76      -0.0009
     21  CD2       20.3670  -28.3900   22.7310 C.ar   76  TYR76      -0.0009
     22  CE1       19.8370  -28.8910   20.0590 C.ar   76  TYR76       0.0417
     23  CE2       19.8340  -29.6230   22.3400 C.ar   76  TYR76       0.0417
     24  CZ        19.5760  -29.8570   20.9940 C.ar   76  TYR76       0.1957
     25  OH        19.0360  -31.0420   20.5500 O.3    76  TYR76      -0.2866
     26  N         23.4680  -24.3380   20.3780 N.am   77  ASN77      -0.1974
     27  CA        23.8410  -23.8160   19.0640 C.3    77  ASN77       0.1688
     28  C         25.0790  -24.5280   18.5010 C.2    77  ASN77       0.2292
     29  O         25.2360  -24.6540   17.2890 O.2    77  ASN77      -0.2864
     30  CB        23.9920  -22.2790   19.0490 C.3    77  ASN77       0.1181
     31  CG        25.1840  -21.7620   19.8640 C.2    77  ASN77       0.2629
     32  OD1       25.8720  -22.4980   20.5600 O.2    77  ASN77      -0.2716
     33  ND2       25.4230  -20.4630   19.7660 N.am   77  ASN77      -0.0877
     34  N         23.4640  -27.4210   17.0340 N.3    80  TRP80      -0.1241
     35  CA        22.8070  -27.0080   15.7930 C.3    80  TRP80       0.1605
     36  C         23.8230  -26.7960   14.6570 C.2    80  TRP80       0.2264
     37  O         23.5920  -27.2310   13.5200 O.2    80  TRP80      -0.2867
     38  CB        21.9780  -25.7220   15.9620 C.3    80  TRP80       0.0550
     39  CG        20.8190  -25.7490   16.9290 C.ar   80  TRP80       0.0003
     40  CD1       20.6020  -24.8640   17.9600 C.ar   80  TRP80       0.0946
     41  CD2       19.7000  -26.6560   16.9400 C.ar   80  TRP80       0.0152
     42  NE1       19.4250  -25.1720   18.6110 N.ar   80  TRP80      -0.2442
     43  CE2       18.8530  -26.2630   18.0120 C.ar   80  TRP80       0.0810
     44  CE3       19.3250  -27.7550   16.1510 C.ar   80  TRP80       0.0012
     45  CZ2       17.6710  -26.9450   18.3270 C.ar   80  TRP80       0.0191
     46  CZ3       18.1490  -28.4390   16.4700 C.ar   80  TRP80       0.0001
     47  CH2       17.3350  -28.0270   17.5500 C.ar   80  TRP80       0.0015
     48  N         19.3640  -24.8160   11.7350 N.3    86  PRO86      -0.2102
     49  CA        18.4600  -25.1310   10.6300 C.3    86  PRO86       0.1504
     50  C         19.1030  -24.7500    9.3020 C.2    86  PRO86       0.2576
     51  O         18.6720  -25.2050    8.2500 O.2    86  PRO86      -0.2718
     52  CB        17.2360  -24.2640   10.9210 C.3    86  PRO86       0.0282
     53  CG        17.7710  -23.1150   11.6890 C.3    86  PRO86       0.0208
     54  CD        18.9120  -23.6440   12.5050 C.3    86  PRO86       0.0893
     55  N         20.1450  -23.9310    9.3810 N.am   87  ILE87      -0.1967
     56  CA        20.9280  -23.4910    8.2380 C.3    87  ILE87       0.1712
     57  C         22.4020  -23.6490    8.6140 C.2    87  ILE87       0.2458
     58  O         22.7740  -23.3390    9.7590 O.2    87  ILE87      -0.2730
     59  CB        20.6270  -22.0020    7.9230 C.3    87  ILE87       0.0289
     60  CG1       19.1370  -21.8090    7.5950 C.3    87  ILE87       0.0022
     61  CG2       21.5350  -21.4710    6.7890 C.3    87  ILE87       0.0023
     62  CD1       18.5610  -20.5040    8.1170 C.3    87  ILE87       0.0001
     63  N         23.2460  -24.1490    7.6810 N.am   88  PRO88      -0.2727
     64  CA        24.6680  -24.2470    8.0210 C.3    88  PRO88       0.1402
     65  C         25.2510  -22.9030    8.3860 C.2    88  PRO88       0.2269
     66  O         24.9740  -21.9010    7.7240 O.2    88  PRO88      -0.2865
     67  CB        25.3290  -24.7530    6.7460 C.3    88  PRO88       0.0296
     68  CG        24.2680  -24.8270    5.7270 C.3    88  PRO88       0.0237
     69  CD        22.9460  -24.8140    6.4040 C.3    88  PRO88       0.0939
     70  N         26.7620  -20.2670    6.0400 N.3    91  HIS91      -0.1226
     71  CA        25.9020  -19.2630    5.4300 C.3    91  HIS91       0.1752
     72  C         25.9550  -17.9860    6.2560 C.2    91  HIS91       0.2596
     73  O         26.0390  -16.8900    5.6970 O.2    91  HIS91      -0.2718
     74  CB        24.4670  -19.7720    5.2850 C.3    91  HIS91       0.0759
     75  CG        23.4990  -18.7180    4.8500 C.ar   91  HIS91       0.0818
     76  ND1       23.4920  -18.1950    3.5740 N.ar   91  HIS91      -0.2268
     77  CD2       22.5150  -18.0800    5.5250 C.ar   91  HIS91       0.1154
     78  CE1       22.5440  -17.2810    3.4830 C.ar   91  HIS91       0.1986
     79  NE2       21.9390  -17.1910    4.6550 N.ar   91  HIS91      -0.2212
     80  N         25.9420  -18.1340    7.5830 N.am   92  PHE92      -0.1976
     81  CA        26.0830  -16.9890    8.4880 C.3    92  PHE92       0.1639
     82  C         27.4600  -16.3550    8.3960 C.2    92  PHE92       0.2290
     83  O         27.5750  -15.1330    8.3780 O.2    92  PHE92      -0.2864
     84  CB        25.7710  -17.3710    9.9450 C.3    92  PHE92       0.0560
     85  CG        24.4950  -18.1240   10.1000 C.ar   92  PHE92      -0.0200
     86  CD1       23.3800  -17.7730    9.3550 C.ar   92  PHE92      -0.0042
     87  CD2       24.4130  -19.2060   10.9600 C.ar   92  PHE92      -0.0042
     88  CE1       22.1940  -18.4780    9.4770 C.ar   92  PHE92      -0.0003
     89  CE2       23.2220  -19.9240   11.0890 C.ar   92  PHE92      -0.0003
     90  CZ        22.1210  -19.5580   10.3410 C.ar   92  PHE92      -0.0000
     91  N         27.4550  -14.2650    5.3230 N.3    95  GLN95      -0.1245
     92  CA        26.6710  -13.0500    5.5510 C.3    95  GLN95       0.1566
     93  C         27.4670  -12.0540    6.3890 C.2    95  GLN95       0.2260
     94  O         27.5020  -10.8690    6.0890 O.2    95  GLN95      -0.2867
     95  CB        25.3290  -13.3660    6.2320 C.3    95  GLN95       0.0367
     96  CG        24.2500  -13.8250    5.2570 C.3    95  GLN95       0.0905
     97  CD        22.9080  -14.1260    5.9240 C.2    95  GLN95       0.2608
     98  OE1       22.8510  -14.7030    7.0220 O.2    95  GLN95      -0.2717
     99  NE2       21.8160  -13.7390    5.2530 N.am   95  GLN95      -0.0878
    100  N         28.2860  -14.4770   24.3480 N.3   141  PRO141     -0.2102
    101  CA        28.1750  -14.6370   22.8940 C.3   141  PRO141      0.1504
    102  C         27.7700  -13.4110   22.0760 C.2   141  PRO141      0.2575
    103  O         27.8190  -13.4770   20.8410 O.2   141  PRO141     -0.2718
    104  CB        27.0980  -15.7220   22.7490 C.3   141  PRO141      0.0282
    105  CG        26.2680  -15.5910   23.9850 C.3   141  PRO141      0.0208
    106  CD        27.2520  -15.2350   25.0680 C.3   141  PRO141      0.0893
    107  N         27.3690  -12.3240   22.7270 N.am  142  ALA142     -0.1980
    108  CA        26.8280  -11.1830   21.9890 C.3   142  ALA142      0.1597
    109  C         27.9230  -10.4350   21.2320 C.2   142  ALA142      0.2287
    110  O         28.6130   -9.6060   21.7820 O.2   142  ALA142     -0.2864
    111  CB        26.0680  -10.2580   22.9060 C.3   142  ALA142      0.0319
    112  N         21.4980   -6.2400   22.0060 N.3   156  MET156     -0.1245
    113  CA        21.0270   -7.3760   21.2520 C.3   156  MET156      0.1570
    114  C         20.3000   -6.9740   19.9690 C.2   156  MET156      0.2261
    115  O         20.0560   -7.8200   19.1250 O.2   156  MET156     -0.2867
    116  CB        20.1180   -8.2330   22.1190 C.3   156  MET156      0.0387
    117  CG        20.8760   -9.1680   23.0490 C.3   156  MET156      0.0595
    118  SD        22.0800  -10.1740   22.1500 S.3   156  MET156     -0.1393
    119  CE        20.9700  -11.0700   21.0770 C.3   156  MET156      0.0692
    120  N         23.9910   -7.8950   15.0950 N.3   161  GLN161     -0.1245
    121  CA        24.1360   -8.7110   16.2760 C.3   161  GLN161      0.1566
    122  C         24.3020  -10.1390   15.8150 C.2   161  GLN161      0.2260
    123  O         23.5160  -10.6330   15.0250 O.2   161  GLN161     -0.2867
    124  CB        22.9250   -8.5850   17.2180 C.3   161  GLN161      0.0367
    125  CG        22.9380   -9.5540   18.4080 C.3   161  GLN161      0.0905
    126  CD        22.4040  -10.9300   18.0140 C.2   161  GLN161      0.2608
    127  OE1       21.3160  -11.0280   17.4540 O.2   161  GLN161     -0.2717
    128  NE2       23.1660  -11.9810   18.2910 N.am  161  GLN161     -0.0878
    129  N         25.8580  -14.2280   17.2090 N.3   163  ALA163     -0.1245
    130  CA        26.2320  -15.0990   18.2950 C.3   163  ALA163      0.1562
    131  C         27.6470  -15.5910   18.0100 C.2   163  ALA163      0.2260
    132  O         27.9260  -16.1840   16.9740 O.2   163  ALA163     -0.2867
    133  CB        25.2630  -16.2530   18.4210 C.3   163  ALA163      0.0290
    134  N         28.8580  -18.9570   16.3140 N.3   166  PHE166     -0.1227
    135  CA        27.7220  -19.4910   15.5810 C.3   166  PHE166      0.1736
    136  C         27.4970  -18.6930   14.3090 C.2   166  PHE166      0.2595
    137  O         27.5300  -19.2560   13.2210 O.2   166  PHE166     -0.2718
    138  CB        26.4630  -19.5280   16.4680 C.3   166  PHE166      0.0547
    139  CG        25.2700  -20.1400   15.7970 C.ar  166  PHE166     -0.0202
    140  CD1       25.2040  -21.5140   15.5950 C.ar  166  PHE166     -0.0042
    141  CD2       24.2040  -19.3420   15.3860 C.ar  166  PHE166     -0.0042
    142  CE1       24.0960  -22.0990   14.9680 C.ar  166  PHE166     -0.0003
    143  CE2       23.0830  -19.9150   14.7530 C.ar  166  PHE166     -0.0003
    144  CZ        23.0340  -21.2980   14.5450 C.ar  166  PHE166     -0.0000
    145  N         27.2850  -17.3800   14.4370 N.am  167  GLU167     -0.1979
    146  CA        27.2770  -16.5220   13.2490 C.3   167  GLU167      0.1602
    147  C         28.6380  -15.8630   13.0840 C.2   167  GLU167      0.2287
    148  O         28.8360  -15.0820   12.1630 O.2   167  GLU167     -0.2864
    149  CB        26.1670  -15.4630   13.2910 C.3   167  GLU167      0.0415
    150  CG        24.7630  -16.0110   13.1050 C.3   167  GLU167      0.1163
    151  CD        23.9320  -15.9320   14.3590 C.2   167  GLU167      0.3649
    152  OE1       24.4030  -15.3790   15.3660 O.co2 167  GLU167     -0.2457
    153  OE2       22.7850  -16.4130   14.3430 O.co2 167  GLU167     -0.2457
    154  N         26.4180  -17.8710   28.0930 N.3   201  LEU201     -0.1245
    155  CA        25.3820  -17.9440   27.0850 C.3   201  LEU201      0.1561
    156  C         24.0260  -18.2480   27.7300 C.2   201  LEU201      0.2260
    157  O         23.0830  -17.4800   27.5800 O.2   201  LEU201     -0.2867
    158  CB        25.7360  -18.9280   25.9720 C.3   201  LEU201      0.0270
    159  CG        24.7940  -18.9840   24.7550 C.3   201  LEU201      0.0019
    160  CD1       25.5150  -19.5140   23.5310 C.3   201  LEU201      0.0001
    161  CD2       23.6100  -19.8330   25.0390 C.3   201  LEU201      0.0001
    162  N         21.1990  -15.5640   28.6170 N.3   205  THR205     -0.1218
    163  CA        19.9500  -15.7050   27.8860 C.3   205  THR205      0.1862
    164  C         18.7720  -15.8010   28.8510 C.2   205  THR205      0.2287
    165  O         17.7790  -15.1130   28.6610 O.2   205  THR205     -0.2866
    166  CB        19.9540  -16.9000   26.9550 C.3   205  THR205      0.1770
    167  OG1       20.9610  -16.6820   25.9590 O.3   205  THR205     -0.2211
    168  CG2       18.5980  -17.0600   26.2760 C.3   205  THR205      0.0375
    169  N         13.1160  -18.2050   23.6120 N.3   335  CYS335     -0.1221
    170  CA        14.4240  -17.9410   22.9800 C.3   335  CYS335      0.1808
    171  C         14.8380  -19.0970   22.1010 C.2   335  CYS335      0.2601
    172  O         16.0000  -19.2360   21.7180 O.2   335  CYS335     -0.2717
    173  CB        15.5030  -17.7120   24.0360 C.3   335  CYS335      0.0970
    174  SG        15.8570  -19.1780   25.0460 S.3   335  CYS335     -0.0800
    175  N         13.8780  -19.9380   21.7820 N.am  336  GLY336     -0.1957
    176  CA        14.1880  -21.1060   20.9950 C.3   336  GLY336      0.1869
    177  C         12.9930  -21.9690   20.7110 C.2   336  GLY336      0.2309
    178  O         11.8620  -21.7070   21.1750 O.2   336  GLY336     -0.2863
    179  N         10.4720  -24.9620   15.2500 N.3   341  TYR341     -0.1241
    180  CA        10.1860  -23.5350   15.2560 C.3   341  TYR341      0.1605
    181  C          8.8040  -23.1690   14.7150 C.2   341  TYR341      0.2264
    182  O          8.3370  -22.0510   14.9450 O.2   341  TYR341     -0.2867
    183  CB        11.2950  -22.7590   14.5320 C.3   341  TYR341      0.0534
    184  CG        11.6110  -23.2270   13.1210 C.ar  341  TYR341     -0.0201
    185  CD1       10.7260  -22.9780   12.0670 C.ar  341  TYR341     -0.0009
    186  CD2       12.8110  -23.9000   12.8400 C.ar  341  TYR341     -0.0009
    187  CE1       11.0160  -23.3960   10.7770 C.ar  341  TYR341      0.0417
    188  CE2       13.1150  -24.3090   11.5620 C.ar  341  TYR341      0.0417
    189  CZ        12.2090  -24.0700   10.5360 C.ar  341  TYR341      0.1957
    190  OH        12.5040  -24.4840    9.2580 O.3   341  TYR341     -0.2866
    191  N         16.5820  -13.2810   22.8070 N.3   361  HIS361     -0.1226
    192  CA        17.7240  -13.8850   22.2040 C.3   361  HIS361      0.1752
    193  C         18.9320  -13.3970   22.9480 C.2   361  HIS361      0.2597
    194  O         19.0730  -12.2090   23.1740 O.2   361  HIS361     -0.2718
    195  CB        17.7840  -13.4270   20.7560 C.3   361  HIS361      0.0759
    196  CG        18.8200  -14.1140   19.9380 C.ar  361  HIS361      0.0818
    197  ND1       19.0270  -15.4750   19.9910 N.ar  361  HIS361     -0.2268
    198  CD2       19.6720  -13.6350   19.0000 C.ar  361  HIS361      0.1154
    199  CE1       19.9850  -15.8010   19.1390 C.ar  361  HIS361      0.1986
    200  NE2       20.3900  -14.7030   18.5220 N.ar  361  HIS361     -0.2212
    201  N         19.7970  -14.3300   23.3210 N.am  362  GLY362     -0.1942
    202  CA        21.0260  -14.0240   24.0450 C.3   362  GLY362      0.2014
    203  C         20.8190  -12.9910   25.1240 C.2   362  GLY362      0.2638
    204  O         19.8240  -13.0190   25.8580 O.2   362  GLY362     -0.2714
    205  N         21.7670  -12.0670   25.2250 N.am  363  ALA363     -0.1977
    206  CA        21.7220  -11.0140   26.2330 C.3   363  ALA363      0.1597
    207  C         22.7170   -9.9610   25.7940 C.2   363  ALA363      0.2287
    208  O         23.7780  -10.2900   25.2350 O.2   363  ALA363     -0.2864
    209  CB        22.1210  -11.5510   27.5880 C.3   363  ALA363      0.0319
@<TRIPOS>BOND
     1    13    11   ar
     2    11    12   ar
     3    11    10    1
     4    10     7    1
     5     7     8    1
     6     7     6    1
     7     9     8    2
     8    78    76   ar
     9    78    79   ar
    10    76    75   ar
    11     6     3   am
    12    79    77   ar
    13     3     2    1
    14     3     4    2
    15     5     2    1
    16    75    74    1
    17    75    77   ar
    18     1     2    1
    19    99    97   am
    20    96    97    1
    21    96    95    1
    22    74    71    1
    23    91    92    1
    24    71    70    1
    25    71    72    1
    26    92    95    1
    27    92    93    1
    28    73    72    2
    29    68    69    1
    30    68    67    1
    31    97    98    2
    32    94    93    2
    33    72    80   am
    34    69    63    1
    35    67    64    1
    36    61    59    1
    37    80    81    1
    38    60    59    1
    39    60    62    1
    40    63    64    1
    41    63    57   am
    42    66    65    2
    43    59    56    1
    44    64    65    1
    45    56    57    1
    46    56    55    1
    47    51    50    2
    48    83    82    2
    49    82    81    1
    50    81    84    1
    51    57    58    2
    52   190   189    1
    53    50    55   am
    54    50    49    1
    55    86    88   ar
    56    86    85   ar
    57    88    90   ar
    58    84    85    1
    59    85    87   ar
    60    90    89   ar
    61   189   187   ar
    62   189   188   ar
    63    49    52    1
    64    49    48    1
    65   187   185   ar
    66    52    53    1
    67    87    89   ar
    68   188   186   ar
    69    53    54    1
    70    48    54    1
    71   185   184   ar
    72   148   147    2
    73   186   184   ar
    74   147   146    1
    75   150   149    1
    76   150   151    1
    77   184   183    1
    78   137   136    2
    79   146   149    1
    80   146   145    1
    81    37    36    2
    82   136   145   am
    83   136   135    1
    84   153   151   ar
    85   151   152   ar
    86   183   180    1
    87   144   143   ar
    88   144   142   ar
    89    36    35    1
    90   181   182    2
    91   181   180    1
    92   143   141   ar
    93   142   140   ar
    94   123   122    2
    95   120   121    1
    96   179   180    1
    97   141   139   ar
    98   135   134    1
    99   135   138    1
   100   140   139   ar
   101    35    38    1
   102    35    34    1
   103   139   138    1
   104   122   121    1
   105    38    39    1
   106    44    46   ar
   107    44    41   ar
   108   121   124    1
   109    46    47   ar
   110    39    41   ar
   111    39    40   ar
   112    41    43   ar
   113   132   131    2
   114   129   130    1
   115   124   125    1
   116    29    28    2
   117   127   126    2
   118    47    45   ar
   119    40    42   ar
   120   131   130    1
   121    43    45   ar
   122    43    42   ar
   123   126   128   am
   124   126   125    1
   125   130   133    1
   126    28    27    1
   127   200   198   ar
   128   200   199   ar
   129   198   196   ar
   130    30    27    1
   131    30    31    1
   132    27    26    1
   133   115   114    2
   134   199   197   ar
   135    17    16    2
   136    33    31   am
   137    31    32    2
   138   196   197   ar
   139   196   195    1
   140   114   113    1
   141    22    20   ar
   142    22    24   ar
   143    26    16   am
   144    20    19   ar
   145    16    15    1
   146    25    24    1
   147   177   176    1
   148   177   178    2
   149   195   192    1
   150   103   102    2
   151    24    23   ar
   152   176   175    1
   153   119   118    1
   154   109   110    2
   155   109   108    1
   156   113   112    1
   157   113   116    1
   158   172   171    2
   159   175   171   am
   160    19    18    1
   161    19    21   ar
   162    15    18    1
   163    15    14    1
   164   108   107    1
   165   108   111    1
   166   102   107   am
   167   102   101    1
   168   171   170    1
   169   116   117    1
   170   118   117    1
   171   192   191    1
   172   192   193    1
   173    23    21   ar
   174   104   101    1
   175   104   105    1
   176   101   100    1
   177   193   194    2
   178   193   201   am
   179   170   169    1
   180   170   173    1
   181   201   202    1
   182   160   159    1
   183   105   106    1
   184   173   174    1
   185   202   203    1
   186   100   106    1
   187   159   161    1
   188   159   158    1
   189   203   205   am
   190   203   204    2
   191   205   206    1
   192   208   207    2
   193   207   206    1
   194   167   166    1
   195   158   155    1
   196   206   209    1
   197   168   166    1
   198   166   163    1
   199   155   156    1
   200   155   154    1
   201   157   156    2
   202   163   162    1
   203   163   164    1
   204   165   164    2
