@<TRIPOS>MOLECULE
tmp/4a0xA00.pdb
 95 91 0 0 0
SMALL
GASTEIGER

@<TRIPOS>ATOM
      1  N        -46.6080  -19.3610   36.4540 N.3    55  LYS55      -0.1245
      2  CA       -47.2650  -18.8620   35.2550 C.3    55  LYS55       0.1561
      3  C        -47.3580  -17.3220   35.2550 C.2    55  LYS55       0.2260
      4  O        -47.2110  -16.6990   34.2030 O.2    55  LYS55      -0.2867
      5  CB       -48.6410  -19.5070   35.0540 C.3    55  LYS55       0.0271
      6  CG       -48.6660  -21.0460   35.0670 C.3    55  LYS55       0.0035
      7  CD       -48.3260  -21.6790   33.7280 C.3    55  LYS55       0.0206
      8  CE       -48.9420  -23.0780   33.6300 C.3    55  LYS55       0.1093
      9  NZ       -48.0090  -24.0310   32.9480 N.3    55  LYS55      -0.1314
     10  N        -45.2420  -15.2330   32.1930 N.3    59  GLU59      -0.1245
     11  CA       -46.0540  -14.4650   31.2610 C.3    59  GLU59       0.1567
     12  C        -45.3350  -13.1670   30.8370 C.2    59  GLU59       0.2260
     13  O        -45.3440  -12.8190   29.6580 O.2    59  GLU59      -0.2867
     14  CB       -47.4490  -14.2090   31.8490 C.3    59  GLU59       0.0388
     15  CG       -48.5210  -13.8260   30.8230 C.3    59  GLU59       0.1160
     16  CD       -48.6710  -14.8280   29.6700 C.2    59  GLU59       0.3649
     17  OE1      -48.5270  -16.0550   29.8790 O.co2  59  GLU59      -0.2457
     18  OE2      -48.9450  -14.3790   28.5350 O.co2  59  GLU59      -0.2457
     19  N        -42.2020  -13.5000   28.0100 N.3    62  TYR62      -0.1241
     20  CA       -42.3420  -13.7570   26.5550 C.3    62  TYR62       0.1605
     21  C        -42.2910  -12.4490   25.7680 C.2    62  TYR62       0.2264
     22  O        -42.0460  -12.4450   24.5670 O.2    62  TYR62      -0.2867
     23  CB       -43.5930  -14.6100   26.1960 C.3    62  TYR62       0.0534
     24  CG       -43.5780  -15.9810   26.8600 C.ar   62  TYR62      -0.0201
     25  CD1      -42.6250  -16.9440   26.5030 C.ar   62  TYR62      -0.0009
     26  CD2      -44.4750  -16.2930   27.8800 C.ar   62  TYR62      -0.0009
     27  CE1      -42.5770  -18.1850   27.1430 C.ar   62  TYR62       0.0417
     28  CE2      -44.4370  -17.5320   28.5260 C.ar   62  TYR62       0.0417
     29  CZ       -43.4890  -18.4710   28.1560 C.ar   62  TYR62       0.1957
     30  OH       -43.4530  -19.6990   28.7940 O.3    62  TYR62      -0.2866
     31  N        -44.5120  -17.4670   21.7800 N.3    70  GLU70      -0.1231
     32  CA       -44.8520  -17.9270   23.1270 C.3    70  GLU70       0.1699
     33  C        -45.4590  -19.3340   23.1370 C.2    70  GLU70       0.2592
     34  O        -44.9990  -20.2170   23.8490 O.2    70  GLU70      -0.2718
     35  CB       -45.7780  -16.9290   23.8360 C.3    70  GLU70       0.0402
     36  CG       -46.3770  -17.5010   25.1150 C.3    70  GLU70       0.1161
     37  CD       -47.3680  -16.5930   25.8210 C.2    70  GLU70       0.3649
     38  OE1      -47.5370  -15.4150   25.4450 O.co2  70  GLU70      -0.2457
     39  OE2      -47.9960  -17.0770   26.7780 O.co2  70  GLU70      -0.2457
     40  N        -46.4690  -19.5630   22.3200 N.am   71  GLN71      -0.1979
     41  CA       -47.1520  -20.8420   22.3860 C.3    71  GLN71       0.1601
     42  C        -46.3360  -22.0300   21.8190 C.2    71  GLN71       0.2287
     43  O        -46.6600  -23.1870   22.0910 O.2    71  GLN71      -0.2864
     44  CB       -48.5590  -20.7400   21.8130 C.3    71  GLN71       0.0394
     45  CG       -48.7670  -21.4530   20.5140 C.3    71  GLN71       0.0908
     46  CD       -48.1590  -20.7180   19.3640 C.2    71  GLN71       0.2608
     47  OE1      -48.1370  -19.4950   19.3500 O.2    71  GLN71      -0.2717
     48  NE2      -47.6550  -21.4600   18.3870 N.am   71  GLN71      -0.0878
     49  N        -43.1340  -22.2790   22.7070 N.3    73  PHE73      -0.1227
     50  CA       -42.0860  -22.4790   23.6970 C.3    73  PHE73       0.1736
     51  C        -42.3650  -23.7250   24.5120 C.2    73  PHE73       0.2595
     52  O        -43.5050  -23.9530   24.9450 O.2    73  PHE73      -0.2718
     53  CB       -41.9700  -21.2700   24.6230 C.3    73  PHE73       0.0547
     54  CG       -40.7780  -21.3210   25.5320 C.ar   73  PHE73      -0.0202
     55  CD1      -39.5110  -21.0450   25.0440 C.ar   73  PHE73      -0.0042
     56  CD2      -40.9230  -21.6580   26.8720 C.ar   73  PHE73      -0.0042
     57  CE1      -38.3950  -21.1020   25.8700 C.ar   73  PHE73      -0.0003
     58  CE2      -39.8150  -21.7060   27.7230 C.ar   73  PHE73      -0.0003
     59  CZ       -38.5430  -21.4320   27.2170 C.ar   73  PHE73      -0.0000
     60  N        -41.3170  -24.5160   24.7240 N.am   74  ILE74      -0.1966
     61  CA       -41.3940  -25.7270   25.5380 C.3    74  ILE74       0.1727
     62  C        -41.0620  -25.4420   26.9930 C.2    74  ILE74       0.2617
     63  O        -39.9270  -25.0630   27.3130 O.2    74  ILE74      -0.2715
     64  CB       -40.4320  -26.8020   25.0320 C.3    74  ILE74       0.0290
     65  CG1      -40.6090  -27.0380   23.5160 C.3    74  ILE74       0.0022
     66  CG2      -40.5940  -28.0680   25.8400 C.3    74  ILE74       0.0023
     67  CD1      -41.9910  -27.5360   23.0670 C.3    74  ILE74       0.0001
     68  N        -42.0350  -25.6810   27.8720 N.am   75  GLY75      -0.1940
     69  CA       -41.9030  -25.3470   29.2810 C.3    75  GLY75       0.2014
     70  C        -42.3460  -23.9230   29.5600 C.2    75  GLY75       0.2638
     71  O        -42.9090  -23.2490   28.6840 O.2    75  GLY75      -0.2714
     72  N        -42.0940  -23.4580   30.7820 N.am   76  ASP76      -0.1971
     73  CA       -42.4420  -22.0920   31.2130 C.3    76  ASP76       0.1709
     74  C        -41.1600  -21.2760   31.3270 C.2    76  ASP76       0.2293
     75  O        -40.2160  -21.7050   31.9950 O.2    76  ASP76      -0.2864
     76  CB       -43.1450  -22.1180   32.5780 C.3    76  ASP76       0.1436
     77  CG       -44.5480  -22.7430   32.5260 C.2    76  ASP76       0.3671
     78  OD1      -45.3480  -22.3540   31.6520 O.co2  76  ASP76      -0.2456
     79  OD2      -44.8750  -23.5950   33.3980 O.co2  76  ASP76      -0.2456
     80  N        -38.9280  -24.1580   33.2380 N.3    89  ILE89      -0.1231
     81  CA       -39.3910  -25.3010   33.9990 C.3    89  ILE89       0.1692
     82  C        -40.3940  -26.0990   33.1360 C.2    89  ILE89       0.2591
     83  O        -41.2300  -25.5150   32.4370 O.2    89  ILE89      -0.2718
     84  CB       -40.0280  -24.8410   35.2960 C.3    89  ILE89       0.0266
     85  CG1      -38.9310  -24.3640   36.2580 C.3    89  ILE89       0.0019
     86  CG2      -40.8340  -25.9560   35.9270 C.3    89  ILE89       0.0020
     87  CD1      -39.4520  -23.9040   37.5990 C.3    89  ILE89       0.0001
     88  N        -40.2730  -27.4260   33.1670 N.am   90  LEU90      -0.1980
     89  CA       -41.1030  -28.3130   32.3620 C.3    90  LEU90       0.1596
     90  C        -41.4790  -29.5210   33.2110 C.2    90  LEU90       0.2287
     91  O        -40.5760  -30.1950   33.7340 O.2    90  LEU90      -0.2864
     92  CB       -40.3540  -28.7930   31.1080 C.3    90  LEU90       0.0297
     93  CG       -41.1320  -29.8220   30.2650 C.3    90  LEU90       0.0022
     94  CD1      -42.4290  -29.2290   29.6340 C.3    90  LEU90       0.0001
     95  CD2      -40.2590  -30.5200   29.1850 C.3    90  LEU90       0.0001
@<TRIPOS>BOND
     1    48    46   am
     2    47    46    2
     3    46    45    1
     4    45    44    1
     5    31    32    1
     6    44    41    1
     7    42    43    2
     8    42    41    1
     9    40    41    1
    10    40    33   am
    11    49    50    1
    12    67    65    1
    13    32    33    1
    14    32    35    1
    15    33    34    2
    16    65    64    1
    17    50    51    1
    18    50    53    1
    19    35    36    1
    20    51    60   am
    21    51    52    2
    22    22    21    2
    23    53    54    1
    24    60    61    1
    25    64    61    1
    26    64    66    1
    27    55    54   ar
    28    55    57   ar
    29    36    37    1
    30    38    37   ar
    31    54    56   ar
    32    61    62    1
    33    21    20    1
    34    37    39   ar
    35    57    59   ar
    36    23    20    1
    37    23    24    1
    38    25    24   ar
    39    25    27   ar
    40    20    19    1
    41    24    26   ar
    42    56    58   ar
    43    62    63    2
    44    62    68   am
    45    27    29   ar
    46    59    58   ar
    47    68    69    1
    48    26    28   ar
    49    29    28   ar
    50    29    30    1
    51    18    16   ar
    52    71    70    2
    53    95    93    1
    54    69    70    1
    55    70    72   am
    56    94    93    1
    57    13    12    2
    58    16    17   ar
    59    16    15    1
    60    93    92    1
    61    72    73    1
    62    15    14    1
    63    12    11    1
    64    92    89    1
    65    73    74    1
    66    73    76    1
    67    11    14    1
    68    11    10    1
    69    74    75    2
    70    78    77   ar
    71    89    88    1
    72    89    90    1
    73    83    82    2
    74    77    76    1
    75    77    79   ar
    76     9     8    1
    77    82    88   am
    78    82    81    1
    79    90    91    2
    80    80    81    1
    81     8     7    1
    82     7     6    1
    83    81    84    1
    84     4     3    2
    85     5     6    1
    86     5     2    1
    87     3     2    1
    88     2     1    1
    89    84    86    1
    90    84    85    1
    91    85    87    1
