@<TRIPOS>MOLECULE
tmp/4a0zB00.pdb
 107 101 0 0 0
SMALL
GASTEIGER

@<TRIPOS>ATOM
      1  N         10.8460    0.0950    1.2480 N.3    22  ILE22      -0.1245
      2  CA        11.4170    0.0640    2.5970 C.3    22  ILE22       0.1561
      3  C         12.7510   -0.6840    2.5410 C.2    22  ILE22       0.2260
      4  O         12.9630   -1.4910    1.6450 O.2    22  ILE22      -0.2867
      5  CB        10.4380   -0.5950    3.6390 C.3    22  ILE22       0.0252
      6  CG1       10.9260   -0.3900    5.0810 C.3    22  ILE22       0.0019
      7  CG2       10.2220   -2.0730    3.3500 C.3    22  ILE22       0.0019
      8  CD1        9.8690   -0.7000    6.1580 C.3    22  ILE22       0.0001
      9  N          2.7780   -3.7920   10.0140 N.3    68  ASN68      -0.1225
     10  CA         2.8320   -2.5390    9.2540 C.3    68  ASN68       0.1785
     11  C          4.0020   -2.5330    8.2380 C.2    68  ASN68       0.2597
     12  O          3.8060   -2.2670    7.0380 O.2    68  ASN68      -0.2718
     13  CB         2.9320   -1.3570   10.2360 C.3    68  ASN68       0.1169
     14  CG         2.4980   -0.0540    9.6210 C.2    68  ASN68       0.2627
     15  OD1        1.6010   -0.0300    8.7600 O.2    68  ASN68      -0.2716
     16  ND2        3.1260    1.0510   10.0480 N.am   68  ASN68      -0.0877
     17  N          5.2140   -2.8640    8.7050 N.am   69  SER69      -0.1952
     18  CA         6.3970   -2.9910    7.8170 C.3    69  SER69       0.1924
     19  C          6.1680   -3.9690    6.6910 C.2    69  SER69       0.2314
     20  O          6.6400   -3.7560    5.5660 O.2    69  SER69      -0.2863
     21  CB         7.6200   -3.5260    8.5820 C.3    69  SER69       0.2116
     22  OG         8.0040   -2.6420    9.6080 O.3    69  SER69      -0.2180
     23  N          4.0470   -2.4150    3.9440 N.3    72  VAL72      -0.1245
     24  CA         4.8680   -1.4990    3.1660 C.3    72  VAL72       0.1561
     25  C          5.7240   -2.2660    2.1590 C.2    72  VAL72       0.2260
     26  O          5.7140   -1.9560    0.9660 O.2    72  VAL72      -0.2867
     27  CB         5.7930   -0.6320    4.0670 C.3    72  VAL72       0.0252
     28  CG1        6.7470    0.2150    3.1970 C.3    72  VAL72       0.0019
     29  CG2        4.9660    0.2330    4.9700 C.3    72  VAL72       0.0019
     30  N          6.4910    5.4820   -3.3150 N.3    79  THR79      -0.1203
     31  CA         5.8950    6.0130   -2.0890 C.3    79  THR79       0.1994
     32  C          4.7560    5.1180   -1.6140 C.2    79  THR79       0.2618
     33  O          3.8240    4.8400   -2.3720 O.2    79  THR79      -0.2717
     34  CB         5.3720    7.4630   -2.2900 C.3    79  THR79       0.1784
     35  OG1        6.4640    8.3120   -2.6360 O.3    79  THR79      -0.2211
     36  CG2        4.7240    7.9860   -0.9970 C.3    79  THR79       0.0376
     37  N          4.8510    4.6700   -0.3620 N.am   80  VAL80      -0.1965
     38  CA         3.8470    3.8180    0.2710 C.3    80  VAL80       0.1727
     39  C          3.7320    4.2930    1.6940 C.2    80  VAL80       0.2616
     40  O          4.7240    4.2760    2.4370 O.2    80  VAL80      -0.2715
     41  CB         4.2510    2.3070    0.2760 C.3    80  VAL80       0.0290
     42  CG1        3.2110    1.4510    1.0270 C.3    80  VAL80       0.0023
     43  CG2        4.4380    1.7990   -1.1330 C.3    80  VAL80       0.0023
     44  N          2.5300    4.7140    2.0870 N.am   81  LEU81      -0.1963
     45  CA         2.3120    5.1530    3.4670 C.3    81  LEU81       0.1728
     46  C          1.0420    4.5480    4.0710 C.2    81  LEU81       0.2617
     47  O          0.0040    4.5050    3.4230 O.2    81  LEU81      -0.2715
     48  CB         2.2220    6.6740    3.5140 C.3    81  LEU81       0.0311
     49  CG         3.3780    7.4830    2.9280 C.3    81  LEU81       0.0022
     50  CD1        2.9510    8.9350    2.6300 C.3    81  LEU81       0.0001
     51  CD2        4.5580    7.4350    3.8960 C.3    81  LEU81       0.0001
     52  N          1.1060    4.1120    5.3300 N.am   82  THR82      -0.1937
     53  CA        -0.0960    3.5930    5.9600 C.3    82  THR82       0.2028
     54  C         -1.0950    4.7350    6.1460 C.2    82  THR82       0.2642
     55  O         -0.7760    5.7720    6.7320 O.2    82  THR82      -0.2714
     56  CB         0.2010    2.8910    7.2930 C.3    82  THR82       0.1808
     57  OG1        1.2390    1.9220    7.0690 O.3    82  THR82      -0.2208
     58  CG2       -1.0820    2.1670    7.8250 C.3    82  THR82       0.0379
     59  N         -2.3030    4.5450    5.6290 N.am   83  HIS83      -0.1973
     60  CA        -3.3320    5.5750    5.7680 C.3    83  HIS83       0.1656
     61  C         -4.2850    5.2390    6.9050 C.2    83  HIS83       0.2291
     62  O         -4.5790    6.0880    7.7400 O.2    83  HIS83      -0.2864
     63  CB        -4.1050    5.7770    4.4520 C.3    83  HIS83       0.0771
     64  CG        -4.6640    7.1560    4.2970 C.ar   83  HIS83       0.0820
     65  ND1       -5.1290    7.6430    3.0940 N.ar   83  HIS83      -0.2267
     66  CD2       -4.7890    8.1700    5.1870 C.ar   83  HIS83       0.1154
     67  CE1       -5.5350    8.8900    3.2540 C.ar   83  HIS83       0.1986
     68  NE2       -5.3480    9.2290    4.5200 N.ar   83  HIS83      -0.2212
     69  N         -5.5490    4.9720   -5.5590 N.3   111  LYS111     -0.1245
     70  CA        -4.8170    5.6450   -4.4750 C.3   111  LYS111      0.1561
     71  C         -4.3610    4.7360   -3.3230 C.2   111  LYS111      0.2260
     72  O         -3.4160    5.0740   -2.5920 O.2   111  LYS111     -0.2867
     73  CB        -5.6490    6.8370   -3.9600 C.3   111  LYS111      0.0271
     74  CG        -5.0960    7.5650   -2.7380 C.3   111  LYS111      0.0035
     75  CD        -5.7770    8.9310   -2.5600 C.3   111  LYS111      0.0206
     76  CE        -5.3050    9.6590   -1.3000 C.3   111  LYS111      0.1093
     77  NZ        -5.5770   11.1250   -1.4180 N.3   111  LYS111     -0.1314
     78  N         -1.8320    3.9650    1.3370 N.3   134  PHE134     -0.1241
     79  CA        -1.6740    4.9640    0.2860 C.3   134  PHE134      0.1605
     80  C         -0.4480    4.6450   -0.5610 C.2   134  PHE134      0.2264
     81  O          0.5860    4.2120   -0.0540 O.2   134  PHE134     -0.2867
     82  CB        -1.5330    6.3760    0.8960 C.3   134  PHE134      0.0534
     83  CG        -1.1070    7.4350   -0.0860 C.ar  134  PHE134     -0.0203
     84  CD1       -2.0480    8.1260   -0.8330 C.ar  134  PHE134     -0.0042
     85  CD2        0.2390    7.7580   -0.2470 C.ar  134  PHE134     -0.0042
     86  CE1       -1.6570    9.1140   -1.7520 C.ar  134  PHE134     -0.0003
     87  CE2        0.6420    8.7390   -1.1360 C.ar  134  PHE134     -0.0003
     88  CZ        -0.3060    9.4280   -1.8960 C.ar  134  PHE134     -0.0000
     89  N          1.9290    6.1430   -4.1500 N.3   136  ASP136     -0.1239
     90  CA         2.1670    7.1130   -5.1970 C.3   136  ASP136      0.1674
     91  C          3.3690    6.6870   -6.0220 C.2   136  ASP136      0.2266
     92  O          4.3130    6.0880   -5.4980 O.2   136  ASP136     -0.2867
     93  CB         2.4180    8.4990   -4.6020 C.3   136  ASP136      0.1410
     94  CG         2.1390    9.6150   -5.5910 C.2   136  ASP136      0.3668
     95  OD1        2.9240    9.8140   -6.5540 O.co2 136  ASP136     -0.2456
     96  OD2        1.1170   10.2970   -5.4030 O.co2 136  ASP136     -0.2456
     97  N          5.2890    8.7960   -7.7320 N.3   138  ARG138     -0.1245
     98  CA         5.9710   10.0270   -8.1380 C.3   138  ARG138      0.1563
     99  C          6.7990   10.5980   -6.9890 C.2   138  ARG138      0.2260
    100  O          7.4610    9.8350   -6.2680 O.2   138  ARG138     -0.2867
    101  CB         4.9230   11.0220   -8.6690 C.3   138  ARG138      0.0307
    102  CG         5.1970   12.4900   -8.4490 C.3   138  ARG138      0.0489
    103  CD         3.9030   13.3100   -8.5200 C.3   138  ARG138      0.2205
    104  NE         3.2530   13.4670   -7.2140 N.pl3 138  ARG138     -0.0865
    105  CZ         2.0660   12.9620   -6.8750 C.cat 138  ARG138      0.5346
    106  NH1        1.3600   12.2560   -7.7390 N.pl3 138  ARG138      0.1354
    107  NH2        1.5750   13.1760   -5.6620 N.pl3 138  ARG138      0.1354
@<TRIPOS>BOND
     1   101   102    1
     2   101    98    1
     3   103   102    1
     4   103   104    1
     5    98    97    1
     6    98    99    1
     7   106   105    1
     8   104   105    2
     9    99   100    2
    10   105   107    1
    11    95    94   ar
    12    91    92    2
    13    91    90    1
    14    94    96   ar
    15    94    93    1
    16    69    70    1
    17    90    93    1
    18    90    89    1
    19    70    73    1
    20    70    71    1
    21    73    74    1
    22    71    72    2
    23    30    31    1
    24    74    75    1
    25    35    34    1
    26    75    76    1
    27    33    32    2
    28    34    31    1
    29    34    36    1
    30    31    32    1
    31    88    86   ar
    32    88    87   ar
    33    86    84   ar
    34    32    37   am
    35    77    76    1
    36    87    85   ar
    37    43    41    1
    38    84    83   ar
    39    80    81    2
    40    80    79    1
    41    37    38    1
    42    85    83   ar
    43    83    82    1
    44    38    41    1
    45    38    39    1
    46    41    42    1
    47    79    82    1
    48    79    78    1
    49    26    25    2
    50     1     2    1
    51     4     3    2
    52    39    44   am
    53    39    40    2
    54    44    45    1
    55    25    24    1
    56     3     2    1
    57     2     5    1
    58    50    49    1
    59    49    48    1
    60    49    51    1
    61    65    67   ar
    62    65    64   ar
    63    24    23    1
    64    24    27    1
    65    28    27    1
    66    67    68   ar
    67     7     5    1
    68    47    46    2
    69    45    48    1
    70    45    46    1
    71     5     6    1
    72    27    29    1
    73    46    52   am
    74    64    63    1
    75    64    66   ar
    76    63    60    1
    77    68    66   ar
    78     6     8    1
    79    52    53    1
    80    20    19    2
    81    59    60    1
    82    59    54   am
    83    60    61    1
    84    53    54    1
    85    53    56    1
    86    54    55    2
    87    19    18    1
    88    61    62    2
    89    12    11    2
    90    57    56    1
    91    56    58    1
    92    18    21    1
    93    18    17    1
    94    11    17   am
    95    11    10    1
    96    21    22    1
    97    15    14    2
    98    10     9    1
    99    10    13    1
   100    14    16   am
   101    14    13    1
