@<TRIPOS>MOLECULE
tmp/4a0zA01.pdb
 107 101 0 0 0
SMALL
GASTEIGER

@<TRIPOS>ATOM
      1  N          0.8660    0.2830   34.1760 N.3    67  ILE67      -0.1245
      2  CA         2.0790    0.2710   33.3700 C.3    67  ILE67       0.1561
      3  C          3.1760    1.0780   34.0800 C.2    67  ILE67       0.2260
      4  O          2.9090    2.0790   34.7360 O.2    67  ILE67      -0.2867
      5  CB         1.8180    0.8100   31.9170 C.3    67  ILE67       0.0252
      6  CG1        3.0880    0.7620   31.0440 C.3    67  ILE67       0.0019
      7  CG2        1.2390    2.2380   31.9500 C.3    67  ILE67       0.0019
      8  CD1        2.7980    0.8580   29.5130 C.3    67  ILE67       0.0001
      9  N         -1.1910    3.8540   22.1430 N.3   113  ASN113     -0.1225
     10  CA        -1.4960    2.6030   22.8260 C.3   113  ASN113      0.1785
     11  C         -1.0590    2.6560   24.2950 C.2   113  ASN113      0.2597
     12  O         -1.8450    2.3460   25.1910 O.2   113  ASN113     -0.2718
     13  CB        -0.7860    1.4710   22.0980 C.3   113  ASN113      0.1169
     14  CG        -1.3950    0.1240   22.3720 C.2   113  ASN113      0.2627
     15  OD1       -2.6250   -0.0150   22.5340 O.2   113  ASN113     -0.2716
     16  ND2       -0.5400   -0.8980   22.3920 N.am  113  ASN113     -0.0877
     17  N          0.1990    3.0770   24.5370 N.am  114  SER114     -0.1952
     18  CA         0.7120    3.2370   25.9200 C.3   114  SER114      0.1924
     19  C         -0.1210    4.1750   26.7550 C.2   114  SER114      0.2314
     20  O         -0.2780    3.9730   27.9800 O.2   114  SER114     -0.2863
     21  CB         2.1430    3.8700   25.9150 C.3   114  SER114      0.2116
     22  OG         3.0830    2.8960   25.6300 O.3   114  SER114     -0.2180
     23  N         -3.2850    2.5710   27.9000 N.3   117  VAL117     -0.1245
     24  CA        -2.9980    1.6530   29.0140 C.3   117  VAL117      0.1561
     25  C         -2.8570    2.4600   30.3040 C.2   117  VAL117      0.2260
     26  O         -3.5510    2.1850   31.3140 O.2   117  VAL117     -0.2867
     27  CB        -1.7260    0.7560   28.7940 C.3   117  VAL117      0.0252
     28  CG1       -1.4340   -0.0830   30.0440 C.3   117  VAL117      0.0019
     29  CG2       -1.8830   -0.1400   27.5660 C.3   117  VAL117      0.0019
     30  N         -4.5900   -5.1450   35.3290 N.3   124  THR124     -0.1203
     31  CA        -4.4400   -5.7950   34.0120 C.3   124  THR124      0.1994
     32  C         -5.1930   -5.0050   32.9570 C.2   124  THR124      0.2618
     33  O         -6.4090   -4.8310   33.0600 O.2   124  THR124     -0.2717
     34  CB        -4.9810   -7.2360   34.0510 C.3   124  THR124      0.1784
     35  OG1       -4.1660   -8.0110   34.9360 O.3   124  THR124     -0.2211
     36  CG2       -4.9950   -7.8850   32.6500 C.3   124  THR124      0.0376
     37  N         -4.4680   -4.5270   31.9540 N.am  125  VAL125     -0.1965
     38  CA        -5.0420   -3.7790   30.8390 C.3   125  VAL125      0.1727
     39  C         -4.3480   -4.2800   29.5840 C.2   125  VAL125      0.2616
     40  O         -3.1000   -4.2160   29.4920 O.2   125  VAL125     -0.2715
     41  CB        -4.7910   -2.2430   30.9920 C.3   125  VAL125      0.0290
     42  CG1       -5.3420   -1.4940   29.8010 C.3   125  VAL125      0.0023
     43  CG2       -5.4150   -1.7200   32.2760 C.3   125  VAL125      0.0023
     44  N         -5.1230   -4.7940   28.6270 N.am  126  LEU126     -0.1963
     45  CA        -4.5550   -5.2580   27.3670 C.3   126  LEU126      0.1728
     46  C         -5.3360   -4.7200   26.1790 C.2   126  LEU126      0.2617
     47  O         -6.5610   -4.7790   26.1720 O.2   126  LEU126     -0.2715
     48  CB        -4.6000   -6.7840   27.3100 C.3   126  LEU126      0.0311
     49  CG        -3.8300   -7.5410   28.3840 C.3   126  LEU126      0.0022
     50  CD1       -4.2850   -9.0110   28.3970 C.3   126  LEU126      0.0001
     51  CD2       -2.3020   -7.3770   28.1700 C.3   126  LEU126      0.0001
     52  N         -4.6480   -4.2030   25.1700 N.am  127  THR127     -0.1937
     53  CA        -5.3550   -3.7270   23.9850 C.3   127  THR127      0.2028
     54  C         -6.0370   -4.9220   23.3120 C.2   127  THR127      0.2642
     55  O         -5.4110   -5.9480   23.0520 O.2   127  THR127     -0.2714
     56  CB        -4.3860   -3.0540   23.0380 C.3   127  THR127      0.1808
     57  OG1       -3.5820   -2.1600   23.8110 O.3   127  THR127     -0.2208
     58  CG2       -5.1350   -2.2880   21.9250 C.3   127  THR127      0.0379
     59  N         -7.3440   -4.8070   23.0920 N.am  128  HIS128     -0.1973
     60  CA        -8.0680   -5.8420   22.3660 C.3   128  HIS128      0.1656
     61  C         -8.2360   -5.5220   20.8750 C.2   128  HIS128      0.2291
     62  O         -7.9600   -6.3700   20.0170 O.2   128  HIS128     -0.2864
     63  CB        -9.4250   -6.1060   23.0390 C.3   128  HIS128      0.0771
     64  CG        -9.9920   -7.4650   22.7490 C.ar  128  HIS128      0.0820
     65  ND1      -11.1140   -7.9530   23.3880 N.ar  128  HIS128     -0.2267
     66  CD2       -9.5720   -8.4480   21.9160 C.ar  128  HIS128      0.1154
     67  CE1      -11.3760   -9.1710   22.9390 C.ar  128  HIS128      0.1986
     68  NE2      -10.4640   -9.4860   22.0320 N.ar  128  HIS128     -0.2212
     69  N        -15.8130   -5.4930   31.0310 N.3   156  LYS156     -0.1245
     70  CA       -14.6070   -6.1400   30.4910 C.3   156  LYS156      0.1561
     71  C        -13.6950   -5.2190   29.6420 C.2   156  LYS156      0.2260
     72  O        -12.5090   -5.5250   29.4210 O.2   156  LYS156     -0.2867
     73  CB       -15.0360   -7.4040   29.7160 C.3   156  LYS156      0.0271
     74  CG       -13.9690   -8.0590   28.8290 C.3   156  LYS156      0.0035
     75  CD       -14.4080   -9.5000   28.4730 C.3   156  LYS156      0.0206
     76  CE       -13.7020  -10.0070   27.2110 C.3   156  LYS156      0.1093
     77  NZ       -14.1300  -11.4120   26.9060 N.3   156  LYS156     -0.1314
     78  N         -9.1000   -4.2690   26.9140 N.3   179  PHE179     -0.1241
     79  CA        -9.5300   -5.2550   27.8890 C.3   179  PHE179      0.1605
     80  C         -8.9350   -4.9350   29.2550 C.2   179  PHE179      0.2264
     81  O         -7.7680   -4.4880   29.3550 O.2   179  PHE179     -0.2867
     82  CB        -9.1490   -6.6560   27.4170 C.3   179  PHE179      0.0534
     83  CG        -9.2870   -7.7120   28.4780 C.ar  179  PHE179     -0.0203
     84  CD1       -8.2240   -7.9870   29.3350 C.ar  179  PHE179     -0.0042
     85  CD2      -10.4710   -8.4390   28.6150 C.ar  179  PHE179     -0.0042
     86  CE1       -8.3420   -8.9440   30.3400 C.ar  179  PHE179     -0.0003
     87  CE2      -10.6110   -9.4310   29.6180 C.ar  179  PHE179     -0.0003
     88  CZ        -9.5390   -9.6830   30.4750 C.ar  179  PHE179     -0.0000
     89  N         -8.9540   -6.2740   33.6390 N.3   181  ASP181     -0.1239
     90  CA        -9.3390   -7.1810   34.7050 C.3   181  ASP181      0.1674
     91  C         -8.8610   -6.5740   36.0040 C.2   181  ASP181      0.2266
     92  O         -7.7530   -6.0460   36.0780 O.2   181  ASP181     -0.2867
     93  CB        -8.7190   -8.5560   34.4840 C.3   181  ASP181      0.1410
     94  CG        -9.4100   -9.6300   35.2870 C.2   181  ASP181      0.3668
     95  OD1       -9.2450   -9.6450   36.5260 O.co2 181  ASP181     -0.2456
     96  OD2      -10.1390  -10.4470   34.6930 O.co2 181  ASP181     -0.2456
     97  N         -8.0120   -8.1120   38.5540 N.3   183  ARG183     -0.1245
     98  CA        -6.9650   -8.9620   39.1190 C.3   183  ARG183      0.1563
     99  C         -5.6780   -8.7570   38.3170 C.2   183  ARG183      0.2260
    100  O         -4.5730   -8.9590   38.8230 O.2   183  ARG183     -0.2867
    101  CB        -7.3790  -10.4340   39.0880 C.3   183  ARG183      0.0307
    102  CG        -8.6870  -10.7370   39.8250 C.3   183  ARG183      0.0489
    103  CD        -9.3000  -12.0740   39.3950 C.3   183  ARG183      0.2205
    104  NE        -9.5400  -12.1250   37.9490 N.pl3 183  ARG183     -0.0865
    105  CZ       -10.3390  -12.9960   37.3340 C.cat 183  ARG183      0.5346
    106  NH1      -11.0100  -13.9100   38.0230 N.pl3 183  ARG183      0.1354
    107  NH2      -10.4740  -12.9450   36.0150 N.pl3 183  ARG183      0.1354
@<TRIPOS>BOND
     1    62    61    2
     2    61    60    1
     3    66    68   ar
     4    66    64   ar
     5    58    56    1
     6    68    67   ar
     7    13    14    1
     8    13    10    1
     9     9    10    1
    10    60    63    1
    11    60    59    1
    12    14    16   am
    13    14    15    2
    14    64    63    1
    15    64    65   ar
    16    10    11    1
    17    67    65   ar
    18    56    57    1
    19    56    53    1
    20    55    54    2
    21    59    54   am
    22    54    53    1
    23    53    52    1
    24    11    17   am
    25    11    12    2
    26    17    18    1
    27    52    46   am
    28    22    21    1
    29    21    18    1
    30    18    19    1
    31    47    46    2
    32    46    45    1
    33    19    20    2
    34    77    76    1
    35    78    79    1
    36    76    75    1
    37    48    45    1
    38    48    49    1
    39    45    44    1
    40    82    79    1
    41    82    83    1
    42    29    27    1
    43    79    80    1
    44    23    24    1
    45    51    49    1
    46    49    50    1
    47    75    74    1
    48    83    85   ar
    49    83    84   ar
    50    85    87   ar
    51    44    39   am
    52    27    24    1
    53    27    28    1
    54    74    73    1
    55    24    25    1
    56    80    81    2
    57    84    86   ar
    58    72    71    2
    59    40    39    2
    60     8     6    1
    61    39    38    1
    62    87    88   ar
    63    71    70    1
    64    73    70    1
    65    42    41    1
    66    25    26    2
    67    86    88   ar
    68    70    69    1
    69    38    41    1
    70    38    37    1
    71    41    43    1
    72     6     5    1
    73     5     7    1
    74     5     2    1
    75    37    32   am
    76    36    34    1
    77    32    33    2
    78    32    31    1
    79     2     3    1
    80     2     1    1
    81    89    90    1
    82    31    34    1
    83    31    30    1
    84    34    35    1
    85     3     4    2
    86    93    90    1
    87    93    94    1
    88    96    94   ar
    89    90    91    1
    90    94    95   ar
    91    91    92    2
    92   107   105    1
    93   105   104    2
    94   105   106    1
    95   104   103    1
    96    99   100    2
    97    99    98    1
    98    97    98    1
    99   101    98    1
   100   101   102    1
   101   103   102    1
