@<TRIPOS>MOLECULE
tmp/4a0zA00.pdb
 108 106 0 0 0
SMALL
GASTEIGER

@<TRIPOS>ATOM
      1  N         11.6500    7.1740    9.0550 N.3    97  PHE97      -0.1241
      2  CA        12.3300    6.7610    7.8330 C.3    97  PHE97       0.1605
      3  C         13.4270    7.7820    7.5470 C.2    97  PHE97       0.2264
      4  O         13.1550    8.9730    7.3260 O.2    97  PHE97      -0.2867
      5  CB        11.3630    6.7080    6.6540 C.3    97  PHE97       0.0534
      6  CG        10.3610    5.5960    6.7310 C.ar   97  PHE97      -0.0203
      7  CD1       10.7390    4.2780    6.4890 C.ar   97  PHE97      -0.0042
      8  CD2        9.0260    5.8690    7.0030 C.ar   97  PHE97      -0.0042
      9  CE1        9.8080    3.2430    6.5410 C.ar   97  PHE97      -0.0003
     10  CE2        8.0800    4.8320    7.0590 C.ar   97  PHE97      -0.0003
     11  CZ         8.4800    3.5240    6.8220 C.ar   97  PHE97      -0.0000
     12  N         13.2070   10.1390    4.2850 N.3   100  THR100     -0.1218
     13  CA        12.0920   11.0780    4.1210 C.3   100  THR100      0.1862
     14  C         11.8450   11.9390    5.3680 C.2   100  THR100      0.2287
     15  O         11.1780   12.9740    5.3000 O.2   100  THR100     -0.2866
     16  CB        10.7760   10.3180    3.7930 C.3   100  THR100      0.1770
     17  OG1       10.4880    9.3920    4.8410 O.3   100  THR100     -0.2211
     18  CG2       10.8800    9.5550    2.4720 C.3   100  THR100      0.0375
     19  N          9.9590   10.9840    7.6910 N.3   102  ILE102     -0.1231
     20  CA         8.5950   10.6430    8.1390 C.3   102  ILE102      0.1692
     21  C          8.5940    9.6440    9.3080 C.2   102  ILE102      0.2592
     22  O          9.2330    8.5880    9.2450 O.2   102  ILE102     -0.2718
     23  CB         7.7430   10.0780    6.9510 C.3   102  ILE102      0.0266
     24  CG1        7.5810   11.1260    5.8400 C.3   102  ILE102      0.0019
     25  CG2        6.3810    9.5670    7.4520 C.3   102  ILE102      0.0020
     26  CD1        7.1500   10.5420    4.4730 C.3   102  ILE102      0.0001
     27  N          7.8490    9.9640   10.3640 N.am  103  ALA103     -0.1966
     28  CA         7.7480    9.0770   11.5150 C.3   103  ALA103      0.1728
     29  C          7.0310    7.7540   11.1930 C.2   103  ALA103      0.2616
     30  O          6.0070    7.7360   10.5070 O.2   103  ALA103     -0.2715
     31  CB         7.0680    9.7830   12.6890 C.3   103  ALA103      0.0334
     32  N          7.5980    6.6630   11.7080 N.am  104  ARG104     -0.1963
     33  CA         7.0520    5.3260   11.5480 C.3   104  ARG104      0.1729
     34  C          5.6680    5.2570   12.1670 C.2   104  ARG104      0.2617
     35  O          5.4410    5.8050   13.2630 O.2   104  ARG104     -0.2715
     36  CB         7.9630    4.2880   12.2310 C.3   104  ARG104      0.0348
     37  CG         9.4060    4.2770   11.7280 C.3   104  ARG104      0.0492
     38  CD         9.4840    3.9670   10.2290 C.3   104  ARG104      0.2205
     39  NE         8.8280    2.7060    9.8490 N.pl3 104  ARG104     -0.0865
     40  CZ         9.4160    1.5080    9.9200 C.cat 104  ARG104      0.5346
     41  NH1       10.6600    1.4030   10.3750 N.pl3 104  ARG104      0.1354
     42  NH2        8.7790    0.4100    9.5200 N.pl3 104  ARG104      0.1354
     43  N          4.7530    4.5440   11.5000 N.am  105  GLY105     -0.1940
     44  CA         3.3960    4.3970   12.0380 C.3   105  GLY105      0.2014
     45  C          3.3700    3.7310   13.3990 C.2   105  GLY105      0.2638
     46  O          2.5510    4.0810   14.2570 O.2   105  GLY105     -0.2714
     47  N          4.2560    2.7610   13.6360 N.am  106  HIS106     -0.1973
     48  CA         4.2320    2.1070   14.9450 C.3   106  HIS106      0.1656
     49  C          4.6440    3.0150   16.0650 C.2   106  HIS106      0.2291
     50  O          4.3310    2.7290   17.2090 O.2   106  HIS106     -0.2864
     51  CB         5.0890    0.8380   14.9930 C.3   106  HIS106      0.0771
     52  CG         6.5570    1.0930   14.8540 C.ar  106  HIS106      0.0820
     53  ND1        7.2310    0.9140   13.6640 N.ar  106  HIS106     -0.2267
     54  CD2        7.4790    1.5080   15.7530 C.ar  106  HIS106      0.1154
     55  CE1        8.5140    1.1920   13.8430 C.ar  106  HIS106      0.1986
     56  NE2        8.6880    1.5660   15.0990 N.ar  106  HIS106     -0.2212
     57  N          3.7740    6.3680   16.4200 N.3   108  LEU108     -0.1245
     58  CA         2.5420    7.0840   16.7920 C.3   108  LEU108      0.1561
     59  C          1.5650    6.1270   17.4550 C.2   108  LEU108      0.2260
     60  O          0.9260    6.4790   18.4230 O.2   108  LEU108     -0.2867
     61  CB         1.8970    7.7310   15.5660 C.3   108  LEU108      0.0270
     62  CG         2.8470    8.5810   14.6960 C.3   108  LEU108      0.0019
     63  CD1        2.0740    9.1340   13.4930 C.3   108  LEU108      0.0001
     64  CD2        3.4920    9.7310   15.5270 C.3   108  LEU108      0.0001
     65  N         -3.9360    7.7130   10.1140 N.3   134  PHE134     -0.1227
     66  CA        -2.7770    8.5620    9.9660 C.3   134  PHE134      0.1736
     67  C         -3.1670    9.7100    9.0360 C.2   134  PHE134      0.2595
     68  O         -3.1650    9.5770    7.8160 O.2   134  PHE134     -0.2718
     69  CB        -1.6050    7.7500    9.4080 C.3   134  PHE134      0.0547
     70  CG        -1.1830    6.5950   10.2960 C.ar  134  PHE134     -0.0202
     71  CD1       -0.3350    6.8080   11.3860 C.ar  134  PHE134     -0.0042
     72  CD2       -1.6110    5.2950   10.0220 C.ar  134  PHE134     -0.0042
     73  CE1        0.1020    5.7560   12.1710 C.ar  134  PHE134     -0.0003
     74  CE2       -1.1900    4.2160   10.8150 C.ar  134  PHE134     -0.0003
     75  CZ        -0.3430    4.4600   11.9160 C.ar  134  PHE134     -0.0000
     76  N         -3.5300   10.8320    9.6320 N.am  135  ILE135     -0.1966
     77  CA        -4.1760   11.9140    8.8970 C.3   135  ILE135      0.1727
     78  C         -3.1660   12.8240    8.1700 C.2   135  ILE135      0.2616
     79  O         -3.3860   13.2030    7.0270 O.2   135  ILE135     -0.2715
     80  CB        -5.1050   12.7150    9.8500 C.3   135  ILE135      0.0290
     81  CG1       -6.1780   11.7880   10.4370 C.3   135  ILE135      0.0022
     82  CG2       -5.7210   13.9530    9.1690 C.3   135  ILE135      0.0023
     83  CD1       -6.6880   12.2640   11.7550 C.3   135  ILE135      0.0001
     84  N         -2.0820   13.1740    8.8590 N.am  136  GLU136     -0.1963
     85  CA        -0.9890   13.9660    8.3080 C.3   136  GLU136      0.1733
     86  C          0.3390   13.3250    8.6900 C.2   136  GLU136      0.2616
     87  O          0.4530   12.6800    9.7340 O.2   136  GLU136     -0.2715
     88  CB        -1.0130   15.4050    8.8440 C.3   136  GLU136      0.0429
     89  CG        -2.3730   16.0700    8.8800 C.3   136  GLU136      0.1163
     90  CD        -2.6640   16.8640    7.6430 C.2   136  GLU136      0.3649
     91  OE1       -2.7060   16.2450    6.5720 O.co2 136  GLU136     -0.2457
     92  OE2       -2.8400   18.1110    7.7390 O.co2 136  GLU136     -0.2457
     93  N          1.3430   13.5140    7.8450 N.am  137  LYS137     -0.1963
     94  CA         2.6870   13.0250    8.1230 C.3   137  LYS137      0.1728
     95  C          3.2510   13.7180    9.3460 C.2   137  LYS137      0.2616
     96  O          3.1800   14.9450    9.4650 O.2   137  LYS137     -0.2715
     97  CB         3.6120   13.3110    6.9430 C.3   137  LYS137      0.0311
     98  CG         3.4230   12.4110    5.7370 C.3   137  LYS137      0.0038
     99  CD         4.2560   12.9530    4.5880 C.3   137  LYS137      0.0206
    100  CE         3.7290   12.5050    3.2380 C.3   137  LYS137      0.1093
    101  NZ         2.4020   13.0870    2.9000 N.3   137  LYS137     -0.1314
    102  N          3.8040   12.9270   10.2570 N.am  138  VAL138     -0.1977
    103  CA         4.5880   13.4630   11.3580 C.3   138  VAL138      0.1596
    104  C          6.0400   13.4210   10.9220 C.2   138  VAL138      0.2287
    105  O          6.4710   12.4650   10.2570 O.2   138  VAL138     -0.2864
    106  CB         4.3740   12.6500   12.6600 C.3   138  VAL138      0.0276
    107  CG1        5.3370   13.1430   13.7710 C.3   138  VAL138      0.0022
    108  CG2        2.9380   12.7620   13.0950 C.3   138  VAL138      0.0022
@<TRIPOS>BOND
     1    18    16    1
     2   101   100    1
     3   100    99    1
     4    16    13    1
     5    16    17    1
     6    13    12    1
     7    13    14    1
     8    26    24    1
     9    99    98    1
    10    15    14    2
    11    98    97    1
    12    24    23    1
    13     7     9   ar
    14     7     6   ar
    15     9    11   ar
    16    91    90   ar
    17     5     6    1
    18     5     2    1
    19     6     8   ar
    20    11    10   ar
    21    97    94    1
    22    23    25    1
    23    23    20    1
    24     8    10   ar
    25    79    78    2
    26     4     3    2
    27     3     2    1
    28    90    92   ar
    29    90    89    1
    30    19    20    1
    31    68    67    2
    32     2     1    1
    33    93    94    1
    34    93    86   am
    35    94    95    1
    36    20    21    1
    37    78    84   am
    38    78    77    1
    39    85    86    1
    40    85    88    1
    41    85    84    1
    42    86    87    2
    43    88    89    1
    44    77    76    1
    45    77    80    1
    46    67    76   am
    47    67    66    1
    48    82    80    1
    49    22    21    2
    50    21    27   am
    51    95    96    2
    52    95   102   am
    53    69    66    1
    54    69    70    1
    55    42    40    1
    56    39    40    2
    57    39    38    1
    58    80    81    1
    59    40    41    1
    60    66    65    1
    61    72    70   ar
    62    72    74   ar
    63    38    37    1
    64   105   104    2
    65   102   103    1
    66    70    71   ar
    67    27    28    1
    68    81    83    1
    69    30    29    2
    70    74    75   ar
    71   104   103    1
    72    29    28    1
    73    29    32   am
    74   103   106    1
    75    71    73   ar
    76    43    44    1
    77    43    34   am
    78    28    31    1
    79    33    32    1
    80    33    34    1
    81    33    36    1
    82    37    36    1
    83    75    73   ar
    84    44    45    1
    85    34    35    2
    86   106   108    1
    87   106   107    1
    88    45    47   am
    89    45    46    2
    90    63    62    1
    91    47    48    1
    92    53    55   ar
    93    53    52   ar
    94    55    56   ar
    95    62    64    1
    96    62    61    1
    97    52    51    1
    98    52    54   ar
    99    48    51    1
   100    48    49    1
   101    56    54   ar
   102    61    58    1
   103    49    50    2
   104    57    58    1
   105    58    59    1
   106    59    60    2
