@<TRIPOS>MOLECULE
tmp/4a0zB01.pdb
 101 100 0 0 0
SMALL
GASTEIGER

@<TRIPOS>ATOM
      1  N          6.2520   -6.6840   27.9640 N.3    52  PHE52      -0.1241
      2  CA         6.0970   -6.2980   29.3650 C.3    52  PHE52       0.1605
      3  C          6.8810   -7.2700   30.2530 C.2    52  PHE52       0.2264
      4  O          6.5830   -8.4820   30.2940 O.2    52  PHE52      -0.2867
      5  CB         4.6280   -6.3480   29.7950 C.3    52  PHE52       0.0534
      6  CG         3.7730   -5.2320   29.2390 C.ar   52  PHE52      -0.0203
      7  CD1        3.8820   -3.9350   29.7440 C.ar   52  PHE52      -0.0042
      8  CD2        2.8250   -5.4890   28.2500 C.ar   52  PHE52      -0.0042
      9  CE1        3.0490   -2.9030   29.2520 C.ar   52  PHE52      -0.0003
     10  CE2        1.9870   -4.4480   27.7350 C.ar   52  PHE52      -0.0003
     11  CZ         2.1060   -3.1660   28.2520 C.ar   52  PHE52      -0.0000
     12  N          4.2770  -10.5340   28.2450 N.3    57  ILE57      -0.1231
     13  CA         3.3570  -10.3340   27.1100 C.3    57  ILE57       0.1692
     14  C          3.9360   -9.3220   26.1440 C.2    57  ILE57       0.2592
     15  O          4.3760   -8.2640   26.5750 O.2    57  ILE57      -0.2718
     16  CB         1.9320   -9.8800   27.6030 C.3    57  ILE57       0.0266
     17  CG1        1.2740  -11.0130   28.4420 C.3    57  ILE57       0.0019
     18  CG2        1.0500   -9.4390   26.4570 C.3    57  ILE57       0.0020
     19  CD1        0.0890  -10.5480   29.3420 C.3    57  ILE57       0.0001
     20  N          3.9150   -9.6450   24.8430 N.am   58  ALA58      -0.1966
     21  CA         4.4280   -8.7520   23.8170 C.3    58  ALA58       0.1728
     22  C          3.6350   -7.4720   23.7240 C.2    58  ALA58       0.2616
     23  O          2.3890   -7.4780   23.7610 O.2    58  ALA58      -0.2715
     24  CB         4.4490   -9.4390   22.4520 C.3    58  ALA58       0.0334
     25  N          4.3640   -6.3660   23.5910 N.am   59  ARG59      -0.1963
     26  CA         3.7610   -5.0520   23.4220 C.3    59  ARG59       0.1729
     27  C          2.9880   -5.0010   22.1090 C.2    59  ARG59       0.2617
     28  O          3.4600   -5.4980   21.0740 O.2    59  ARG59      -0.2715
     29  CB         4.8750   -3.9780   23.4030 C.3    59  ARG59       0.0348
     30  CG         5.7560   -3.9240   24.6540 C.3    59  ARG59       0.0492
     31  CD         4.9430   -3.5910   25.9110 C.3    59  ARG59       0.2205
     32  NE         4.1050   -2.3960   25.7500 N.pl3  59  ARG59      -0.0865
     33  CZ         4.5100   -1.1560   26.0250 C.cat  59  ARG59       0.5346
     34  NH1        5.7840   -0.9530   26.4010 N.pl3  59  ARG59       0.1354
     35  NH2        3.6630   -0.1230   25.9070 N.pl3  59  ARG59       0.1354
     36  N          1.7800   -4.4180   22.1360 N.am   60  GLY60      -0.1940
     37  CA         0.9900   -4.3540   20.9260 C.3    60  GLY60       0.2014
     38  C          1.6430   -3.6230   19.7740 C.2    60  GLY60       0.2638
     39  O          1.4590   -3.9980   18.6120 O.2    60  GLY60      -0.2714
     40  N          2.4280   -2.5790   20.0710 N.am   61  HIS61      -0.1973
     41  CA         3.1070   -1.8560   18.9890 C.3    61  HIS61       0.1656
     42  C          4.1740   -2.6860   18.3010 C.2    61  HIS61       0.2291
     43  O          4.4920   -2.4170   17.1540 O.2    61  HIS61      -0.2864
     44  CB         3.7060   -0.5110   19.4550 C.3    61  HIS61       0.0771
     45  CG         4.9450   -0.6560   20.2890 C.ar   61  HIS61       0.0820
     46  ND1        4.9100   -0.6490   21.6700 N.ar   61  HIS61      -0.2267
     47  CD2        6.2540   -0.7850   19.9430 C.ar   61  HIS61       0.1154
     48  CE1        6.1450   -0.7640   22.1370 C.ar   61  HIS61       0.1986
     49  NE2        6.9730   -0.8690   21.1120 N.ar   61  HIS61      -0.2212
     50  N          3.8380   -6.0680   17.5680 N.3    63  LEU63      -0.1245
     51  CA         3.0780   -6.8900   16.6310 C.3    63  LEU63       0.1561
     52  C          2.5800   -5.9810   15.4940 C.2    63  LEU63       0.2260
     53  O          2.6680   -6.3430   14.3170 O.2    63  LEU63      -0.2867
     54  CB         1.9100   -7.6050   17.3370 C.3    63  LEU63       0.0270
     55  CG         2.2030   -8.4200   18.6100 C.3    63  LEU63       0.0019
     56  CD1        0.8920   -8.9850   19.2560 C.3    63  LEU63       0.0001
     57  CD2        3.2140   -9.5620   18.3160 C.3    63  LEU63       0.0001
     58  N         -6.0970   -7.9360   18.5820 N.3    89  PHE89      -0.1227
     59  CA        -5.1480   -8.7520   19.3210 C.3    89  PHE89       0.1736
     60  C         -5.9400   -9.9270   19.8900 C.2    89  PHE89       0.2595
     61  O         -6.6760   -9.7930   20.8850 O.2    89  PHE89      -0.2718
     62  CB        -4.4610   -7.9130   20.4190 C.3    89  PHE89       0.0547
     63  CG        -3.6580   -6.7440   19.8880 C.ar   89  PHE89      -0.0202
     64  CD1       -2.3180   -6.9220   19.4910 C.ar   89  PHE89      -0.0042
     65  CD2       -4.2140   -5.4640   19.8020 C.ar   89  PHE89      -0.0042
     66  CE1       -1.5520   -5.8350   19.0080 C.ar   89  PHE89      -0.0003
     67  CE2       -3.4630   -4.3790   19.3020 C.ar   89  PHE89      -0.0003
     68  CZ        -2.1180   -4.5700   18.9160 C.ar   89  PHE89      -0.0000
     69  N         -5.7720  -11.0880   19.2710 N.am   90  ILE90      -0.1966
     70  CA        -6.6630  -12.2380   19.5050 C.3    90  ILE90       0.1727
     71  C         -6.1250  -13.1130   20.6360 C.2    90  ILE90       0.2616
     72  O         -6.8940  -13.6180   21.4700 O.2    90  ILE90      -0.2715
     73  CB        -6.8630  -13.0580   18.1860 C.3    90  ILE90       0.0290
     74  CG1       -7.4650  -12.1600   17.0970 C.3    90  ILE90       0.0022
     75  CG2       -7.6970  -14.3360   18.3970 C.3    90  ILE90       0.0023
     76  CD1       -7.3270  -12.7180   15.6660 C.3    90  ILE90       0.0001
     77  N         -4.8000  -13.2750   20.6770 N.am   91  GLU91      -0.1963
     78  CA        -4.1480  -14.0550   21.7300 C.3    91  GLU91       0.1733
     79  C         -2.9130  -13.3100   22.2090 C.2    91  GLU91       0.2616
     80  O         -2.2600  -12.6160   21.4280 O.2    91  GLU91      -0.2715
     81  CB        -3.7190  -15.4350   21.2200 C.3    91  GLU91       0.0429
     82  CG        -4.7860  -16.2100   20.4630 C.3    91  GLU91       0.1163
     83  CD        -5.7480  -16.9340   21.3750 C.2    91  GLU91       0.3649
     84  OE1       -5.6070  -16.8230   22.6070 O.co2  91  GLU91      -0.2457
     85  OE2       -6.6400  -17.6390   20.8500 O.co2  91  GLU91      -0.2457
     86  N         -2.6020  -13.4550   23.4860 N.am   92  LYS92      -0.1963
     87  CA        -1.3390  -12.9220   24.0170 C.3    92  LYS92       0.1728
     88  C         -0.1610  -13.6140   23.3580 C.2    92  LYS92       0.2616
     89  O         -0.0740  -14.8470   23.3530 O.2    92  LYS92      -0.2715
     90  CB        -1.2330  -13.1670   25.5040 C.3    92  LYS92       0.0311
     91  CG        -2.2070  -12.3920   26.3280 C.3    92  LYS92       0.0038
     92  CD        -2.1510  -12.9320   27.7320 C.3    92  LYS92       0.0206
     93  CE        -3.2310  -12.3420   28.5780 C.3    92  LYS92       0.1093
     94  NZ        -4.4700  -13.1630   28.4100 N.3    92  LYS92      -0.1314
     95  N          0.7120  -12.8140   22.7670 N.am   93  VAL93      -0.1977
     96  CA         2.0240  -13.2790   22.3290 C.3    93  VAL93       0.1596
     97  C          2.9940  -13.1590   23.5240 C.2    93  VAL93       0.2287
     98  O          2.9500  -12.1690   24.2680 O.2    93  VAL93      -0.2864
     99  CB         2.4880  -12.4450   21.1330 C.3    93  VAL93       0.0276
    100  CG1        3.9350  -12.8330   20.7190 C.3    93  VAL93       0.0022
    101  CG2        1.5080  -12.6410   19.9880 C.3    93  VAL93       0.0022
@<TRIPOS>BOND
     1    53    52    2
     2    52    51    1
     3    76    74    1
     4    51    54    1
     5    51    50    1
     6    74    73    1
     7    43    42    2
     8    54    55    1
     9    73    75    1
    10    73    70    1
    11    42    41    1
    12    57    55    1
    13    58    59    1
    14    55    56    1
    15    39    38    2
    16    68    66   ar
    17    68    67   ar
    18    41    44    1
    19    41    40    1
    20    66    64   ar
    21    69    70    1
    22    69    60   am
    23    67    65   ar
    24    59    60    1
    25    59    62    1
    26    44    45    1
    27    64    63   ar
    28    70    71    1
    29    38    40   am
    30    38    37    1
    31    65    63   ar
    32    63    62    1
    33    60    61    2
    34    47    45   ar
    35    47    49   ar
    36   101    99    1
    37    45    46   ar
    38    82    81    1
    39    82    83    1
    40    71    77   am
    41    71    72    2
    42    77    78    1
    43   100    99    1
    44    85    83   ar
    45    37    36    1
    46    28    27    2
    47    49    48   ar
    48    99    96    1
    49    81    78    1
    50    83    84   ar
    51    80    79    2
    52    46    48   ar
    53    78    79    1
    54    27    36   am
    55    27    26    1
    56    79    86   am
    57    96    95    1
    58    96    97    1
    59    24    21    1
    60    95    88   am
    61    89    88    2
    62    88    87    1
    63    29    26    1
    64    29    30    1
    65    26    25    1
    66    86    87    1
    67    97    98    2
    68    25    22   am
    69    22    23    2
    70    22    21    1
    71    21    20    1
    72    87    90    1
    73    30    31    1
    74    20    14   am
    75    90    91    1
    76    32    31    1
    77    32    33    2
    78    35    33    1
    79    33    34    1
    80    14    15    2
    81    14    13    1
    82    91    92    1
    83    18    16    1
    84    13    16    1
    85    13    12    1
    86    16    17    1
    87    92    93    1
    88    10     8   ar
    89    10    11   ar
    90     1     2    1
    91     8     6   ar
    92    11     9   ar
    93    94    93    1
    94    17    19    1
    95     6     7   ar
    96     6     5    1
    97     9     7   ar
    98     2     5    1
    99     2     3    1
   100     3     4    2
