@<TRIPOS>MOLECULE
tmp/4a16D00.pdb
 249 250 0 0 0
SMALL
GASTEIGER

@<TRIPOS>ATOM
      1  N         49.8420  -10.4560   81.7070 N.3    71  ASP71      -0.1239
      2  CA        49.7750  -10.8430   80.3250 C.3    71  ASP71       0.1674
      3  C         50.8220  -11.9520   80.0780 C.2    71  ASP71       0.2266
      4  O         51.9180  -11.9430   80.6830 O.2    71  ASP71      -0.2867
      5  CB        49.9710   -9.6010   79.4450 C.3    71  ASP71       0.1410
      6  CG        48.6280   -8.9330   79.0410 C.2    71  ASP71       0.3668
      7  OD1       47.7030   -9.6930   78.6520 O.co2  71  ASP71      -0.2456
      8  OD2       48.4900   -7.6660   79.0760 O.co2  71  ASP71      -0.2456
      9  N         58.1040   -7.6300   76.0300 N.3    80  THR80      -0.1218
     10  CA        56.8960   -7.6150   76.8240 C.3    80  THR80       0.1862
     11  C         57.1780   -7.5840   78.2850 C.2    80  THR80       0.2287
     12  O         56.4280   -7.0010   79.0460 O.2    80  THR80      -0.2866
     13  CB        56.0660   -8.8320   76.6510 C.3    80  THR80       0.1770
     14  OG1       56.9330   -9.9480   76.5310 O.3    80  THR80      -0.2211
     15  CG2       55.2130   -8.7030   75.4370 C.3    80  THR80       0.0375
     16  N         57.2680   -4.5860   81.0320 N.3    83  TRP83      -0.1241
     17  CA        56.0090   -3.9790   81.4440 C.3    83  TRP83       0.1605
     18  C         55.4090   -4.7130   82.6170 C.2    83  TRP83       0.2264
     19  O         54.5200   -4.2020   83.2990 O.2    83  TRP83      -0.2867
     20  CB        55.0090   -3.9560   80.2720 C.3    83  TRP83       0.0550
     21  CG        55.4840   -3.1390   79.1010 C.ar   83  TRP83       0.0003
     22  CD1       56.0100   -3.6000   77.9190 C.ar   83  TRP83       0.0946
     23  CD2       55.4920   -1.7040   79.0170 C.ar   83  TRP83       0.0152
     24  NE1       56.3140   -2.5320   77.0910 N.ar   83  TRP83      -0.2442
     25  CE2       56.0170   -1.3620   77.7500 C.ar   83  TRP83       0.0810
     26  CE3       55.1290   -0.6750   79.9090 C.ar   83  TRP83       0.0012
     27  CZ2       56.1700   -0.0240   77.3440 C.ar   83  TRP83       0.0191
     28  CZ3       55.2820    0.6420   79.5170 C.ar   83  TRP83       0.0001
     29  CH2       55.7760    0.9620   78.2410 C.ar   83  TRP83       0.0015
     30  N         49.5640    3.8010   83.0060 N.3   117  GLY117     -0.1210
     31  CA        48.4840    3.1430   82.3370 C.3   117  GLY117      0.1956
     32  C         48.6920    1.6350   82.3110 C.2   117  GLY117      0.2612
     33  O         49.5400    1.1130   82.9920 O.2   117  GLY117     -0.2717
     34  N         47.9060    0.9320   81.5140 N.am  118  GLY118     -0.1942
     35  CA        47.7940   -0.4910   81.6290 C.3   118  GLY118      0.2014
     36  C         46.3240   -0.8840   81.4600 C.2   118  GLY118      0.2639
     37  O         45.8660   -1.8790   82.0480 O.2   118  GLY118     -0.2714
     38  N         45.5660   -0.1290   80.6770 N.am  119  GLY119     -0.1954
     39  CA        44.1380   -0.4640   80.4240 C.3   119  GLY119      0.1869
     40  C         43.2360   -0.6160   81.6450 C.2   119  GLY119      0.2309
     41  O         42.2160   -1.3430   81.5680 O.2   119  GLY119     -0.2863
     42  N         43.6270   -2.3760   83.9880 N.3   121  TYR121     -0.1227
     43  CA        43.6850   -3.7140   84.5680 C.3   121  TYR121      0.1736
     44  C         45.0850   -4.1650   84.9550 C.2   121  TYR121      0.2596
     45  O         45.2640   -5.2930   85.3530 O.2   121  TYR121     -0.2718
     46  CB        43.1160   -4.7220   83.6030 C.3   121  TYR121      0.0548
     47  CG        43.9900   -5.0260   82.4330 C.ar  121  TYR121     -0.0200
     48  CD1       44.9690   -5.9710   82.5010 C.ar  121  TYR121     -0.0009
     49  CD2       43.7830   -4.3870   81.2410 C.ar  121  TYR121     -0.0009
     50  CE1       45.7260   -6.2690   81.4070 C.ar  121  TYR121      0.0417
     51  CE2       44.5480   -4.6550   80.1310 C.ar  121  TYR121      0.0417
     52  CZ        45.5070   -5.5990   80.2230 C.ar  121  TYR121      0.1957
     53  OH        46.2330   -5.8520   79.1130 O.3   121  TYR121     -0.2866
     54  N         46.0690   -3.2920   84.8220 N.am  122  SER122     -0.1938
     55  CA        47.4100   -3.6760   85.1050 C.3   122  SER122      0.2055
     56  C         48.2530   -2.4260   85.1670 C.2   122  SER122      0.2643
     57  O         47.7550   -1.3340   84.9360 O.2   122  SER122     -0.2714
     58  CB        47.8970   -4.4930   83.9720 C.3   122  SER122      0.2130
     59  OG        47.9550   -3.6080   82.8670 O.3   122  SER122     -0.2179
     60  N         49.5560   -2.6110   85.4420 N.am  123  GLY123     -0.1954
     61  CA        50.5410   -1.5190   85.5580 C.3   123  GLY123      0.1869
     62  C         51.0930   -1.4030   86.9640 C.2   123  GLY123      0.2309
     63  O         50.5730   -2.0360   87.9000 O.2   123  GLY123     -0.2863
     64  N         59.4970    3.9950   84.7100 N.3   130  TYR130     -0.1241
     65  CA        58.8550    5.1000   85.4270 C.3   130  TYR130      0.1605
     66  C         59.7350    5.7010   86.4860 C.2   130  TYR130      0.2264
     67  O         59.2550    6.4350   87.3310 O.2   130  TYR130     -0.2867
     68  CB        57.4950    4.7140   86.0340 C.3   130  TYR130      0.0534
     69  CG        56.5310    4.0320   85.0940 C.ar  130  TYR130     -0.0201
     70  CD1       56.5220    4.3070   83.7350 C.ar  130  TYR130     -0.0009
     71  CD2       55.6080    3.1240   85.5750 C.ar  130  TYR130     -0.0009
     72  CE1       55.6460    3.6710   82.8670 C.ar  130  TYR130      0.0417
     73  CE2       54.7170    2.4910   84.7260 C.ar  130  TYR130      0.0417
     74  CZ        54.7280    2.7660   83.3680 C.ar  130  TYR130      0.1957
     75  OH        53.8580    2.1120   82.5210 O.3   130  TYR130     -0.2866
     76  N         50.1120    8.0660   80.9880 N.3   199  GLU199     -0.1231
     77  CA        50.1460    7.5350   79.6580 C.3   199  GLU199      0.1699
     78  C         49.0960    6.4230   79.5500 C.2   199  GLU199      0.2592
     79  O         48.7750    5.7760   80.5690 O.2   199  GLU199     -0.2718
     80  CB        51.5420    7.0510   79.3210 C.3   199  GLU199      0.0402
     81  CG        51.7050    6.5440   77.9140 C.3   199  GLU199      0.1161
     82  CD        51.2800    5.0810   77.7870 C.2   199  GLU199      0.3649
     83  OE1       51.1560    4.3770   78.8520 O.co2 199  GLU199     -0.2457
     84  OE2       51.0530    4.6190   76.6300 O.co2 199  GLU199     -0.2457
     85  N         48.5270    6.2290   78.3340 N.am  200  SER200     -0.1952
     86  CA        47.4410    5.2790   78.1390 C.3   200  SER200      0.1924
     87  C         46.3240    5.5360   79.1700 C.2   200  SER200      0.2314
     88  O         45.8310    6.6770   79.3170 O.2   200  SER200     -0.2863
     89  CB        48.0010    3.9140   78.3910 C.3   200  SER200      0.2116
     90  OG        47.4670    3.1070   77.4010 O.3   200  SER200     -0.2180
     91  N         38.1940  -11.5930   82.2800 N.3   283  TRP283     -0.1241
     92  CA        38.1590  -11.4110   80.8390 C.3   283  TRP283      0.1605
     93  C         36.9470  -12.0430   80.2350 C.2   283  TRP283      0.2264
     94  O         36.6220  -11.7680   79.1100 O.2   283  TRP283     -0.2867
     95  CB        39.3920  -11.9610   80.1610 C.3   283  TRP283      0.0550
     96  CG        40.6390  -11.1510   80.3930 C.ar  283  TRP283      0.0003
     97  CD1       41.7650  -11.5230   81.1370 C.ar  283  TRP283      0.0946
     98  CD2       40.9210   -9.8320   79.8980 C.ar  283  TRP283      0.0152
     99  NE1       42.7080  -10.5130   81.1320 N.ar  283  TRP283     -0.2442
    100  CE2       42.2310   -9.4680   80.3790 C.ar  283  TRP283      0.0810
    101  CE3       40.2050   -8.9110   79.1230 C.ar  283  TRP283      0.0012
    102  CZ2       42.8140   -8.2270   80.0920 C.ar  283  TRP283      0.0191
    103  CZ3       40.8040   -7.6930   78.8190 C.ar  283  TRP283      0.0001
    104  CH2       42.0980   -7.3670   79.2930 C.ar  283  TRP283      0.0015
    105  N         33.6410   -9.3400   78.9990 N.3   286  LEU286     -0.1245
    106  CA        33.4800   -8.4750   77.8160 C.3   286  LEU286      0.1561
    107  C         32.3190   -8.9330   76.9070 C.2   286  LEU286      0.2260
    108  O         32.1430  -10.1460   76.6700 O.2   286  LEU286     -0.2867
    109  CB        34.7500   -8.3620   77.0070 C.3   286  LEU286      0.0270
    110  CG        35.7890   -7.5690   77.7440 C.3   286  LEU286      0.0019
    111  CD1       37.1530   -7.6790   77.0290 C.3   286  LEU286      0.0001
    112  CD2       35.2810   -6.1820   77.8880 C.3   286  LEU286      0.0001
    113  N         37.2460   -8.6410   70.9750 N.3   290  SER290     -0.1202
    114  CA        37.6850   -7.2740   70.7000 C.3   290  SER290      0.2020
    115  C         39.1130   -7.0910   71.1170 C.2   290  SER290      0.2619
    116  O         39.7010   -8.0050   71.6760 O.2   290  SER290     -0.2717
    117  CB        36.8640   -6.2880   71.5030 C.3   290  SER290      0.2103
    118  OG        36.7700   -6.6750   72.8750 O.3   290  SER290     -0.2182
    119  N         39.6730   -5.9270   70.8210 N.am  291  ILE291     -0.1965
    120  CA        40.9530   -5.4880   71.3750 C.3   291  ILE291      0.1727
    121  C         40.7550   -4.0420   71.8210 C.2   291  ILE291      0.2616
    122  O         39.8210   -3.3640   71.3760 O.2   291  ILE291     -0.2715
    123  CB        42.1340   -5.4960   70.3570 C.3   291  ILE291      0.0290
    124  CG1       41.6080   -5.2140   68.9810 C.3   291  ILE291      0.0022
    125  CG2       42.8310   -6.8350   70.2720 C.3   291  ILE291      0.0023
    126  CD1       42.3790   -4.1480   68.3430 C.3   291  ILE291      0.0001
    127  N         41.6520   -3.5630   72.6870 N.am  292  PHE292     -0.1960
    128  CA        41.5290   -2.2320   73.2780 C.3   292  PHE292      0.1771
    129  C         40.1350   -2.0780   73.9170 C.2   292  PHE292      0.2619
    130  O         39.5360   -1.0040   73.8400 O.2   292  PHE292     -0.2715
    131  CB        41.7440   -1.1790   72.2000 C.3   292  PHE292      0.0574
    132  CG        42.6890   -0.0880   72.5870 C.ar  292  PHE292     -0.0200
    133  CD1       42.5240    0.6050   73.7970 C.ar  292  PHE292     -0.0042
    134  CD2       43.7230    0.2980   71.7110 C.ar  292  PHE292     -0.0042
    135  CE1       43.3910    1.6460   74.1570 C.ar  292  PHE292     -0.0003
    136  CE2       44.5450    1.3540   72.0420 C.ar  292  PHE292     -0.0003
    137  CZ        44.4040    2.0220   73.2720 C.ar  292  PHE292     -0.0000
    138  N         39.6220   -3.1740   74.4890 N.am  293  ARG293     -0.1963
    139  CA        38.4740   -3.0960   75.3590 C.3   293  ARG293      0.1729
    140  C         38.8710   -3.7660   76.6640 C.2   293  ARG293      0.2616
    141  O         39.4950   -4.8620   76.6360 O.2   293  ARG293     -0.2715
    142  CB        37.2160   -3.7520   74.7370 C.3   293  ARG293      0.0348
    143  CG        36.7110   -3.0740   73.5320 C.3   293  ARG293      0.0492
    144  CD        36.2730   -1.6180   73.8050 C.3   293  ARG293      0.2205
    145  NE        35.7360   -1.0080   72.5730 N.pl3 293  ARG293     -0.0865
    146  CZ        36.4260   -0.2780   71.6950 C.cat 293  ARG293      0.5346
    147  NH1       37.7440    0.0150   71.8530 N.pl3 293  ARG293      0.1354
    148  NH2       35.7870    0.1450   70.6230 N.pl3 293  ARG293      0.1354
    149  N         38.5220   -3.1110   77.7910 N.am  294  PHE294     -0.1974
    150  CA        38.8820   -3.6330   79.1370 C.3   294  PHE294      0.1639
    151  C         37.6130   -3.8260   79.9970 C.2   294  PHE294      0.2290
    152  O         36.6310   -3.1050   79.8390 O.2   294  PHE294     -0.2864
    153  CB        39.9100   -2.7140   79.7930 C.3   294  PHE294      0.0560
    154  CG        40.9030   -2.1980   78.8160 C.ar  294  PHE294     -0.0200
    155  CD1       41.8540   -3.0760   78.2260 C.ar  294  PHE294     -0.0042
    156  CD2       40.8540   -0.8810   78.3770 C.ar  294  PHE294     -0.0042
    157  CE1       42.7660   -2.6250   77.2950 C.ar  294  PHE294     -0.0003
    158  CE2       41.7740   -0.4340   77.3950 C.ar  294  PHE294     -0.0003
    159  CZ        42.7150   -1.2920   76.8730 C.ar  294  PHE294     -0.0000
    160  N         50.7580   -2.7290   68.6820 N.3   334  TYR334     -0.1227
    161  CA        50.8380   -3.7230   69.7160 C.3   334  TYR334      0.1736
    162  C         49.5700   -4.4980   69.7890 C.2   334  TYR334      0.2595
    163  O         49.5950   -5.7300   69.9920 O.2   334  TYR334     -0.2718
    164  CB        51.1090   -3.0910   71.0640 C.3   334  TYR334      0.0548
    165  CG        51.0170   -4.0670   72.2070 C.ar  334  TYR334     -0.0200
    166  CD1       51.5820   -5.3530   72.1110 C.ar  334  TYR334     -0.0009
    167  CD2       50.3950   -3.7070   73.4120 C.ar  334  TYR334     -0.0009
    168  CE1       51.4820   -6.2790   73.1840 C.ar  334  TYR334      0.0417
    169  CE2       50.3150   -4.6060   74.5050 C.ar  334  TYR334      0.0417
    170  CZ        50.8420   -5.8990   74.3780 C.ar  334  TYR334      0.1957
    171  OH        50.7720   -6.8010   75.4530 O.3   334  TYR334     -0.2866
    172  N         48.4540   -3.7880   69.6310 N.am  335  PHE335     -0.1976
    173  CA        47.1110   -4.3770   69.8130 C.3   335  PHE335      0.1639
    174  C         46.8020   -5.4220   68.7750 C.2   335  PHE335      0.2290
    175  O         46.1120   -6.3930   69.0710 O.2   335  PHE335     -0.2864
    176  CB        46.0140   -3.2890   69.9000 C.3   335  PHE335      0.0560
    177  CG        46.2810   -2.2760   70.9850 C.ar  335  PHE335     -0.0200
    178  CD1       47.1670   -1.2190   70.7630 C.ar  335  PHE335     -0.0042
    179  CD2       45.7410   -2.4540   72.2670 C.ar  335  PHE335     -0.0042
    180  CE1       47.4450   -0.3200   71.8020 C.ar  335  PHE335     -0.0003
    181  CE2       46.0240   -1.5730   73.2960 C.ar  335  PHE335     -0.0003
    182  CZ        46.8720   -0.5040   73.0800 C.ar  335  PHE335     -0.0000
    183  N         48.7340   -8.3410   69.8120 N.3   338  TYR338     -0.1241
    184  CA        48.0060   -8.8560   70.9400 C.3   338  TYR338      0.1605
    185  C         46.7700   -9.7020   70.5720 C.2   338  TYR338      0.2264
    186  O         46.6300  -10.7680   71.1000 O.2   338  TYR338     -0.2867
    187  CB        47.6710   -7.7360   71.8870 C.3   338  TYR338      0.0534
    188  CG        47.2020   -8.1460   73.2500 C.ar  338  TYR338     -0.0201
    189  CD1       45.8740   -8.6030   73.4310 C.ar  338  TYR338     -0.0009
    190  CD2       48.0570   -8.0360   74.3740 C.ar  338  TYR338     -0.0009
    191  CE1       45.3980   -8.9690   74.6850 C.ar  338  TYR338      0.0417
    192  CE2       47.6170   -8.3880   75.6470 C.ar  338  TYR338      0.0417
    193  CZ        46.2670   -8.8580   75.7950 C.ar  338  TYR338      0.1957
    194  OH        45.7490   -9.2270   77.0270 O.3   338  TYR338     -0.2866
    195  N         60.9240   -5.0320   69.3400 N.3   436  TRP436     -0.1241
    196  CA        59.7740   -5.3290   68.5070 C.3   436  TRP436      0.1605
    197  C         60.1210   -5.0820   67.0540 C.2   436  TRP436      0.2264
    198  O         60.8850   -4.1780   66.7410 O.2   436  TRP436     -0.2867
    199  CB        58.6600   -4.4170   68.9070 C.3   436  TRP436      0.0550
    200  CG        58.2100   -4.6470   70.2860 C.ar  436  TRP436      0.0003
    201  CD1       58.5710   -3.9350   71.3910 C.ar  436  TRP436      0.0946
    202  CD2       57.3180   -5.6830   70.7420 C.ar  436  TRP436      0.0152
    203  NE1       57.9340   -4.4680   72.5220 N.ar  436  TRP436     -0.2442
    204  CE2       57.1860   -5.5450   72.1410 C.ar  436  TRP436      0.0810
    205  CE3       56.6520   -6.7240   70.1060 C.ar  436  TRP436      0.0012
    206  CZ2       56.4070   -6.3860   72.8990 C.ar  436  TRP436      0.0191
    207  CZ3       55.8620   -7.5760   70.8630 C.ar  436  TRP436      0.0001
    208  CH2       55.7510   -7.4010   72.2480 C.ar  436  TRP436      0.0015
    209  N         56.0450   -2.7840   63.2650 N.3   440  MET440     -0.1245
    210  CA        55.2970   -2.0850   64.3120 C.3   440  MET440      0.1570
    211  C         55.6930   -0.6390   64.5820 C.2   440  MET440      0.2261
    212  O         54.9950    0.0060   65.3470 O.2   440  MET440     -0.2867
    213  CB        55.3010   -2.8770   65.6160 C.3   440  MET440      0.0387
    214  CG        54.7800   -4.2930   65.4740 C.3   440  MET440      0.0595
    215  SD        55.0470   -5.2870   66.9390 S.3   440  MET440     -0.1393
    216  CE        53.9810   -4.5530   68.1950 C.3   440  MET440      0.0692
    217  N         55.7990    1.7900   68.8330 N.3   443  PRO443     -0.2102
    218  CA        54.4840    1.3910   69.3960 C.3   443  PRO443      0.1504
    219  C         54.0900    2.1290   70.6410 C.2   443  PRO443      0.2576
    220  O         54.9320    2.8650   71.2540 O.2   443  PRO443     -0.2718
    221  CB        54.6620   -0.0640   69.7920 C.3   443  PRO443      0.0282
    222  CG        55.9670   -0.4630   69.2650 C.3   443  PRO443      0.0208
    223  CD        56.8030    0.7560   69.0620 C.3   443  PRO443      0.0893
    224  N         52.8060    1.9200   70.9670 N.am  444  HIS444     -0.1962
    225  CA        52.1150    2.4490   72.1540 C.3   444  HIS444      0.1787
    226  C         52.9970    2.3070   73.4130 C.2   444  HIS444      0.2621
    227  O         53.3720    1.2040   73.7370 O.2   444  HIS444     -0.2715
    228  CB        50.8240    1.6480   72.3130 C.3   444  HIS444      0.0785
    229  CG        49.9160    2.1370   73.3960 C.ar  444  HIS444      0.0821
    230  ND1       49.3140    3.3850   73.3700 N.ar  444  HIS444     -0.2267
    231  CD2       49.4310    1.5120   74.4960 C.ar  444  HIS444      0.1154
    232  CE1       48.5230    3.5170   74.4210 C.ar  444  HIS444      0.1986
    233  NE2       48.5740    2.3930   75.1180 N.ar  444  HIS444     -0.2212
    234  N         53.3220    3.4010   74.1080 N.am  445  GLY445     -0.1940
    235  CA        54.1370    3.3480   75.3370 C.3   445  GLY445      0.2014
    236  C         55.6300    3.6210   75.1470 C.2   445  GLY445      0.2638
    237  O         56.3660    3.9370   76.1080 O.2   445  GLY445     -0.2714
    238  N         56.1270    3.4880   73.9220 N.am  446  TYR446     -0.1973
    239  CA        57.5820    3.6000   73.7610 C.3   446  TYR446      0.1639
    240  C         58.1470    5.0220   73.6870 C.2   446  TYR446      0.2290
    241  O         59.2900    5.2400   73.2710 O.2   446  TYR446     -0.2864
    242  CB        58.0620    2.7150   72.6240 C.3   446  TYR446      0.0560
    243  CG        58.0560    1.2980   73.0760 C.ar  446  TYR446     -0.0198
    244  CD1       59.1700    0.7750   73.7620 C.ar  446  TYR446     -0.0009
    245  CD2       56.9300    0.4940   72.9090 C.ar  446  TYR446     -0.0009
    246  CE1       59.1750   -0.5100   74.2390 C.ar  446  TYR446      0.0417
    247  CE2       56.9330   -0.8180   73.3690 C.ar  446  TYR446      0.0417
    248  CZ        58.0710   -1.3000   74.0440 C.ar  446  TYR446      0.1957
    249  OH        58.1240   -2.5730   74.5370 O.3   446  TYR446     -0.2866
@<TRIPOS>BOND
     1   209   210    1
     2   210   211    1
     3   210   213    1
     4   211   212    2
     5   214   213    1
     6   214   215    1
     7   198   197    2
     8   215   216    1
     9   197   196    1
    10   126   124    1
    11   196   199    1
    12   196   195    1
    13   160   161    1
    14   174   175    2
    15   174   173    1
    16   217   223    1
    17   217   218    1
    18   199   200    1
    19   124   123    1
    20   223   222    1
    21   222   221    1
    22   218   221    1
    23   218   219    1
    24   172   162   am
    25   172   173    1
    26   161   162    1
    27   161   164    1
    28   162   163    2
    29   183   184    1
    30   173   176    1
    31   176   177    1
    32   205   202   ar
    33   205   207   ar
    34   125   123    1
    35   200   202   ar
    36   200   201   ar
    37   123   120    1
    38   185   184    1
    39   185   186    2
    40   148   146    1
    41   219   224   am
    42   219   220    2
    43   114   113    1
    44   114   115    1
    45   114   117    1
    46   202   204   ar
    47   178   177   ar
    48   178   180   ar
    49   119   115   am
    50   119   120    1
    51   207   208   ar
    52   184   187    1
    53   224   225    1
    54   177   179   ar
    55   164   165    1
    56   115   116    2
    57   120   121    1
    58   122   121    2
    59   201   203   ar
    60   117   118    1
    61   146   147    1
    62   146   145    2
    63   134   136   ar
    64   134   132   ar
    65   180   182   ar
    66   121   127   am
    67   187   188    1
    68   136   137   ar
    69   166   165   ar
    70   166   168   ar
    71   204   203   ar
    72   204   206   ar
    73   225   228    1
    74   225   226    1
    75   131   132    1
    76   131   128    1
    77   165   167   ar
    78   208   206   ar
    79   179   181   ar
    80   228   229    1
    81   145   144    1
    82   132   133   ar
    83   242   243    1
    84   242   239    1
    85   127   128    1
    86   245   243   ar
    87   245   247   ar
    88   243   244   ar
    89   182   181   ar
    90   168   170   ar
    91   188   189   ar
    92   188   190   ar
    93   241   240    2
    94   137   135   ar
    95   128   129    1
    96   247   248   ar
    97   230   229   ar
    98   230   232   ar
    99   229   231   ar
   100   167   169   ar
   101   226   227    2
   102   226   234   am
   103   189   191   ar
   104   143   144    1
   105   143   142    1
   106   240   239    1
   107   239   238    1
   108   244   246   ar
   109   133   135   ar
   110   130   129    2
   111   129   138   am
   112   238   236   am
   113   248   246   ar
   114   248   249    1
   115   234   235    1
   116   190   192   ar
   117   170   169   ar
   118   170   171    1
   119   232   233   ar
   120   138   139    1
   121   231   233   ar
   122   191   193   ar
   123   142   139    1
   124   236   235    1
   125   236   237    2
   126   139   140    1
   127    15    13    1
   128   192   193   ar
   129   193   194    1
   130     9    10    1
   131    14    13    1
   132    84    82   ar
   133   141   140    2
   134    13    10    1
   135   140   149   am
   136   108   107    2
   137    10    11    1
   138   159   157   ar
   139   159   158   ar
   140   107   106    1
   141   109   110    1
   142   109   106    1
   143   111   110    1
   144    24    25   ar
   145    24    22   ar
   146   157   155   ar
   147    27    25   ar
   148    27    29   ar
   149   158   156   ar
   150    90    89    1
   151   110   112    1
   152    25    23   ar
   153    82    81    1
   154    82    83   ar
   155   149   150    1
   156   106   105    1
   157    81    80    1
   158    22    21   ar
   159    86    85    1
   160    86    89    1
   161    86    87    1
   162   155   154   ar
   163    29    28   ar
   164    11    12    2
   165    85    78   am
   166   156   154   ar
   167     7     6   ar
   168   154   153    1
   169   103   101   ar
   170   103   104   ar
   171    23    21   ar
   172    23    26   ar
   173     6     8   ar
   174     6     5    1
   175    21    20    1
   176    94    93    2
   177    53    52    1
   178   101    98   ar
   179   150   153    1
   180   150   151    1
   181    87    88    2
   182   104   102   ar
   183    80    77    1
   184     5     2    1
   185    28    26   ar
   186    78    77    1
   187    78    79    2
   188    77    76    1
   189   152   151    2
   190    98   100   ar
   191    98    96   ar
   192     3     2    1
   193     3     4    2
   194   102   100   ar
   195    51    52   ar
   196    51    49   ar
   197    95    96    1
   198    95    92    1
   199    52    50   ar
   200    93    92    1
   201    20    17    1
   202     2     1    1
   203   100    99   ar
   204    96    97   ar
   205    39    38    1
   206    39    40    1
   207    38    36   am
   208    92    91    1
   209    16    17    1
   210    99    97   ar
   211    49    47   ar
   212    50    48   ar
   213    17    18    1
   214    36    35    1
   215    36    37    2
   216    34    35    1
   217    34    32   am
   218    41    40    2
   219    32    31    1
   220    32    33    2
   221    31    30    1
   222    47    48   ar
   223    47    46    1
   224    75    74    1
   225    18    19    2
   226    72    74   ar
   227    72    70   ar
   228    59    58    1
   229    74    73   ar
   230    46    43    1
   231    70    69   ar
   232    58    55    1
   233    42    43    1
   234    43    44    1
   235    64    65    1
   236    73    71   ar
   237    54    44   am
   238    54    55    1
   239    57    56    2
   240    44    45    2
   241    69    71   ar
   242    69    68    1
   243    55    56    1
   244    56    60   am
   245    65    68    1
   246    65    66    1
   247    60    61    1
   248    61    62    1
   249    66    67    2
   250    62    63    2
