@<TRIPOS>MOLECULE
tmp/4a1fA00.pdb
 105 101 0 0 0
SMALL
GASTEIGER

@<TRIPOS>ATOM
      1  N        -29.2550    6.8440   -7.7070 N.3    54  ARG54      -0.1231
      2  CA       -28.0000    6.1650   -7.4400 C.3    54  ARG54       0.1679
      3  C        -27.1470    7.1290   -6.6270 C.2    54  ARG54       0.2434
      4  O        -27.4510    8.3220   -6.5700 O.2    54  ARG54      -0.2733
      5  CB       -27.2950    5.8500   -8.7550 C.3    54  ARG54       0.0321
      6  CG       -27.9760    4.7810   -9.5790 C.3    54  ARG54       0.0489
      7  CD       -27.7540    3.4160   -8.9620 C.3    54  ARG54       0.2205
      8  NE       -26.3360    3.0740   -8.9560 N.pl3  54  ARG54      -0.0865
      9  CZ       -25.7130    2.4880   -7.9400 C.cat  54  ARG54       0.5346
     10  NH1      -26.3890    2.1770   -6.8410 N.pl3  54  ARG54       0.1354
     11  NH2      -24.4180    2.2100   -8.0240 N.pl3  54  ARG54       0.1354
     12  N        -26.0890    6.6230   -5.9770 N.am   55  PRO55      -0.2718
     13  CA       -25.1220    7.5480   -5.3650 C.3    55  PRO55       0.1535
     14  C        -24.5360    8.4950   -6.4130 C.2    55  PRO55       0.2599
     15  O        -24.6060    8.1940   -7.6090 O.2    55  PRO55      -0.2715
     16  CB       -24.0330    6.6130   -4.8270 C.3    55  PRO55       0.0310
     17  CG       -24.7330    5.3040   -4.5920 C.3    55  PRO55       0.0237
     18  CD       -25.8120    5.2120   -5.6480 C.3    55  PRO55       0.0939
     19  N        -23.9820    9.6210   -5.9680 N.am   56  SER56      -0.1936
     20  CA       -23.3740   10.6250   -6.8570 C.3    56  SER56       0.2055
     21  C        -24.3670   11.5700   -7.5370 C.2    56  SER56       0.2643
     22  O        -23.9660   12.4380   -8.3120 O.2    56  SER56      -0.2714
     23  CB       -22.4900    9.9710   -7.9250 C.3    56  SER56       0.2130
     24  OG       -21.4550    9.2070   -7.3400 O.3    56  SER56      -0.2179
     25  N        -25.6530   11.4080   -7.2530 N.am   57  MET57      -0.1962
     26  CA       -26.6620   12.2560   -7.8740 C.3    57  MET57       0.1736
     27  C        -27.0550   13.4330   -6.9790 C.2    57  MET57       0.2617
     28  O        -27.8730   14.2650   -7.3580 O.2    57  MET57      -0.2715
     29  CB       -27.8800   11.4210   -8.2770 C.3    57  MET57       0.0427
     30  CG       -27.5220   10.2240   -9.1580 C.3    57  MET57       0.0599
     31  SD       -26.7210   10.7110  -10.7030 S.3    57  MET57      -0.1393
     32  CE       -25.9760    9.1690  -11.2100 C.3    57  MET57       0.0692
     33  N        -26.4530   13.5030   -5.7970 N.am   58  GLY58      -0.1940
     34  CA       -26.6950   14.5960   -4.8700 C.3    58  GLY58       0.2014
     35  C        -28.0540   14.5560   -4.1940 C.2    58  GLY58       0.2639
     36  O        -28.6120   15.5980   -3.8600 O.2    58  GLY58      -0.2714
     37  N        -28.5870   13.3570   -3.9760 N.am   59  LYS59      -0.1963
     38  CA       -29.9370   13.2270   -3.4300 C.3    59  LYS59       0.1728
     39  C        -30.1140   13.9060   -2.0700 C.2    59  LYS59       0.2617
     40  O        -31.1310   14.5560   -1.8280 O.2    59  LYS59      -0.2715
     41  CB       -30.3880   11.7620   -3.3700 C.3    59  LYS59       0.0311
     42  CG       -29.5190   10.8530   -2.5230 C.3    59  LYS59       0.0038
     43  CD       -30.2150    9.5220   -2.2980 C.3    59  LYS59       0.0206
     44  CE       -29.2220    8.3890   -2.1220 C.3    59  LYS59       0.1093
     45  NZ       -28.3090    8.5970   -0.9650 N.3    59  LYS59      -0.1314
     46  N        -29.1260   13.7670   -1.1910 N.am   60  THR60      -0.1937
     47  CA       -29.2170   14.3590    0.1430 C.3    60  THR60       0.2028
     48  C        -29.2730   15.8810    0.0990 C.2    60  THR60       0.2642
     49  O        -30.0020   16.5100    0.8680 O.2    60  THR60      -0.2714
     50  CB       -28.0610   13.9200    1.0520 C.3    60  THR60       0.1808
     51  OG1      -28.2300   12.5390    1.3930 O.3    60  THR60      -0.2208
     52  CG2      -28.0460   14.7560    2.3250 C.3    60  THR60       0.0379
     53  N        -28.5090   16.4680   -0.8150 N.am   61  SER61      -0.1949
     54  CA       -28.4620   17.9190   -0.9550 C.3    61  SER61       0.1924
     55  C        -29.7490   18.4590   -1.5660 C.2    61  SER61       0.2314
     56  O        -30.2590   19.4970   -1.1490 O.2    61  SER61      -0.2863
     57  CB       -27.2490   18.3340   -1.7850 C.3    61  SER61       0.2116
     58  OG       -26.0520   18.0930   -1.0630 O.3    61  SER61      -0.2180
     59  N        -26.6710    9.2620    8.3420 N.3    84  MET84      -0.1245
     60  CA       -25.9410   10.5250    8.4100 C.3    84  MET84       0.1570
     61  C        -26.3530   11.3400    9.6290 C.2    84  MET84       0.2261
     62  O        -27.5170   11.3270   10.0300 O.2    84  MET84      -0.2867
     63  CB       -26.1710   11.3350    7.1290 C.3    84  MET84       0.0387
     64  CG       -25.3430   12.6000    7.0140 C.3    84  MET84       0.0595
     65  SD       -25.4050   13.2960    5.3500 S.3    84  MET84      -0.1393
     66  CE       -24.1500   12.3040    4.5460 C.3    84  MET84       0.0692
     67  N        -25.1010   21.1490    5.2010 N.3    92  ARG92      -0.1245
     68  CA       -25.5620   21.2270    3.8220 C.3    92  ARG92       0.1563
     69  C        -26.5790   22.3600    3.6500 C.2    92  ARG92       0.2260
     70  O        -26.5400   23.0950    2.6620 O.2    92  ARG92      -0.2867
     71  CB       -26.1540   19.8870    3.3740 C.3    92  ARG92       0.0307
     72  CG       -25.1120   18.8750    2.9250 C.3    92  ARG92       0.0489
     73  CD       -25.7010   17.4720    2.8610 C.3    92  ARG92       0.2205
     74  NE       -24.7350   16.4750    2.4070 N.pl3  92  ARG92      -0.0865
     75  CZ       -23.7660   15.9720    3.1670 C.cat  92  ARG92       0.5346
     76  NH1      -23.6190   16.3830    4.4230 N.pl3  92  ARG92       0.1354
     77  NH2      -22.9390   15.0620    2.6710 N.pl3  92  ARG92       0.1354
     78  N        -31.9300    7.5930    3.9680 N.3   164  TYR164     -0.1241
     79  CA       -32.6710    7.1600    2.7870 C.3   164  TYR164      0.1605
     80  C        -33.0060    5.6890    2.9750 C.2   164  TYR164      0.2264
     81  O        -32.4940    5.0480    3.8890 O.2   164  TYR164     -0.2867
     82  CB       -31.8100    7.3080    1.5320 C.3   164  TYR164      0.0534
     83  CG       -30.4290    6.7180    1.6990 C.ar  164  TYR164     -0.0201
     84  CD1      -30.1920    5.3650    1.4790 C.ar  164  TYR164     -0.0009
     85  CD2      -29.3640    7.5110    2.1050 C.ar  164  TYR164     -0.0009
     86  CE1      -28.9300    4.8240    1.6500 C.ar  164  TYR164      0.0417
     87  CE2      -28.1000    6.9780    2.2780 C.ar  164  TYR164      0.0417
     88  CZ       -27.8880    5.6390    2.0500 C.ar  164  TYR164      0.1957
     89  OH       -26.6240    5.1190    2.2200 O.3   164  TYR164     -0.2866
     90  N        -32.1800    4.9020   -2.2790 N.3   204  GLN204     -0.1245
     91  CA       -30.9410    4.7160   -3.0060 C.3   204  GLN204      0.1566
     92  C        -31.0710    3.4980   -3.9060 C.2   204  GLN204      0.2260
     93  O        -31.1240    2.3600   -3.4360 O.2   204  GLN204     -0.2867
     94  CB       -29.7480    4.5730   -2.0590 C.3   204  GLN204      0.0367
     95  CG       -28.4080    4.6820   -2.7690 C.3   204  GLN204      0.0905
     96  CD       -27.2300    4.7460   -1.8200 C.2   204  GLN204      0.2608
     97  OE1      -26.5670    3.7380   -1.5710 O.2   204  GLN204     -0.2717
     98  NE2      -26.9520    5.9350   -1.2940 N.am  204  GLN204     -0.0878
     99  N        -23.2030   21.1030   -5.1800 N.3   312  THR312     -0.1218
    100  CA       -24.1220   19.9690   -5.2160 C.3   312  THR312      0.1862
    101  C        -25.5600   20.4950   -5.2020 C.2   312  THR312      0.2287
    102  O        -26.3370   20.2060   -4.2790 O.2   312  THR312     -0.2866
    103  CB       -23.8590   19.0020   -4.0190 C.3   312  THR312      0.1770
    104  OG1      -22.4430   18.8230   -3.8590 O.3   312  THR312     -0.2211
    105  CG2      -24.5080   17.6560   -4.2640 C.3   312  THR312      0.0375
@<TRIPOS>BOND
     1    32    31    1
     2    31    30    1
     3     6     7    1
     4     6     5    1
     5    30    29    1
     6     7     8    1
     7     8     9    2
     8     5     2    1
     9    22    21    2
    10    29    26    1
    11    11     9    1
    12     9    10    1
    13    23    24    1
    14    23    20    1
    15    26    25    1
    16    26    27    1
    17     1     2    1
    18    15    14    2
    19    21    25   am
    20    21    20    1
    21     2     3    1
    22    28    27    2
    23    27    33   am
    24    20    19    1
    25     3     4    2
    26     3    12   am
    27    14    19   am
    28    14    13    1
    29    12    18    1
    30    12    13    1
    31    33    34    1
    32    18    17    1
    33    13    16    1
    34   100   101    1
    35   100    99    1
    36   100   103    1
    37   101   102    2
    38    34    35    1
    39    16    17    1
    40   105   103    1
    41    35    37   am
    42    35    36    2
    43   103   104    1
    44    37    38    1
    45    92    93    2
    46    92    91    1
    47    38    41    1
    48    38    39    1
    49    41    42    1
    50    91    90    1
    51    91    94    1
    52    95    94    1
    53    95    96    1
    54    42    43    1
    55    43    44    1
    56    44    45    1
    57    39    40    2
    58    39    46   am
    59    96    97    2
    60    96    98   am
    61    57    58    1
    62    57    54    1
    63    55    56    2
    64    55    54    1
    65    46    47    1
    66    54    53    1
    67    53    48   am
    68    48    47    1
    69    48    49    2
    70    47    50    1
    71    50    51    1
    72    50    52    1
    73    84    86   ar
    74    84    83   ar
    75    82    83    1
    76    82    79    1
    77    86    88   ar
    78    83    85   ar
    79    88    89    1
    80    88    87   ar
    81    85    87   ar
    82    74    73    1
    83    74    75    2
    84    70    69    2
    85    77    75    1
    86    79    80    1
    87    79    78    1
    88    73    72    1
    89    72    71    1
    90    80    81    2
    91    75    76    1
    92    71    68    1
    93    69    68    1
    94    68    67    1
    95    66    65    1
    96    65    64    1
    97    64    63    1
    98    63    60    1
    99    59    60    1
   100    60    61    1
   101    61    62    2
