@<TRIPOS>MOLECULE
tmp/4a1gA00.pdb
 137 133 0 0 0
SMALL
GASTEIGER

@<TRIPOS>ATOM
      1  N         -8.9300  -49.3630  -11.2880 N.3    45  ILE45      -0.1245
      2  CA        -9.8250  -48.5840  -10.4410 C.3    45  ILE45       0.1561
      3  C         -9.7050  -48.9440   -8.9750 C.2    45  ILE45       0.2260
      4  O         -9.6800  -48.0680   -8.1020 O.2    45  ILE45      -0.2867
      5  CB       -11.2790  -48.7720  -10.8360 C.3    45  ILE45       0.0252
      6  CG1      -11.5270  -48.1870  -12.2200 C.3    45  ILE45       0.0019
      7  CG2      -12.1920  -48.1050   -9.8240 C.3    45  ILE45       0.0019
      8  CD1      -12.9730  -47.8950  -12.4770 C.3    45  ILE45       0.0001
      9  N         -8.2620  -46.3690   -6.2330 N.3    49  GLU49      -0.1245
     10  CA        -9.0270  -46.0000   -5.0380 C.3    49  GLU49       0.1567
     11  C         -8.2560  -46.2220   -3.7390 C.2    49  GLU49       0.2260
     12  O         -8.2950  -45.3820   -2.8310 O.2    49  GLU49      -0.2867
     13  CB       -10.3260  -46.7720   -4.9750 C.3    49  GLU49       0.0388
     14  CG       -11.2940  -46.4480   -6.0770 C.3    49  GLU49       0.1160
     15  CD       -12.6470  -47.0360   -5.7860 C.2    49  GLU49       0.3649
     16  OE1      -12.7070  -47.8950   -4.8770 O.co2  49  GLU49      -0.2457
     17  OE2      -13.6360  -46.6410   -6.4420 O.co2  49  GLU49      -0.2457
     18  N         -5.3750  -43.6650   -3.1270 N.3    52  MET52      -0.1230
     19  CA        -5.8940  -42.4430   -2.5220 C.3    52  MET52       0.1702
     20  C         -6.0660  -42.5740   -1.0390 C.2    52  MET52       0.2592
     21  O         -5.5230  -41.7870   -0.2690 O.2    52  MET52      -0.2718
     22  CB        -7.2710  -42.1510   -3.0720 C.3    52  MET52       0.0401
     23  CG        -7.2850  -41.9450   -4.5420 C.3    52  MET52       0.0596
     24  SD        -7.4120  -40.2240   -4.9990 S.3    52  MET52      -0.1393
     25  CE        -6.8870  -40.4250   -6.7000 C.3    52  MET52       0.0692
     26  N         -6.8720  -43.5560   -0.6510 N.am   53  LYS53      -0.1980
     27  CA        -7.1550  -43.8030    0.7510 C.3    53  LYS53       0.1596
     28  C         -5.8570  -43.9850    1.5030 C.2    53  LYS53       0.2287
     29  O         -5.6870  -43.4550    2.5990 O.2    53  LYS53      -0.2864
     30  CB        -8.0600  -45.0220    0.9120 C.3    53  LYS53       0.0298
     31  CG        -8.4880  -45.2770    2.3380 C.3    53  LYS53       0.0038
     32  CD        -9.6380  -46.2630    2.4070 C.3    53  LYS53       0.0206
     33  CE        -9.6160  -47.0190    3.7280 C.3    53  LYS53       0.1093
     34  NZ        -8.3120  -47.7340    3.9520 N.3    53  LYS53      -0.1314
     35  N         -3.9660  -40.3670    1.2770 N.3    56  LEU56      -0.1245
     36  CA        -4.7380  -39.2280    1.7650 C.3    56  LEU56       0.1561
     37  C         -4.0430  -38.4520    2.8880 C.2    56  LEU56       0.2260
     38  O         -4.0630  -37.2130    2.9110 O.2    56  LEU56      -0.2867
     39  CB        -6.1200  -39.6840    2.2560 C.3    56  LEU56       0.0270
     40  CG        -7.1100  -38.5800    2.6600 C.3    56  LEU56       0.0019
     41  CD1       -7.1300  -37.4660    1.6310 C.3    56  LEU56       0.0001
     42  CD2       -8.5090  -39.1210    2.8620 C.3    56  LEU56       0.0001
     43  N         -6.9430  -41.4170  -12.3320 N.3    74  PHE74      -0.1241
     44  CA        -8.1670  -41.8510  -11.6600 C.3    74  PHE74       0.1605
     45  C         -9.3480  -40.9410  -11.9370 C.2    74  PHE74       0.2264
     46  O        -10.4990  -41.3700  -11.8890 O.2    74  PHE74      -0.2867
     47  CB        -7.9180  -41.9120  -10.1570 C.3    74  PHE74       0.0534
     48  CG        -9.1160  -42.3120   -9.3440 C.ar   74  PHE74      -0.0203
     49  CD1       -9.7780  -43.5020   -9.5890 C.ar   74  PHE74      -0.0042
     50  CD2       -9.5480  -41.5210   -8.2870 C.ar   74  PHE74      -0.0042
     51  CE1      -10.8690  -43.8820   -8.8120 C.ar   74  PHE74      -0.0003
     52  CE2      -10.6410  -41.9020   -7.5050 C.ar   74  PHE74      -0.0003
     53  CZ       -11.2960  -43.0790   -7.7710 C.ar   74  PHE74      -0.0000
     54  N        -10.2870  -39.8840  -14.6450 N.3    76  GLU76      -0.1231
     55  CA       -10.9590  -40.4420  -15.8170 C.3    76  GLU76       0.1699
     56  C        -12.0940  -41.4200  -15.4580 C.2    76  GLU76       0.2592
     57  O        -13.0630  -41.5750  -16.2050 O.2    76  GLU76      -0.2718
     58  CB        -9.9440  -41.1200  -16.7250 C.3    76  GLU76       0.0402
     59  CG       -10.5470  -42.1060  -17.7010 C.3    76  GLU76       0.1161
     60  CD        -9.4860  -42.8000  -18.5410 C.2    76  GLU76       0.3649
     61  OE1       -8.2990  -42.3780  -18.4570 O.co2  76  GLU76      -0.2457
     62  OE2       -9.8390  -43.7610  -19.2750 O.co2  76  GLU76      -0.2457
     63  N        -11.9940  -42.0620  -14.3040 N.am   77  TYR77      -0.1962
     64  CA       -13.0210  -43.0150  -13.9120 C.3    77  TYR77       0.1771
     65  C        -14.0520  -42.4100  -12.9620 C.2    77  TYR77       0.2620
     66  O        -14.9360  -43.1030  -12.4840 O.2    77  TYR77      -0.2715
     67  CB       -12.3690  -44.2560  -13.3190 C.3    77  TYR77       0.0574
     68  CG       -11.2920  -44.7910  -14.2200 C.ar   77  TYR77      -0.0198
     69  CD1      -11.6130  -45.4380  -15.4020 C.ar   77  TYR77      -0.0009
     70  CD2       -9.9530  -44.6180  -13.9140 C.ar   77  TYR77      -0.0009
     71  CE1      -10.6410  -45.9190  -16.2420 C.ar   77  TYR77       0.0417
     72  CE2       -8.9660  -45.0940  -14.7560 C.ar   77  TYR77       0.0417
     73  CZ        -9.3190  -45.7460  -15.9210 C.ar   77  TYR77       0.1957
     74  OH        -8.3450  -46.2300  -16.7690 O.3    77  TYR77      -0.2866
     75  N        -13.9480  -41.1120  -12.7060 N.am   78  ASN78      -0.1958
     76  CA       -14.8580  -40.4470  -11.7750 C.3    78  ASN78       0.1819
     77  C        -16.1110  -39.9470  -12.4710 C.2    78  ASN78       0.2622
     78  O        -16.0510  -39.5150  -13.6130 O.2    78  ASN78      -0.2715
     79  CB       -14.1500  -39.2890  -11.0550 C.3    78  ASN78       0.1195
     80  CG       -13.4230  -39.7370   -9.8010 C.2    78  ASN78       0.2630
     81  OD1      -13.9390  -39.5910   -8.6950 O.2    78  ASN78      -0.2716
     82  ND2      -12.2310  -40.2980   -9.9660 N.am   78  ASN78      -0.0877
     83  N        -17.2470  -40.0040  -11.7860 N.am   79  SER79      -0.1936
     84  CA       -18.4990  -39.5040  -12.3540 C.3    79  SER79       0.2055
     85  C        -18.5910  -37.9780  -12.3570 C.2    79  SER79       0.2643
     86  O        -19.1810  -37.3960  -13.2610 O.2    79  SER79      -0.2714
     87  CB       -19.6900  -40.0640  -11.5840 C.3    79  SER79       0.2130
     88  OG       -19.6590  -39.6620  -10.2220 O.3    79  SER79      -0.2179
     89  N        -18.0110  -37.3350  -11.3440 N.am   80  ASP80      -0.1971
     90  CA       -18.2000  -35.9010  -11.1160 C.3    80  ASP80       0.1709
     91  C        -16.8790  -35.1470  -11.0080 C.2    80  ASP80       0.2293
     92  O        -16.3540  -34.9460   -9.9180 O.2    80  ASP80      -0.2864
     93  CB       -19.0130  -35.6910   -9.8420 C.3    80  ASP80       0.1436
     94  CG       -19.2190  -34.2300   -9.5100 C.2    80  ASP80       0.3671
     95  OD1      -18.6080  -33.3730  -10.1810 O.co2  80  ASP80      -0.2456
     96  OD2      -19.9920  -33.9350   -8.5660 O.co2  80  ASP80      -0.2456
     97  N        -16.4930  -32.0690   -8.5450 N.3    83  GLN83      -0.1231
     98  CA       -16.3320  -32.4550   -7.1650 C.3    83  GLN83       0.1698
     99  C        -14.9440  -33.0300   -6.9550 C.2    83  GLN83       0.2592
    100  O        -14.2660  -32.6970   -5.9870 O.2    83  GLN83      -0.2718
    101  CB       -17.4000  -33.4730   -6.7850 C.3    83  GLN83       0.0381
    102  CG       -17.4240  -33.8040   -5.3170 C.3    83  GLN83       0.0905
    103  CD       -18.4930  -34.8040   -4.9810 C.2    83  GLN83       0.2608
    104  OE1      -18.5010  -35.3740   -3.8890 O.2    83  GLN83      -0.2717
    105  NE2      -19.4120  -35.0290   -5.9240 N.am   83  GLN83      -0.0878
    106  N        -14.5130  -33.8870   -7.8730 N.am   84  PHE84      -0.1976
    107  CA       -13.2440  -34.5740   -7.7000 C.3    84  PHE84       0.1639
    108  C        -12.0950  -33.5860   -7.6240 C.2    84  PHE84       0.2290
    109  O        -11.3410  -33.6060   -6.6630 O.2    84  PHE84      -0.2864
    110  CB       -13.0010  -35.6080   -8.8000 C.3    84  PHE84       0.0560
    111  CG       -11.7800  -36.4490   -8.5680 C.ar   84  PHE84      -0.0200
    112  CD1      -11.7120  -37.3100   -7.4910 C.ar   84  PHE84      -0.0042
    113  CD2      -10.6890  -36.3680   -9.4120 C.ar   84  PHE84      -0.0042
    114  CE1      -10.5880  -38.0710   -7.2700 C.ar   84  PHE84      -0.0003
    115  CE2       -9.5600  -37.1300   -9.1900 C.ar   84  PHE84      -0.0003
    116  CZ        -9.5110  -37.9760   -8.1200 C.ar   84  PHE84      -0.0000
    117  N        -12.1210  -31.4990   -4.5240 N.3    87  PHE87      -0.1241
    118  CA       -11.6080  -32.3440   -3.4560 C.3    87  PHE87       0.1605
    119  C        -10.0820  -32.3940   -3.4220 C.2    87  PHE87       0.2264
    120  O         -9.4680  -32.1920   -2.3710 O.2    87  PHE87      -0.2867
    121  CB       -12.1520  -33.7700   -3.5580 C.3    87  PHE87       0.0534
    122  CG       -11.6820  -34.6600   -2.4390 C.ar   87  PHE87      -0.0203
    123  CD1      -10.3940  -35.1750   -2.4370 C.ar   87  PHE87      -0.0042
    124  CD2      -12.5080  -34.9430   -1.3640 C.ar   87  PHE87      -0.0042
    125  CE1       -9.9490  -35.9730   -1.3920 C.ar   87  PHE87      -0.0003
    126  CE2      -12.0630  -35.7480   -0.3270 C.ar   87  PHE87      -0.0003
    127  CZ       -10.7850  -36.2590   -0.3430 C.ar   87  PHE87      -0.0000
    128  N         -7.6570  -30.4720   -0.3640 N.3    91  HIS91      -0.1241
    129  CA        -6.8730  -31.3220    0.5240 C.3    91  HIS91       0.1621
    130  C         -5.3830  -31.1740    0.2220 C.2    91  HIS91       0.2264
    131  O         -4.5700  -31.9450    0.7000 O.2    91  HIS91      -0.2867
    132  CB        -7.3130  -32.7830    0.4110 C.3    91  HIS91       0.0745
    133  CG        -8.6750  -33.0400    0.9770 C.ar   91  HIS91       0.0817
    134  ND1       -9.8340  -32.6710    0.3250 N.ar   91  HIS91      -0.2268
    135  CD2       -9.0650  -33.6130    2.1400 C.ar   91  HIS91       0.1154
    136  CE1      -10.8810  -33.0060    1.0610 C.ar   91  HIS91       0.1986
    137  NE2      -10.4410  -33.5780    2.1670 N.ar   91  HIS91      -0.2212
@<TRIPOS>BOND
     1    62    60   ar
     2    60    61   ar
     3    60    59    1
     4    59    58    1
     5    74    73    1
     6    58    55    1
     7    71    73   ar
     8    71    69   ar
     9    57    56    2
    10    73    72   ar
    11    55    56    1
    12    55    54    1
    13    56    63   am
    14    69    68   ar
    15    72    70   ar
    16    63    64    1
    17    68    70   ar
    18    68    67    1
    19    64    67    1
    20    64    65    1
    21    78    77    2
    22    86    85    2
    23    65    75   am
    24    65    66    2
    25    75    76    1
    26     8     6    1
    27    77    83   am
    28    77    76    1
    29    85    84    1
    30    85    89   am
    31    84    83    1
    32    84    87    1
    33    43    44    1
    34     6     5    1
    35    45    46    2
    36    45    44    1
    37    76    79    1
    38    44    47    1
    39    87    88    1
    40    89    90    1
    41     1     2    1
    42    90    91    1
    43    90    93    1
    44    79    80    1
    45    91    92    2
    46     5     2    1
    47     5     7    1
    48     2     3    1
    49    95    94   ar
    50    47    48    1
    51    82    80   am
    52    93    94    1
    53    80    81    2
    54    49    48   ar
    55    49    51   ar
    56    94    96   ar
    57   113   115   ar
    58   113   111   ar
    59    48    50   ar
    60   115   116   ar
    61     3     4    2
    62    51    53   ar
    63   110   111    1
    64   110   107    1
    65   111   112   ar
    66    97    98    1
    67    50    52   ar
    68   116   114   ar
    69   106   107    1
    70   106    99   am
    71    53    52   ar
    72   107   108    1
    73   108   109    2
    74   112   114   ar
    75    98    99    1
    76    98   101    1
    77    99   100    2
    78   101   102    1
    79    25    24    1
    80    17    15   ar
    81     9    10    1
    82    14    15    1
    83    14    13    1
    84   105   103   am
    85    15    16   ar
    86   102   103    1
    87    10    13    1
    88    10    11    1
    89    24    23    1
    90   103   104    2
    91    23    22    1
    92   117   118    1
    93    11    12    2
    94   121   118    1
    95   121   122    1
    96   118   119    1
    97   119   120    2
    98    18    19    1
    99    22    19    1
   100    19    20    1
   101   122   123   ar
   102   122   124   ar
   103   123   125   ar
   104   125   127   ar
   105   124   126   ar
   106    20    26   am
   107    20    21    2
   108    26    27    1
   109   128   129    1
   110   127   126   ar
   111   130   129    1
   112   130   131    2
   113   134   133   ar
   114   134   136   ar
   115   132   129    1
   116   132   133    1
   117    27    30    1
   118    27    28    1
   119    30    31    1
   120   133   135   ar
   121   136   137   ar
   122    35    36    1
   123    28    29    2
   124    41    40    1
   125    36    39    1
   126    36    37    1
   127   135   137   ar
   128    39    40    1
   129    31    32    1
   130    32    33    1
   131    40    42    1
   132    37    38    2
   133    33    34    1
