@<TRIPOS>MOLECULE
tmp/4a1oB01.pdb
 123 117 0 0 0
SMALL
GASTEIGER

@<TRIPOS>ATOM
      1  N         53.3880   94.4850   28.5590 N.3   218  ARG218     -0.1231
      2  CA        53.5860   94.3350   30.0060 C.3   218  ARG218      0.1694
      3  C         55.0740   94.5220   30.3820 C.2   218  ARG218      0.2592
      4  O         55.4030   95.2240   31.3490 O.2   218  ARG218     -0.2718
      5  CB        53.0750   92.9550   30.4560 C.3   218  ARG218      0.0321
      6  CG        52.6150   92.9040   31.9170 C.3   218  ARG218      0.0489
      7  CD        51.7040   91.7100   32.1560 C.3   218  ARG218      0.2205
      8  NE        52.4800   90.4780   32.3450 N.pl3 218  ARG218     -0.0865
      9  CZ        52.3840   89.3970   31.5800 C.cat 218  ARG218      0.5346
     10  NH1       51.5170   89.3580   30.5760 N.pl3 218  ARG218      0.1354
     11  NH2       53.1310   88.3310   31.8320 N.pl3 218  ARG218      0.1354
     12  N         55.9520   93.9030   29.5820 N.am  219  TYR219     -0.1962
     13  CA        57.4240   93.9750   29.5970 C.3   219  TYR219      0.1771
     14  C         57.9180   93.1460   28.4260 C.2   219  TYR219      0.2620
     15  O         57.0990   92.5410   27.7230 O.2   219  TYR219     -0.2715
     16  CB        58.0610   93.5240   30.9420 C.3   219  TYR219      0.0574
     17  CG        57.4430   92.2960   31.5860 C.ar  219  TYR219     -0.0198
     18  CD1       57.5650   91.0350   31.0000 C.ar  219  TYR219     -0.0009
     19  CD2       56.7990   92.3790   32.8170 C.ar  219  TYR219     -0.0009
     20  CE1       57.0480   89.8930   31.6170 C.ar  219  TYR219      0.0417
     21  CE2       56.2670   91.2430   33.4360 C.ar  219  TYR219      0.0417
     22  CZ        56.3870   90.0050   32.8280 C.ar  219  TYR219      0.1957
     23  OH        55.8420   88.8900   33.4240 O.3   219  TYR219     -0.2866
     24  N         59.2350   93.1250   28.2410 N.am  220  GLY220     -0.1940
     25  CA        59.9160   92.3560   27.2070 C.3   220  GLY220      0.2014
     26  C         60.0600   90.8980   27.5980 C.2   220  GLY220      0.2638
     27  O         59.2640   90.3670   28.3750 O.2   220  GLY220     -0.2714
     28  N         61.0810   90.2420   27.0680 N.am  221  GLU221     -0.1977
     29  CA        61.3520   88.8240   27.3240 C.3   221  GLU221      0.1602
     30  C         61.4960   88.5460   28.8320 C.2   221  GLU221      0.2287
     31  O         61.1890   87.4440   29.2860 O.2   221  GLU221     -0.2864
     32  CB        62.6110   88.4120   26.5690 C.3   221  GLU221      0.0415
     33  CG        62.5230   87.0180   26.0230 C.3   221  GLU221      0.1163
     34  CD        63.3620   86.7340   24.8020 C.2   221  GLU221      0.3649
     35  OE1       64.2400   87.5570   24.4420 O.co2 221  GLU221     -0.2457
     36  OE2       63.1570   85.6410   24.2290 O.co2 221  GLU221     -0.2457
     37  N         61.1710   90.9290   32.8870 N.3   223  PRO223     -0.2116
     38  CA        60.6420   92.2000   33.4470 C.3   223  PRO223      0.1372
     39  C         61.5970   93.3990   33.4560 C.2   223  PRO223      0.2244
     40  O         61.0950   94.5160   33.4570 O.2   223  PRO223     -0.2868
     41  CB        60.2580   91.8260   34.8820 C.3   223  PRO223      0.0268
     42  CG        59.9270   90.3800   34.7850 C.3   223  PRO223      0.0207
     43  CD        60.9250   89.8020   33.8200 C.3   223  PRO223      0.0892
     44  N         52.3400   90.2430   27.2920 N.3   251  SER251     -0.1217
     45  CA        53.7670   90.4170   27.3980 C.3   251  SER251      0.1889
     46  C         54.3650   90.0720   26.0280 C.2   251  SER251      0.2288
     47  O         53.6580   89.5640   25.1450 O.2   251  SER251     -0.2866
     48  CB        54.3360   89.5220   28.4970 C.3   251  SER251      0.2089
     49  OG        54.2710   88.1590   28.1140 O.3   251  SER251     -0.2183
     50  N         56.5720   87.6460   25.4010 N.3   253  ASN253     -0.1225
     51  CA        56.5800   86.1750   25.3180 C.3   253  ASN253      0.1785
     52  C         55.2250   85.6210   24.9730 C.2   253  ASN253      0.2597
     53  O         55.1510   84.6780   24.1970 O.2   253  ASN253     -0.2718
     54  CB        57.1290   85.5500   26.5940 C.3   253  ASN253      0.1169
     55  CG        58.6010   85.8290   26.7540 C.2   253  ASN253      0.2627
     56  OD1       59.3430   85.9360   25.7630 O.2   253  ASN253     -0.2716
     57  ND2       59.0680   85.9310   27.9930 N.am  253  ASN253     -0.0877
     58  N         54.1570   86.2350   25.4850 N.am  254  ASN254     -0.1974
     59  CA        52.7690   85.8940   25.1680 C.3   254  ASN254      0.1688
     60  C         52.5230   86.0070   23.6760 C.2   254  ASN254      0.2292
     61  O         51.8880   85.1320   23.0940 O.2   254  ASN254     -0.2864
     62  CB        51.8070   86.8360   25.9140 C.3   254  ASN254      0.1181
     63  CG        51.6140   86.5800   27.3810 C.2   254  ASN254      0.2629
     64  OD1       51.0900   87.4290   28.0880 O.2   254  ASN254     -0.2716
     65  ND2       52.0580   85.4380   27.8960 N.am  254  ASN254     -0.0877
     66  N         54.8280   83.3230   21.7290 N.3   257  ASP257     -0.1239
     67  CA        54.1880   82.0180   21.9390 C.3   257  ASP257      0.1674
     68  C         52.9010   81.8720   21.1250 C.2   257  ASP257      0.2266
     69  O         52.6810   80.7990   20.5320 O.2   257  ASP257     -0.2867
     70  CB        53.8770   81.8030   23.4280 C.3   257  ASP257      0.1410
     71  CG        55.0770   81.5030   24.3150 C.2   257  ASP257      0.3668
     72  OD1       56.0990   80.9780   23.7860 O.co2 257  ASP257     -0.2456
     73  OD2       55.0010   81.7970   25.5470 O.co2 257  ASP257     -0.2456
     74  N         54.6270   76.1190   24.8010 N.3   277  LYS277     -0.1231
     75  CA        55.3950   76.5460   25.9470 C.3   277  LYS277      0.1693
     76  C         56.7980   76.9430   25.4550 C.2   277  LYS277      0.2592
     77  O         57.4620   76.1470   24.7870 O.2   277  LYS277     -0.2718
     78  CB        55.4270   75.4380   26.9860 C.3   277  LYS277      0.0285
     79  CG        55.6910   75.9540   28.3740 C.3   277  LYS277      0.0035
     80  CD        54.4530   76.2970   29.1140 C.3   277  LYS277      0.0206
     81  CE        54.8600   76.3600   30.5450 C.3   277  LYS277      0.1093
     82  NZ        54.0220   77.3170   31.2760 N.3   277  LYS277     -0.1314
     83  N         57.1860   78.2230   25.6760 N.am  278  HIS278     -0.1976
     84  CA        58.4780   78.8400   25.2770 C.3   278  HIS278      0.1656
     85  C         58.7720   78.5980   23.7950 C.2   278  HIS278      0.2291
     86  O         59.8360   78.0740   23.4220 O.2   278  HIS278     -0.2864
     87  CB        59.6170   78.3690   26.1950 C.3   278  HIS278      0.0771
     88  CG        59.3430   78.6930   27.6350 C.ar  278  HIS278      0.0820
     89  ND1       59.3200   79.9990   28.0820 N.ar  278  HIS278     -0.2267
     90  CD2       59.0050   77.8760   28.6610 C.ar  278  HIS278      0.1154
     91  CE1       58.9970   79.9370   29.3640 C.ar  278  HIS278      0.1986
     92  NE2       58.8050   78.6780   29.7600 N.ar  278  HIS278     -0.2212
     93  N         50.2310   76.8810   32.3090 N.3   308  GLY308     -0.1225
     94  CA        50.7160   78.1880   31.8800 C.3   308  GLY308      0.1811
     95  C         50.9740   78.2370   30.3870 C.2   308  GLY308      0.2280
     96  O         51.7310   79.0880   29.9160 O.2   308  GLY308     -0.2866
     97  N         50.1380   78.3220   26.0940 N.3   310  VAL310     -0.1245
     98  CA        49.5260   79.1700   25.0820 C.3   310  VAL310      0.1561
     99  C         48.8100   78.2310   24.0840 C.2   310  VAL310      0.2260
    100  O         49.4480   77.3420   23.4780 O.2   310  VAL310     -0.2867
    101  CB        50.5650   80.1130   24.4220 C.3   310  VAL310      0.0252
    102  CG1       49.9870   80.7810   23.1710 C.3   310  VAL310      0.0019
    103  CG2       51.0510   81.1640   25.4330 C.3   310  VAL310      0.0019
    104  N         45.3820   76.0130   34.0540 N.3   329  PHE329     -0.1241
    105  CA        46.1020   77.2730   34.0440 C.3   329  PHE329      0.1605
    106  C         46.6110   77.5340   32.6200 C.2   329  PHE329      0.2264
    107  O         47.4830   76.8270   32.1180 O.2   329  PHE329     -0.2867
    108  CB        47.2350   77.3050   35.0790 C.3   329  PHE329      0.0534
    109  CG        48.0840   78.5610   35.0370 C.ar  329  PHE329     -0.0203
    110  CD1       47.5020   79.8100   34.8190 C.ar  329  PHE329     -0.0042
    111  CD2       49.4660   78.4930   35.2000 C.ar  329  PHE329     -0.0042
    112  CE1       48.2890   80.9560   34.7290 C.ar  329  PHE329     -0.0003
    113  CE2       50.2500   79.6450   35.1260 C.ar  329  PHE329     -0.0003
    114  CZ        49.6590   80.8640   34.8740 C.ar  329  PHE329     -0.0000
    115  N         47.7210   80.8320   29.9230 N.3   331  GLU331     -0.1245
    116  CA        48.0960   82.2320   29.8200 C.3   331  GLU331      0.1567
    117  C         47.3350   82.9040   28.6820 C.2   331  GLU331      0.2260
    118  O         46.7810   83.9700   28.8850 O.2   331  GLU331     -0.2867
    119  CB        49.6330   82.3670   29.6070 C.3   331  GLU331      0.0388
    120  CG        50.4660   81.8910   30.7840 C.3   331  GLU331      0.1160
    121  CD        50.6950   82.8800   31.9140 C.2   331  GLU331      0.3649
    122  OE1       49.8870   83.8260   32.0630 O.co2 331  GLU331     -0.2457
    123  OE2       51.6790   82.6930   32.6680 O.co2 331  GLU331     -0.2457
@<TRIPOS>BOND
     1    69    68    2
     2    68    67    1
     3    66    67    1
     4    67    70    1
     5    61    60    2
     6   102   101    1
     7    86    85    2
     8    70    71    1
     9   100    99    2
    10    60    59    1
    11    72    71   ar
    12    85    84    1
    13    99    98    1
    14    53    52    2
    15    36    34   ar
    16    71    73   ar
    17   101    98    1
    18   101   103    1
    19    35    34   ar
    20    77    76    2
    21    74    75    1
    22    34    33    1
    23    52    51    1
    24    52    58   am
    25    98    97    1
    26    47    46    2
    27    59    58    1
    28    59    62    1
    29    84    83    1
    30    84    87    1
    31    51    50    1
    32    51    54    1
    33    76    83   am
    34    76    75    1
    35    56    55    2
    36    62    63    1
    37    75    78    1
    38    33    32    1
    39    46    45    1
    40    87    88    1
    41    32    29    1
    42    54    55    1
    43    55    57   am
    44    78    79    1
    45    28    29    1
    46    28    26   am
    47    25    26    1
    48    25    24    1
    49    44    45    1
    50    29    30    1
    51    63    65   am
    52    63    64    2
    53    45    48    1
    54    26    27    2
    55    88    89   ar
    56    88    90   ar
    57    15    14    2
    58    89    91   ar
    59    49    48    1
    60    24    14   am
    61    79    80    1
    62    14    13    1
    63     1     2    1
    64    90    92   ar
    65   117   118    2
    66   117   116    1
    67    30    31    2
    68    80    81    1
    69    91    92   ar
    70    12    13    1
    71    12     3   am
    72    13    16    1
    73   119   116    1
    74   119   120    1
    75   116   115    1
    76    96    95    2
    77     2     3    1
    78     2     5    1
    79     3     4    2
    80    95    94    1
    81     5     6    1
    82    81    82    1
    83    10     9    1
    84   120   121    1
    85    16    17    1
    86    18    17   ar
    87    18    20   ar
    88     9    11    1
    89     9     8    2
    90    17    19   ar
    91    20    22   ar
    92    94    93    1
    93   121   122   ar
    94   121   123   ar
    95     6     7    1
    96   107   106    2
    97     7     8    1
    98   106   105    1
    99    19    21   ar
   100    22    23    1
   101    22    21   ar
   102    37    38    1
   103    37    43    1
   104    38    39    1
   105    38    41    1
   106    39    40    2
   107    43    42    1
   108   105   104    1
   109   105   108    1
   110   112   110   ar
   111   112   114   ar
   112    42    41    1
   113   110   109   ar
   114   114   113   ar
   115   109   108    1
   116   109   111   ar
   117   113   111   ar
