@<TRIPOS>MOLECULE
tmp/4a22A00.pdb
 127 121 0 0 0
SMALL
GASTEIGER

@<TRIPOS>ATOM
      1  N        -12.8400  -58.1520  -36.8520 N.3    26  ASN26      -0.1240
      2  CA       -13.8570  -59.0790  -37.3320 C.3    26  ASN26       0.1653
      3  C        -14.8730  -58.3390  -38.1830 C.2    26  ASN26       0.2266
      4  O        -15.4100  -57.3080  -37.7650 O.2    26  ASN26      -0.2867
      5  CB       -14.5550  -59.8010  -36.1640 C.3    26  ASN26       0.1155
      6  CG       -13.7090  -60.9290  -35.5940 C.2    26  ASN26       0.2627
      7  OD1      -12.7830  -60.6890  -34.8140 O.2    26  ASN26      -0.2716
      8  ND2      -14.0040  -62.1630  -36.0060 N.am   26  ASN26      -0.0877
      9  N        -18.3230  -58.7460  -40.9580 N.3    28  THR28      -0.1218
     10  CA       -19.4590  -59.5720  -41.3550 C.3    28  THR28       0.1862
     11  C        -20.1750  -59.2400  -42.6770 C.2    28  THR28       0.2287
     12  O        -21.1810  -59.8760  -43.0140 O.2    28  THR28      -0.2866
     13  CB       -20.4490  -59.5390  -40.2210 C.3    28  THR28       0.1770
     14  OG1      -20.8030  -58.1680  -40.0000 O.3    28  THR28      -0.2211
     15  CG2      -19.7820  -60.1020  -38.9530 C.3    28  THR28       0.0375
     16  N        -15.1550  -64.7010  -38.7580 N.3    52  SER52      -0.1202
     17  CA       -15.3910  -65.8690  -37.9200 C.3    52  SER52       0.2020
     18  C        -16.3010  -66.8390  -38.6680 C.2    52  SER52       0.2619
     19  O        -16.8490  -66.4960  -39.7110 O.2    52  SER52      -0.2717
     20  CB       -16.0540  -65.4520  -36.6060 C.3    52  SER52       0.2103
     21  OG       -17.2550  -64.7170  -36.8390 O.3    52  SER52      -0.2182
     22  N        -16.5070  -68.0230  -38.1070 N.am   53  THR53      -0.1938
     23  CA       -17.3960  -69.0000  -38.7120 C.3    53  THR53       0.2028
     24  C        -18.8090  -68.4120  -38.7250 C.2    53  THR53       0.2643
     25  O        -19.5160  -68.4780  -39.7350 O.2    53  THR53      -0.2714
     26  CB       -17.4060  -70.3350  -37.9150 C.3    53  THR53       0.1808
     27  OG1      -17.7620  -70.0740  -36.5610 O.3    53  THR53      -0.2208
     28  CG2      -16.0270  -71.0060  -37.9100 C.3    53  THR53       0.0379
     29  N        -19.2200  -67.8380  -37.5940 N.am   54  GLY54      -0.1939
     30  CA       -20.5210  -67.1810  -37.4930 C.3    54  GLY54       0.2014
     31  C        -20.6330  -65.9850  -38.4390 C.2    54  GLY54       0.2639
     32  O        -21.6830  -65.7240  -39.0280 O.2    54  GLY54      -0.2714
     33  N        -19.5430  -65.2450  -38.5810 N.am   55  GLY55      -0.1954
     34  CA       -19.5260  -64.1010  -39.4750 C.3    55  GLY55       0.1869
     35  C        -19.6340  -64.5250  -40.9250 C.2    55  GLY55       0.2309
     36  O        -20.3770  -63.9030  -41.6840 O.2    55  GLY55      -0.2863
     37  N        -11.0990  -66.6570  -38.5420 N.3    94  ASP94      -0.1225
     38  CA       -10.9980  -66.6740  -37.0770 C.3    94  ASP94       0.1805
     39  C        -11.3930  -68.0730  -36.5690 C.2    94  ASP94       0.2597
     40  O        -11.6240  -68.9400  -37.3780 O.2    94  ASP94      -0.2718
     41  CB       -11.9250  -65.5830  -36.5280 C.3    94  ASP94       0.1424
     42  CG       -11.6160  -65.1980  -35.0890 C.2    94  ASP94       0.3668
     43  OD1      -10.7180  -65.8030  -34.4830 O.co2  94  ASP94      -0.2456
     44  OD2      -12.3010  -64.2990  -34.5530 O.co2  94  ASP94      -0.2456
     45  N        -11.5620  -68.2900  -35.2600 N.am   95  HIS95      -0.1975
     46  CA       -11.5120  -69.6580  -34.6880 C.3    95  HIS95       0.1656
     47  C        -12.2950  -70.7320  -35.4560 C.2    95  HIS95       0.2291
     48  O        -13.4940  -70.6330  -35.6550 O.2    95  HIS95      -0.2864
     49  CB       -12.1660  -69.7000  -33.2960 C.3    95  HIS95       0.0771
     50  CG       -11.6770  -68.6650  -32.3390 C.ar   95  HIS95       0.0820
     51  ND1      -10.9070  -68.9800  -31.2400 N.ar   95  HIS95      -0.2267
     52  CD2      -11.8840  -67.3290  -32.2880 C.ar   95  HIS95       0.1154
     53  CE1      -10.6350  -67.8750  -30.5680 C.ar   95  HIS95       0.1986
     54  NE2      -11.2150  -66.8610  -31.1830 N.ar   95  HIS95      -0.2212
     55  N        -13.2690  -63.1640  -24.5300 N.3   198  HIS198     -0.1226
     56  CA       -14.1090  -62.5690  -25.5730 C.3   198  HIS198      0.1752
     57  C        -15.2410  -61.7280  -24.9720 C.2   198  HIS198      0.2596
     58  O        -15.9210  -62.1750  -24.0490 O.2   198  HIS198     -0.2718
     59  CB       -14.7100  -63.6550  -26.4580 C.3   198  HIS198      0.0759
     60  CG       -13.7310  -64.2720  -27.4060 C.ar  198  HIS198      0.0818
     61  ND1      -13.7210  -65.6210  -27.6940 N.ar  198  HIS198     -0.2268
     62  CD2      -12.7360  -63.7230  -28.1440 C.ar  198  HIS198      0.1154
     63  CE1      -12.7590  -65.8770  -28.5630 C.ar  198  HIS198      0.1986
     64  NE2      -12.1460  -64.7420  -28.8520 N.ar  198  HIS198     -0.2212
     65  N        -15.4510  -60.5220  -25.5020 N.am  199  GLY199     -0.1957
     66  CA       -16.5110  -59.6540  -25.0110 C.3   199  GLY199      0.1869
     67  C        -15.9910  -58.4840  -24.1980 C.2   199  GLY199      0.2309
     68  O        -14.7980  -58.3550  -23.9870 O.2   199  GLY199     -0.2863
     69  N         -6.0580  -62.5360  -28.3020 N.3   238  HIS238     -0.1226
     70  CA        -7.5070  -62.6310  -28.4900 C.3   238  HIS238      0.1752
     71  C         -8.2430  -61.8050  -27.4550 C.2   238  HIS238      0.2596
     72  O         -7.7040  -61.5520  -26.3830 O.2   238  HIS238     -0.2718
     73  CB        -7.9640  -64.0870  -28.4340 C.3   238  HIS238      0.0759
     74  CG        -7.6670  -64.8460  -29.6880 C.ar  238  HIS238      0.0818
     75  ND1       -8.6400  -65.4970  -30.4140 N.ar  238  HIS238     -0.2268
     76  CD2       -6.5110  -65.0220  -30.3700 C.ar  238  HIS238      0.1154
     77  CE1       -8.0930  -66.0630  -31.4730 C.ar  238  HIS238      0.1986
     78  NE2       -6.8000  -65.7920  -31.4690 N.ar  238  HIS238     -0.2212
     79  N         -9.4660  -61.3780  -27.7720 N.am  239  GLY239     -0.1957
     80  CA       -10.2440  -60.6080  -26.8150 C.3   239  GLY239      0.1869
     81  C         -9.5940  -59.2590  -26.5620 C.2   239  GLY239      0.2309
     82  O         -9.3030  -58.9000  -25.4230 O.2   239  GLY239     -0.2863
     83  N        -10.8650  -56.1590  -27.3250 N.3   241  SER241     -0.1217
     84  CA       -11.8090  -55.1260  -26.9130 C.3   241  SER241      0.1889
     85  C        -11.8010  -54.9360  -25.3990 C.2   241  SER241      0.2288
     86  O        -11.6600  -55.8960  -24.6610 O.2   241  SER241     -0.2866
     87  CB       -13.2140  -55.5050  -27.3840 C.3   241  SER241      0.2089
     88  OG       -13.2290  -55.6210  -28.7950 O.3   241  SER241     -0.2183
     89  N         -6.8910  -59.1300  -31.7500 N.3   260  ASN260     -0.1225
     90  CA        -8.2210  -59.2600  -32.3270 C.3   260  ASN260      0.1785
     91  C         -9.1710  -58.3080  -31.6580 C.2   260  ASN260      0.2597
     92  O         -9.2090  -58.2210  -30.4310 O.2   260  ASN260     -0.2718
     93  CB        -8.7500  -60.6890  -32.1730 C.3   260  ASN260      0.1169
     94  CG        -7.9080  -61.7080  -32.9110 C.2   260  ASN260      0.2627
     95  OD1       -6.9380  -61.3710  -33.6080 O.2   260  ASN260     -0.2716
     96  ND2       -8.2530  -62.9670  -32.7360 N.am  260  ASN260     -0.0877
     97  N         -9.9250  -57.5820  -32.4660 N.am  261  VAL261     -0.1966
     98  CA       -10.9300  -56.6740  -31.9500 C.3   261  VAL261      0.1727
     99  C        -12.2640  -56.9650  -32.6420 C.2   261  VAL261      0.2616
    100  O        -12.3400  -57.0240  -33.8710 O.2   261  VAL261     -0.2715
    101  CB       -10.5220  -55.2170  -32.1790 C.3   261  VAL261      0.0290
    102  CG1      -11.6030  -54.2920  -31.6660 C.3   261  VAL261      0.0023
    103  CG2       -9.2030  -54.9190  -31.5000 C.3   261  VAL261      0.0023
    104  N        -13.3030  -57.2180  -31.8510 N.am  262  ASP262     -0.1957
    105  CA       -14.6230  -57.5040  -32.3990 C.3   262  ASP262      0.1840
    106  C        -15.6820  -56.6970  -31.6380 C.2   262  ASP262      0.2622
    107  O        -16.4070  -55.9070  -32.1990 O.2   262  ASP262     -0.2715
    108  CB       -14.9080  -59.0080  -32.3680 C.3   262  ASP262      0.1450
    109  CG       -16.1720  -59.3950  -33.1450 C.2   262  ASP262      0.3671
    110  OD1      -16.7550  -58.5370  -33.8560 O.co2 262  ASP262     -0.2456
    111  OD2      -16.5750  -60.5750  -33.0580 O.co2 262  ASP262     -0.2456
    112  N        -15.7760  -56.9330  -30.3430 N.am  263  THR263     -0.1951
    113  CA       -16.8350  -56.3280  -29.5400 C.3   263  THR263      0.1897
    114  C        -16.8430  -54.8020  -29.5680 C.2   263  THR263      0.2313
    115  O        -17.8940  -54.2090  -29.7070 O.2   263  THR263     -0.2863
    116  CB       -16.7230  -56.8030  -28.0920 C.3   263  THR263      0.1794
    117  OG1      -16.8390  -58.2320  -28.0710 O.3   263  THR263     -0.2208
    118  CG2      -17.8330  -56.1750  -27.2340 C.3   263  THR263      0.0378
    119  N        -18.0010  -53.6880  -32.9250 N.3   266  GLN266     -0.1245
    120  CA       -19.4350  -53.9320  -32.9930 C.3   266  GLN266      0.1566
    121  C        -20.1910  -52.8110  -32.3140 C.2   266  GLN266      0.2260
    122  O        -21.1970  -52.3270  -32.8340 O.2   266  GLN266     -0.2867
    123  CB       -19.8070  -55.2540  -32.3370 C.3   266  GLN266      0.0367
    124  CG       -19.4260  -56.4930  -33.1410 C.3   266  GLN266      0.0905
    125  CD       -19.8260  -57.7670  -32.4070 C.2   266  GLN266      0.2608
    126  OE1      -20.2470  -57.7190  -31.2600 O.2   266  GLN266     -0.2717
    127  NE2      -19.7090  -58.8940  -33.0690 N.am  266  GLN266     -0.0878
@<TRIPOS>BOND
     1    12    11    2
     2    11    10    1
     3    36    35    2
     4    10     9    1
     5    10    13    1
     6    35    34    1
     7    13    14    1
     8    13    15    1
     9    25    24    2
    10    19    18    2
    11    34    33    1
    12    32    31    2
    13    16    17    1
    14    24    23    1
    15    24    29   am
    16    23    22    1
    17    23    26    1
    18    18    22   am
    19    18    17    1
    20    33    31   am
    21    37    38    1
    22    31    30    1
    23     3     4    2
    24     3     2    1
    25    17    20    1
    26    26    28    1
    27    26    27    1
    28    29    30    1
    29    40    39    2
    30     2     1    1
    31     2     5    1
    32    38    39    1
    33    38    41    1
    34    21    20    1
    35    39    45   am
    36    41    42    1
    37     5     6    1
    38     8     6   am
    39    48    47    2
    40     6     7    2
    41    47    46    1
    42    45    46    1
    43    42    44   ar
    44    42    43   ar
    45    46    49    1
    46   100    99    2
    47   110   109   ar
    48    95    94    2
    49    49    50    1
    50   109   111   ar
    51   109   108    1
    52   124   125    1
    53   124   123    1
    54   127   125   am
    55   120   119    1
    56   120   123    1
    57   120   121    1
    58    94    96   am
    59    94    93    1
    60   122   121    2
    61    99    98    1
    62    99   104   am
    63    97    98    1
    64    97    91   am
    65   125   126    2
    66   105   108    1
    67   105   104    1
    68   105   106    1
    69    50    52   ar
    70    50    51   ar
    71    90    93    1
    72    90    89    1
    73    90    91    1
    74    52    54   ar
    75   107   106    2
    76   101    98    1
    77   101   102    1
    78   101   103    1
    79    91    92    2
    80   106   112   am
    81    77    78   ar
    82    77    75   ar
    83    78    76   ar
    84    51    53   ar
    85    54    53   ar
    86    75    74   ar
    87    76    74   ar
    88   112   113    1
    89   115   114    2
    90    74    73    1
    91   114   113    1
    92   113   116    1
    93    64    63   ar
    94    64    62   ar
    95    88    87    1
    96    63    61   ar
    97    70    73    1
    98    70    69    1
    99    70    71    1
   100    62    60   ar
   101   116   117    1
   102   116   118    1
   103    79    71   am
   104    79    80    1
   105    61    60   ar
   106    71    72    2
   107    60    59    1
   108    87    84    1
   109    83    84    1
   110    84    85    1
   111    80    81    1
   112    81    82    2
   113    59    56    1
   114    56    57    1
   115    56    55    1
   116    65    66    1
   117    65    57   am
   118    85    86    2
   119    66    67    1
   120    57    58    2
   121    67    68    2
