@<TRIPOS>MOLECULE
tmp/4a23A00.pdb
 157 158 0 0 0
SMALL
GASTEIGER

@<TRIPOS>ATOM
      1  N         39.2490   22.6900   17.4940 N.3    72  TYR72      -0.1241
      2  CA        38.9880   23.8430   16.6600 C.3    72  TYR72       0.1605
      3  C         37.6940   24.5170   17.1200 C.2    72  TYR72       0.2264
      4  O         36.6910   23.8370   17.3720 O.2    72  TYR72      -0.2867
      5  CB        38.8720   23.3850   15.2050 C.3    72  TYR72       0.0534
      6  CG        38.5500   24.5020   14.2490 C.ar   72  TYR72      -0.0201
      7  CD1       39.5550   25.3070   13.7280 C.ar   72  TYR72      -0.0009
      8  CD2       37.2330   24.7650   13.8750 C.ar   72  TYR72      -0.0009
      9  CE1       39.2610   26.3390   12.8510 C.ar   72  TYR72       0.0417
     10  CE2       36.9310   25.7890   12.9980 C.ar   72  TYR72       0.0417
     11  CZ        37.9470   26.5750   12.4900 C.ar   72  TYR72       0.1957
     12  OH        37.6470   27.6050   11.6230 O.3    72  TYR72      -0.2866
     13  N         34.6700   27.1120   16.0990 N.3    74  ASP74      -0.1239
     14  CA        34.0020   27.6350   14.9120 C.3    74  ASP74       0.1674
     15  C         33.8330   29.1520   14.9840 C.2    74  ASP74       0.2266
     16  O         33.3000   29.6860   15.9600 O.2    74  ASP74      -0.2867
     17  CB        32.6380   26.9680   14.7700 C.3    74  ASP74       0.1410
     18  CG        31.9990   27.2050   13.4120 C.2    74  ASP74       0.3668
     19  OD1       32.2240   28.2750   12.8080 O.co2  74  ASP74      -0.2456
     20  OD2       31.2520   26.3120   12.9560 O.co2  74  ASP74      -0.2456
     21  N         25.6890   28.8700   15.4660 N.3    83  THR83      -0.1218
     22  CA        27.0120   28.2690   15.5580 C.3    83  THR83       0.1862
     23  C         27.5010   28.1370   17.0110 C.2    83  THR83       0.2287
     24  O         28.1340   27.1470   17.3590 O.2    83  THR83      -0.2866
     25  CB        28.0630   29.0050   14.6840 C.3    83  THR83       0.1770
     26  OG1       28.0290   30.4020   14.9630 O.3    83  THR83      -0.2211
     27  CG2       27.7780   28.8020   13.2050 C.3    83  THR83       0.0375
     28  N         27.1410   24.9980   19.4690 N.3    86  TRP86      -0.1241
     29  CA        27.9820   23.8170   19.2950 C.3    86  TRP86       0.1605
     30  C         29.4360   24.0090   19.7770 C.2    86  TRP86       0.2264
     31  O         30.1950   23.0450   19.8580 O.2    86  TRP86      -0.2867
     32  CB        27.9620   23.3400   17.8380 C.3    86  TRP86       0.0550
     33  CG        26.5660   23.1870   17.2660 C.ar   86  TRP86       0.0003
     34  CD1       25.9320   24.0450   16.4160 C.ar   86  TRP86       0.0946
     35  CD2       25.6460   22.1070   17.5040 C.ar   86  TRP86       0.0152
     36  NE1       24.6770   23.5730   16.1150 N.ar   86  TRP86      -0.2442
     37  CE2       24.4760   22.3880   16.7730 C.ar   86  TRP86       0.0810
     38  CE3       25.6980   20.9370   18.2720 C.ar   86  TRP86       0.0012
     39  CZ2       23.3710   21.5360   16.7750 C.ar   86  TRP86       0.0191
     40  CZ3       24.5970   20.0900   18.2760 C.ar   86  TRP86       0.0001
     41  CH2       23.4490   20.3950   17.5310 C.ar   86  TRP86       0.0015
     42  N         36.1890   16.2080   15.1040 N.3   124  TYR124     -0.1241
     43  CA        37.1550   17.2800   15.3620 C.3   124  TYR124      0.1605
     44  C         36.6690   18.2400   16.4500 C.2   124  TYR124      0.2264
     45  O         37.3820   19.1510   16.8490 O.2   124  TYR124     -0.2867
     46  CB        37.4690   18.0680   14.0770 C.3   124  TYR124      0.0534
     47  CG        36.3660   19.0290   13.6870 C.ar  124  TYR124     -0.0201
     48  CD1       36.2820   20.2950   14.2710 C.ar  124  TYR124     -0.0009
     49  CD2       35.3910   18.6650   12.7580 C.ar  124  TYR124     -0.0009
     50  CE1       35.2740   21.1690   13.9340 C.ar  124  TYR124      0.0417
     51  CE2       34.3670   19.5370   12.4200 C.ar  124  TYR124      0.0417
     52  CZ        34.3200   20.7890   13.0100 C.ar  124  TYR124      0.1957
     53  OH        33.3200   21.6650   12.6790 O.3   124  TYR124     -0.2866
     54  N         42.9400   21.6750    9.4270 N.3   279  TRP279     -0.1241
     55  CA        42.1760   21.7370    8.1790 C.3   279  TRP279      0.1605
     56  C         43.0480   21.6830    6.9200 C.2   279  TRP279      0.2264
     57  O         42.5490   21.3550    5.8520 O.2   279  TRP279     -0.2867
     58  CB        41.2250   22.9410    8.1550 C.3   279  TRP279      0.0550
     59  CG        40.1420   22.8050    9.1790 C.ar  279  TRP279      0.0003
     60  CD1       40.1100   23.3680   10.4180 C.ar  279  TRP279      0.0946
     61  CD2       38.9570   22.0080    9.0710 C.ar  279  TRP279      0.0152
     62  NE1       38.9730   22.9830   11.0850 N.ar  279  TRP279     -0.2442
     63  CE2       38.2450   22.1510   10.2780 C.ar  279  TRP279      0.0810
     64  CE3       38.4230   21.2030    8.0650 C.ar  279  TRP279      0.0012
     65  CZ2       37.0240   21.5170   10.5080 C.ar  279  TRP279      0.0191
     66  CZ3       37.2100   20.5710    8.2930 C.ar  279  TRP279      0.0001
     67  CH2       36.5250   20.7340    9.5040 C.ar  279  TRP279      0.0015
     68  N         43.6380   18.1520    4.2610 N.3   282  LEU282     -0.1245
     69  CA        42.6210   17.5100    3.4030 C.3   282  LEU282      0.1561
     70  C         43.0630   17.4660    1.9460 C.2   282  LEU282      0.2260
     71  O         43.6710   18.4040    1.4560 O.2   282  LEU282     -0.2867
     72  CB        41.2540   18.1980    3.5200 C.3   282  LEU282      0.0270
     73  CG        40.4770   17.9190    4.8070 C.3   282  LEU282      0.0019
     74  CD1       39.2590   18.8450    4.9180 C.3   282  LEU282      0.0001
     75  CD2       40.0920   16.4280    4.9280 C.3   282  LEU282      0.0001
     76  N         36.7020   20.7920   -0.0820 N.3   286  SER286     -0.1202
     77  CA        35.5550   19.9400    0.2050 C.3   286  SER286      0.2020
     78  C         34.7020   20.4700    1.3250 C.2   286  SER286      0.2619
     79  O         35.1240   21.3390    2.0650 O.2   286  SER286     -0.2717
     80  CB        36.0230   18.5250    0.5620 C.3   286  SER286      0.2103
     81  OG        36.9210   18.5550    1.6470 O.3   286  SER286     -0.2182
     82  N         33.4840   19.9490    1.4280 N.am  287  ILE287     -0.1965
     83  CA        32.7160   20.0580    2.6590 C.3   287  ILE287      0.1727
     84  C         32.3830   18.6490    3.1600 C.2   287  ILE287      0.2616
     85  O         32.5130   17.6740    2.4140 O.2   287  ILE287     -0.2715
     86  CB        31.4370   20.8720    2.4680 C.3   287  ILE287      0.0290
     87  CG1       30.5920   20.2900    1.3380 C.3   287  ILE287      0.0022
     88  CG2       31.7740   22.3270    2.1980 C.3   287  ILE287      0.0023
     89  CD1       29.2330   20.9360    1.2330 C.3   287  ILE287      0.0001
     90  N         31.9650   18.5420    4.4190 N.am  288  PHE288     -0.1960
     91  CA        31.6320   17.2480    5.0250 C.3   288  PHE288      0.1771
     92  C         32.8140   16.2800    4.9380 C.2   288  PHE288      0.2619
     93  O         32.6360   15.0720    4.7290 O.2   288  PHE288     -0.2715
     94  CB        30.3760   16.6250    4.3710 C.3   288  PHE288      0.0574
     95  CG        29.4320   15.9820    5.3650 C.ar  288  PHE288     -0.0200
     96  CD1       29.9140   15.0890    6.3340 C.ar  288  PHE288     -0.0042
     97  CD2       28.0620   16.2770    5.3430 C.ar  288  PHE288     -0.0042
     98  CE1       29.0490   14.5040    7.2690 C.ar  288  PHE288     -0.0003
     99  CE2       27.1870   15.6970    6.2610 C.ar  288  PHE288     -0.0003
    100  CZ        27.6820   14.8060    7.2310 C.ar  288  PHE288     -0.0000
    101  N         34.0220   16.8220    5.0580 N.am  289  ARG289     -0.1963
    102  CA        35.2230   15.9950    5.1680 C.3   289  ARG289      0.1729
    103  C         36.0190   16.5210    6.3420 C.2   289  ARG289      0.2616
    104  O         36.1590   17.7290    6.5270 O.2   289  ARG289     -0.2715
    105  CB        36.0870   16.0040    3.8980 C.3   289  ARG289      0.0348
    106  CG        35.4460   15.3860    2.6780 C.3   289  ARG289      0.0492
    107  CD        35.2120   13.8920    2.8290 C.3   289  ARG289      0.2205
    108  NE        34.6840   13.3060    1.5960 N.pl3 289  ARG289     -0.0865
    109  CZ        33.3900   13.1430    1.3440 C.cat 289  ARG289      0.5346
    110  NH1       32.4910   13.5350    2.2350 N.pl3 289  ARG289      0.1354
    111  NH2       32.9940   12.5970    0.2010 N.pl3 289  ARG289      0.1354
    112  N         36.5360   15.6030    7.1410 N.am  290  PHE290     -0.1974
    113  CA        37.2290   15.9830    8.3580 C.3   290  PHE290      0.1639
    114  C         38.5920   15.3060    8.3660 C.2   290  PHE290      0.2290
    115  O         38.7250   14.1560    7.9390 O.2   290  PHE290     -0.2864
    116  CB        36.3580   15.6120    9.5570 C.3   290  PHE290      0.0560
    117  CG        34.9160   15.9700    9.3600 C.ar  290  PHE290     -0.0200
    118  CD1       34.5050   17.3050    9.3880 C.ar  290  PHE290     -0.0042
    119  CD2       33.9730   14.9930    9.0990 C.ar  290  PHE290     -0.0042
    120  CE1       33.1770   17.6460    9.1890 C.ar  290  PHE290     -0.0003
    121  CE2       32.6290   15.3300    8.9090 C.ar  290  PHE290     -0.0003
    122  CZ        32.2290   16.6570    8.9530 C.ar  290  PHE290     -0.0000
    123  N         23.1610   22.7520    6.1390 N.3   330  TYR330     -0.1227
    124  CA        24.1320   23.3380    7.0610 C.3   330  TYR330      0.1736
    125  C         25.5440   23.4330    6.4620 C.2   330  TYR330      0.2595
    126  O         26.2230   24.4510    6.5790 O.2   330  TYR330     -0.2718
    127  CB        24.1740   22.4290    8.2840 C.3   330  TYR330      0.0548
    128  CG        24.6050   23.0430    9.5810 C.ar  330  TYR330     -0.0200
    129  CD1       25.7720   23.7740    9.6750 C.ar  330  TYR330     -0.0009
    130  CD2       23.8600   22.8480   10.7290 C.ar  330  TYR330     -0.0009
    131  CE1       26.1800   24.3110   10.8760 C.ar  330  TYR330      0.0417
    132  CE2       24.2590   23.3720   11.9350 C.ar  330  TYR330      0.0417
    133  CZ        25.4180   24.1070   12.0040 C.ar  330  TYR330      0.1957
    134  OH        25.8180   24.6450   13.2080 O.3   330  TYR330     -0.2866
    135  N         25.9630   22.3520    5.8150 N.am  331  PHE331     -0.1976
    136  CA        27.3210   22.1840    5.3090 C.3   331  PHE331      0.1639
    137  C         27.6800   23.0950    4.1410 C.2   331  PHE331      0.2290
    138  O         28.8580   23.4130    3.9380 O.2   331  PHE331     -0.2864
    139  CB        27.5550   20.7140    4.9510 C.3   331  PHE331      0.0560
    140  CG        27.4670   19.8190    6.1400 C.ar  331  PHE331     -0.0200
    141  CD1       26.2380   19.2980    6.5430 C.ar  331  PHE331     -0.0042
    142  CD2       28.5900   19.5730    6.9190 C.ar  331  PHE331     -0.0042
    143  CE1       26.1420   18.4890    7.6820 C.ar  331  PHE331     -0.0003
    144  CE2       28.5050   18.7650    8.0500 C.ar  331  PHE331     -0.0003
    145  CZ        27.2730   18.2260    8.4310 C.ar  331  PHE331     -0.0000
    146  N         29.7360   26.3620    4.6570 N.3   334  TYR334     -0.1241
    147  CA        31.1240   26.1930    5.0880 C.3   334  TYR334      0.1605
    148  C         32.0720   25.9690    3.9100 C.2   334  TYR334      0.2264
    149  O         33.1830   25.4750    4.0970 O.2   334  TYR334     -0.2867
    150  CB        31.2620   25.0480    6.1220 C.3   334  TYR334      0.0534
    151  CG        30.7220   25.4320    7.4740 C.ar  334  TYR334     -0.0201
    152  CD1       29.3700   25.2840    7.7730 C.ar  334  TYR334     -0.0009
    153  CD2       31.5530   25.9850    8.4360 C.ar  334  TYR334     -0.0009
    154  CE1       28.8720   25.6620    8.9870 C.ar  334  TYR334      0.0417
    155  CE2       31.0630   26.3660    9.6580 C.ar  334  TYR334      0.0417
    156  CZ        29.7180   26.2070    9.9280 C.ar  334  TYR334      0.1957
    157  OH        29.2210   26.5890   11.1490 O.3   334  TYR334     -0.2866
@<TRIPOS>BOND
     1    76    77    1
     2   111   109    1
     3    77    80    1
     4    77    78    1
     5    80    81    1
     6    89    87    1
     7    78    82   am
     8    78    79    2
     9    87    86    1
    10   109   108    2
    11   109   110    1
    12    82    83    1
    13    71    70    2
    14   108   107    1
    15    70    69    1
    16    88    86    1
    17    85    84    2
    18    86    83    1
    19    83    84    1
    20   106   107    1
    21   106   105    1
    22    84    90   am
    23    69    72    1
    24    69    68    1
    25    72    73    1
    26   105   102    1
    27   148   149    2
    28   148   147    1
    29   138   137    2
    30   137   136    1
    31    94    91    1
    32    94    95    1
    33    90    91    1
    34   146   147    1
    35    93    92    2
    36    73    74    1
    37    73    75    1
    38    92    91    1
    39    92   101   am
    40   139   136    1
    41   139   140    1
    42   101   102    1
    43   147   150    1
    44   102   103    1
    45   136   135    1
    46    97    95   ar
    47    97    99   ar
    48    95    96   ar
    49   135   125   am
    50    57    56    2
    51   150   151    1
    52   123   124    1
    53   140   141   ar
    54   140   142   ar
    55    99   100   ar
    56    96    98   ar
    57   103   104    2
    58   103   112   am
    59   125   126    2
    60   125   124    1
    61   141   143   ar
    62   142   144   ar
    63    56    55    1
    64   124   127    1
    65   112   113    1
    66   100    98   ar
    67   151   152   ar
    68   151   153   ar
    69   143   145   ar
    70   152   154   ar
    71   115   114    2
    72   144   145   ar
    73    64    66   ar
    74    64    61   ar
    75    58    55    1
    76    58    59    1
    77    55    54    1
    78   127   128    1
    79    66    67   ar
    80   113   114    1
    81   113   116    1
    82   153   155   ar
    83   121   122   ar
    84   121   119   ar
    85   122   120   ar
    86   154   156   ar
    87    61    59   ar
    88    61    63   ar
    89   119   117   ar
    90    59    60   ar
    91   120   118   ar
    92   117   118   ar
    93   117   116    1
    94    67    65   ar
    95   128   129   ar
    96   128   130   ar
    97   155   156   ar
    98   129   131   ar
    99   156   157    1
   100    63    65   ar
   101    63    62   ar
   102    60    62   ar
   103   130   132   ar
   104   131   133   ar
   105    12    11    1
   106   132   133   ar
   107   133   134    1
   108    51    49   ar
   109    51    52   ar
   110    11     9   ar
   111    11    10   ar
   112    53    52    1
   113    49    47   ar
   114    19    18   ar
   115     9     7   ar
   116    20    18   ar
   117    10     8   ar
   118    52    50   ar
   119    27    25    1
   120    18    17    1
   121    47    46    1
   122    47    48   ar
   123     7     6   ar
   124     8     6   ar
   125    50    48   ar
   126    46    43    1
   127     6     5    1
   128    25    26    1
   129    25    22    1
   130    17    14    1
   131    14    15    1
   132    14    13    1
   133    15    16    2
   134    42    43    1
   135     5     2    1
   136    43    44    1
   137    21    22    1
   138    22    23    1
   139    36    34   ar
   140    36    37   ar
   141    34    33   ar
   142    44    45    2
   143     2     3    1
   144     2     1    1
   145    37    39   ar
   146    37    35   ar
   147    39    41   ar
   148    23    24    2
   149     3     4    2
   150    33    35   ar
   151    33    32    1
   152    35    38   ar
   153    41    40   ar
   154    32    29    1
   155    38    40   ar
   156    29    28    1
   157    29    30    1
   158    30    31    2
