@<TRIPOS>MOLECULE
tmp/4a29A01.pdb
 105 97 0 0 0
SMALL
GASTEIGER

@<TRIPOS>ATOM
      1  N        -19.9170   17.9170  -17.7060 N.3    50  VAL50      -0.1245
      2  CA       -20.5290   16.6960  -17.1920 C.3    50  VAL50       0.1561
      3  C        -21.9660   16.5670  -17.6730 C.2    50  VAL50       0.2260
      4  O        -22.7500   17.5170  -17.5450 O.2    50  VAL50      -0.2867
      5  CB       -20.5050   16.6890  -15.6540 C.3    50  VAL50       0.0252
      6  CG1      -21.2200   15.4650  -15.0950 C.3    50  VAL50       0.0019
      7  CG2      -19.0780   16.7620  -15.1200 C.3    50  VAL50       0.0019
      8  N        -24.9480   14.5640  -16.2750 N.3    52  GLU52      -0.1245
      9  CA       -25.6010   13.6970  -15.2870 C.3    52  GLU52       0.1567
     10  C        -26.9370   14.2960  -14.9000 C.2    52  GLU52       0.2260
     11  O        -27.0460   15.4840  -14.6080 O.2    52  GLU52      -0.2867
     12  CB       -24.7410   13.5160  -14.0290 C.3    52  GLU52       0.0388
     13  CG       -24.6040   14.7690  -13.1840 C.3    52  GLU52       0.1160
     14  CD       -23.4950   14.6790  -12.1540 C.2    52  GLU52       0.3649
     15  OE1      -22.6900   13.7120  -12.1620 O.co2  52  GLU52      -0.2457
     16  OE2      -23.4360   15.6110  -11.3310 O.co2  52  GLU52      -0.2457
     17  N        -27.6770   14.1430   -8.7810 N.3    55  SER55      -0.1217
     18  CA       -26.5540   13.9640   -7.8890 C.3    55  SER55       0.1889
     19  C        -27.0250   14.0700   -6.4510 C.2    55  SER55       0.2288
     20  O        -27.9660   14.8060   -6.1610 O.2    55  SER55      -0.2866
     21  CB       -25.5000   15.0310   -8.1540 C.3    55  SER55       0.2089
     22  OG       -24.4830   14.9740   -7.1700 O.3    55  SER55      -0.2183
     23  N        -25.6450   15.8420   -4.4680 N.3    57  SER57      -0.1217
     24  CA       -25.4270   17.2480   -4.1590 C.3    57  SER57       0.1889
     25  C        -26.6810   18.1110   -4.3290 C.2    57  SER57       0.2288
     26  O        -26.6780   19.2710   -3.9150 O.2    57  SER57      -0.2866
     27  CB       -24.3300   17.8150   -5.0570 C.3    57  SER57       0.2089
     28  OG       -24.7970   17.8710   -6.3840 O.3    57  SER57      -0.2183
     29  N        -27.1520    8.8910   -9.2980 N.3    88  PHE88      -0.1241
     30  CA       -26.8940    9.8560  -10.3550 C.3    88  PHE88       0.1605
     31  C        -27.7790    9.6600  -11.5880 C.2    88  PHE88       0.2264
     32  O        -27.6830   10.4410  -12.5330 O.2    88  PHE88      -0.2867
     33  CB       -25.4050    9.8710  -10.7560 C.3    88  PHE88       0.0534
     34  CG       -24.4850   10.3100   -9.6630 C.ar   88  PHE88      -0.0203
     35  CD1      -23.9840   11.6020   -9.6360 C.ar   88  PHE88      -0.0042
     36  CD2      -24.0940    9.4350   -8.6640 C.ar   88  PHE88      -0.0042
     37  CE1      -23.1070   12.0160   -8.6300 C.ar   88  PHE88      -0.0003
     38  CE2      -23.2400    9.8490   -7.6580 C.ar   88  PHE88      -0.0003
     39  CZ       -22.7300   11.1290   -7.6450 C.ar   88  PHE88      -0.0000
     40  N        -14.2860   19.4590   -4.7600 N.3   180  SER180     -0.1202
     41  CA       -14.6910   20.6290   -3.9940 C.3   180  SER180      0.2020
     42  C        -15.6520   20.2860   -2.8560 C.2   180  SER180      0.2618
     43  O        -15.7690   21.0720   -1.9230 O.2   180  SER180     -0.2717
     44  CB       -15.3010   21.6910   -4.9090 C.3   180  SER180      0.2103
     45  OG       -16.3710   21.1610   -5.6570 O.3   180  SER180     -0.2182
     46  N        -16.3350   19.1420   -2.9270 N.am  181  ARG181     -0.1979
     47  CA       -17.3090   18.7370   -1.9030 C.3   181  ARG181      0.1597
     48  C        -16.7100   17.5820   -1.1080 C.2   181  ARG181      0.2287
     49  O        -16.1630   16.6470   -1.6770 O.2   181  ARG181     -0.2864
     50  CB       -18.6440   18.3320   -2.5560 C.3   181  ARG181      0.0334
     51  CG       -19.8180   18.1730   -1.5980 C.3   181  ARG181      0.0492
     52  CD       -21.1240   17.8960   -2.3320 C.3   181  ARG181      0.2205
     53  NE       -21.6350   19.0430   -3.0870 N.pl3 181  ARG181     -0.0865
     54  CZ       -22.4750   19.9490   -2.5960 C.cat 181  ARG181      0.5346
     55  NH1      -22.8880   19.8480   -1.3440 N.pl3 181  ARG181      0.1354
     56  NH2      -22.9330   20.9260   -3.3710 N.pl3 181  ARG181      0.1354
     57  N        -19.4040   21.7190    0.4610 N.3   188  ILE188     -0.1245
     58  CA       -18.3970   22.4090   -0.3170 C.3   188  ILE188      0.1561
     59  C        -17.3110   22.9460    0.5950 C.2   188  ILE188      0.2260
     60  O        -17.5890   23.4570    1.6820 O.2   188  ILE188     -0.2867
     61  CB       -19.0100   23.5630   -1.0980 C.3   188  ILE188      0.0252
     62  CG1      -19.9340   23.0140   -2.1820 C.3   188  ILE188      0.0019
     63  CG2      -17.9220   24.4380   -1.6930 C.3   188  ILE188      0.0019
     64  CD1      -20.9520   24.0000   -2.6450 C.3   188  ILE188      0.0001
     65  N        -12.7900   19.8500   -9.6920 N.3   209  LYS209     -0.1231
     66  CA       -14.1580   19.3170   -9.8550 C.3   209  LYS209      0.1693
     67  C        -15.0990   20.2560   -9.1390 C.2   209  LYS209      0.2592
     68  O        -14.8770   20.5600   -7.9480 O.2   209  LYS209     -0.2718
     69  CB       -14.2380   17.8830   -9.2910 C.3   209  LYS209      0.0285
     70  CG       -15.5230   17.0730   -9.5760 C.3   209  LYS209      0.0035
     71  CD       -15.2850   15.5480   -9.3650 C.3   209  LYS209      0.0206
     72  CE       -16.4700   14.6480   -9.7050 C.3   209  LYS209      0.1093
     73  NZ       -17.4080   14.5570   -8.5750 N.3   209  LYS209     -0.1314
     74  N        -16.1340   20.7110   -9.8660 N.am  210  LEU210     -0.1966
     75  CA       -17.0400   21.7780   -9.4270 C.3   210  LEU210      0.1728
     76  C        -18.4590   21.5060   -9.8890 C.2   210  LEU210      0.2617
     77  O        -18.6880   21.0210  -11.0080 O.2   210  LEU210     -0.2715
     78  CB       -16.6540   23.0980  -10.0550 C.3   210  LEU210      0.0311
     79  CG       -15.2570   23.5880   -9.7500 C.3   210  LEU210      0.0022
     80  CD1      -15.1620   24.0810   -8.3260 C.3   210  LEU210      0.0001
     81  CD2      -14.8850   24.6810  -10.7100 C.3   210  LEU210      0.0001
     82  N        -19.4180   21.8810   -9.0620 N.am  211  GLY211     -0.1940
     83  CA       -20.8070   21.8900   -9.4880 C.3   211  GLY211      0.2014
     84  C        -21.2530   23.2240  -10.0510 C.2   211  GLY211      0.2638
     85  O        -21.4600   23.4420  -11.2530 O.2   211  GLY211     -0.2714
     86  N        -21.4420   24.1470   -9.1240 N.am  212  ILE212     -0.1977
     87  CA       -21.6420   25.5300   -9.4990 C.3   212  ILE212      0.1596
     88  C        -20.2800   26.1660   -9.7500 C.2   212  ILE212      0.2287
     89  O        -19.3340   25.9430   -8.9930 O.2   212  ILE212     -0.2864
     90  CB       -22.3910   26.2870   -8.4050 C.3   212  ILE212      0.0276
     91  CG1      -23.7510   25.6260   -8.1500 C.3   212  ILE212      0.0022
     92  CG2      -22.5830   27.7400   -8.8130 C.3   212  ILE212      0.0022
     93  CD1      -24.4210   25.0680   -9.4160 C.3   212  ILE212      0.0001
     94  N        -20.4010   20.3420  -13.4900 N.3   232  SER232     -0.1202
     95  CA       -21.6310   19.5550  -13.6330 C.3   232  SER232      0.2020
     96  C        -22.8900   20.4030  -13.5100 C.2   232  SER232      0.2619
     97  O        -23.4440   20.8070  -14.5200 O.2   232  SER232     -0.2717
     98  CB       -21.6480   18.4020  -12.6330 C.3   232  SER232      0.2103
     99  OG       -21.5070   18.8920  -11.3180 O.3   232  SER232     -0.2182
    100  N        -23.3470   20.6590  -12.2880 N.am  233  SER233     -0.1951
    101  CA       -24.6700   21.2450  -12.0720 C.3   233  SER233      0.1924
    102  C        -24.9120   22.4890  -12.9100 C.2   233  SER233      0.2314
    103  O        -25.9510   22.6130  -13.5450 O.2   233  SER233     -0.2863
    104  CB       -24.8550   21.5680  -10.6050 C.3   233  SER233      0.2116
    105  OG       -24.7200   20.3750   -9.8840 O.3   233  SER233     -0.2180
@<TRIPOS>BOND
     1     1     2    1
     2     3     4    2
     3     3     2    1
     4     2     5    1
     5     8     9    1
     6     5     7    1
     7     5     6    1
     8     9    10    1
     9     9    12    1
    10    10    11    2
    11    97    96    2
    12    12    13    1
    13    95    96    1
    14    95    94    1
    15    95    98    1
    16   103   102    2
    17    96   100   am
    18    13    14    1
    19   102   101    1
    20    98    99    1
    21    32    31    2
    22   100   101    1
    23    15    14   ar
    24    14    16   ar
    25   101   104    1
    26    31    30    1
    27    85    84    2
    28    77    76    2
    29    33    30    1
    30    33    34    1
    31    81    79    1
    32   104   105    1
    33    30    29    1
    34    78    79    1
    35    78    75    1
    36    84    83    1
    37    84    86   am
    38    76    75    1
    39    76    82   am
    40    74    75    1
    41    74    67   am
    42    66    65    1
    43    66    69    1
    44    66    67    1
    45    88    87    1
    46    88    89    2
    47    79    80    1
    48    72    71    1
    49    72    73    1
    50    34    35   ar
    51    34    36   ar
    52    35    37   ar
    53    70    71    1
    54    70    69    1
    55    87    86    1
    56    87    90    1
    57    83    82    1
    58    93    91    1
    59    67    68    2
    60    92    90    1
    61    17    18    1
    62    36    38   ar
    63    37    39   ar
    64    90    91    1
    65    21    18    1
    66    21    22    1
    67    18    19    1
    68    38    39   ar
    69    19    20    2
    70    28    27    1
    71    45    44    1
    72    27    24    1
    73    44    41    1
    74    40    41    1
    75    23    24    1
    76    25    24    1
    77    25    26    2
    78    41    42    1
    79    56    54    1
    80    53    54    2
    81    53    52    1
    82    46    42   am
    83    46    47    1
    84    42    43    2
    85    64    62    1
    86    54    55    1
    87    50    47    1
    88    50    51    1
    89    52    51    1
    90    62    61    1
    91    47    48    1
    92    63    61    1
    93    49    48    2
    94    61    58    1
    95    58    57    1
    96    58    59    1
    97    59    60    2
