@<TRIPOS>MOLECULE
tmp/4a2bA00.pdb
 200 192 0 0 0
SMALL
GASTEIGER

@<TRIPOS>ATOM
      1  N        -12.8650   -7.3430  -17.4110 N.3     8  ASP8       -0.1225
      2  CA       -12.8670   -8.5560  -18.2280 C.3     8  ASP8        0.1805
      3  C        -11.4490   -8.8930  -18.4750 C.2     8  ASP8        0.2598
      4  O        -10.6980   -8.1850  -19.1960 O.2     8  ASP8       -0.2718
      5  CB       -13.6130   -8.2830  -19.5320 C.3     8  ASP8        0.1424
      6  CG       -13.5930   -9.4520  -20.4850 C.2     8  ASP8        0.3668
      7  OD1      -13.6840  -10.6440  -20.0420 O.co2   8  ASP8       -0.2456
      8  OD2      -13.4860   -9.1880  -21.6910 O.co2   8  ASP8       -0.2456
      9  N        -11.0670  -10.0070  -17.8990 N.am    9  ILE9       -0.1966
     10  CA        -9.6570  -10.4060  -17.8630 C.3     9  ILE9        0.1727
     11  C         -9.4140  -11.2850  -19.0930 C.2     9  ILE9        0.2617
     12  O         -9.9100  -12.4100  -19.1640 O.2     9  ILE9       -0.2715
     13  CB        -9.3700  -11.2750  -16.5560 C.3     9  ILE9        0.0290
     14  CG1       -9.4970  -10.3500  -15.3460 C.3     9  ILE9        0.0022
     15  CG2       -7.9720  -11.9030  -16.6190 C.3     9  ILE9        0.0023
     16  CD1       -9.4520  -11.2020  -14.0610 C.3     9  ILE9        0.0001
     17  N         -8.7900  -10.7310  -20.1170 N.am   10  GLY10      -0.1940
     18  CA        -8.4170  -11.5810  -21.2530 C.3    10  GLY10       0.2014
     19  C         -6.9480  -11.9740  -21.1040 C.2    10  GLY10       0.2640
     20  O         -6.2140  -11.3990  -20.2590 O.2    10  GLY10      -0.2714
     21  N         -6.5440  -12.9680  -21.8930 N.am   11  SER11      -0.1935
     22  CA        -5.1480  -13.4080  -21.8590 C.3    11  SER11       0.2055
     23  C         -4.2580  -12.5090  -22.6620 C.2    11  SER11       0.2643
     24  O         -3.0230  -12.5560  -22.4640 O.2    11  SER11      -0.2714
     25  CB        -5.0370  -14.8640  -22.3400 C.3    11  SER11       0.2130
     26  OG        -5.6940  -14.9170  -23.6010 O.3    11  SER11      -0.2179
     27  N         -4.8550  -11.6460  -23.5180 N.am   12  ARG12      -0.1963
     28  CA        -4.0250  -10.5960  -24.1740 C.3    12  ARG12       0.1729
     29  C         -4.2800   -9.1620  -23.6940 C.2    12  ARG12       0.2616
     30  O         -3.3440   -8.3360  -23.5620 O.2    12  ARG12      -0.2715
     31  CB        -4.3100  -10.6920  -25.7490 C.3    12  ARG12       0.0348
     32  CG        -3.5490   -9.5870  -26.4720 C.3    12  ARG12       0.0492
     33  CD        -2.0450   -9.7420  -26.4620 C.3    12  ARG12       0.2205
     34  NE        -1.4700   -8.5570  -27.1900 N.pl3  12  ARG12      -0.0865
     35  CZ        -1.1770   -7.3430  -26.6600 C.cat  12  ARG12       0.5346
     36  NH1       -1.3520   -7.0640  -25.3180 N.pl3  12  ARG12       0.1354
     37  NH2       -0.6500   -6.3810  -27.4670 N.pl3  12  ARG12       0.1354
     38  N         -5.5450   -8.8050  -23.4700 N.am   13  TYR13      -0.1974
     39  CA        -5.8370   -7.5040  -22.9080 C.3    13  TYR13       0.1639
     40  C         -6.7340   -7.6470  -21.7120 C.2    13  TYR13       0.2290
     41  O         -7.6430   -8.4430  -21.7330 O.2    13  TYR13      -0.2864
     42  CB        -6.6600   -6.6160  -23.8950 C.3    13  TYR13       0.0560
     43  CG        -5.8770   -6.3550  -25.1380 C.ar   13  TYR13      -0.0198
     44  CD1       -4.8110   -5.4560  -25.1580 C.ar   13  TYR13      -0.0009
     45  CD2       -6.2550   -7.0090  -26.3080 C.ar   13  TYR13      -0.0009
     46  CE1       -4.0910   -5.2320  -26.3540 C.ar   13  TYR13       0.0417
     47  CE2       -5.5350   -6.8340  -27.4830 C.ar   13  TYR13       0.0417
     48  CZ        -4.4780   -5.9510  -27.5090 C.ar   13  TYR13       0.1957
     49  OH        -3.8470   -5.7860  -28.7460 O.3    13  TYR13      -0.2866
     50  N         -9.7060   -5.4320  -19.7830 N.3    15  LYS15      -0.1245
     51  CA       -10.5120   -4.3230  -20.1300 C.3    15  LYS15       0.1561
     52  C        -11.2590   -3.9190  -18.8390 C.2    15  LYS15       0.2260
     53  O        -11.7090   -4.7900  -18.1180 O.2    15  LYS15      -0.2867
     54  CB       -11.6010   -4.6770  -21.2480 C.3    15  LYS15       0.0271
     55  CG       -10.9480   -5.1080  -22.5990 C.3    15  LYS15       0.0035
     56  CD       -10.9290   -6.6530  -22.7010 C.3    15  LYS15       0.0206
     57  CE       -10.3370   -7.1600  -23.9780 C.3    15  LYS15       0.1093
     58  NZ        -9.9920   -8.5440  -23.5480 N.3    15  LYS15      -0.1314
     59  N        -11.9160  -15.7970  -19.4510 N.3    78  SER78      -0.1217
     60  CA       -12.2490  -16.8650  -20.4300 C.3    78  SER78       0.1889
     61  C        -11.4230  -18.1040  -20.0870 C.2    78  SER78       0.2288
     62  O        -10.3370  -17.9630  -19.4900 O.2    78  SER78      -0.2866
     63  CB       -11.9160  -16.3660  -21.8690 C.3    78  SER78       0.2089
     64  OG       -10.5400  -15.9920  -21.8990 O.3    78  SER78      -0.2183
     65  N        -16.5530  -14.7850  -19.1600 N.3   184  SER184     -0.1217
     66  CA       -16.4340  -13.7510  -20.1920 C.3   184  SER184      0.1889
     67  C        -17.3280  -14.0840  -21.3810 C.2   184  SER184      0.2288
     68  O        -17.9280  -13.2210  -22.0340 O.2   184  SER184     -0.2866
     69  CB       -14.9420  -13.6420  -20.5780 C.3   184  SER184      0.2089
     70  OG       -14.8350  -12.5080  -21.3960 O.3   184  SER184     -0.2183
     71  N        -16.8280  -15.9110  -30.3430 N.3   206  ASN206     -0.1225
     72  CA       -15.9400  -14.9670  -29.7410 C.3   206  ASN206      0.1785
     73  C        -14.4880  -15.2540  -30.2600 C.2   206  ASN206      0.2597
     74  O        -13.8790  -16.2170  -29.8340 O.2   206  ASN206     -0.2718
     75  CB       -15.9460  -15.1150  -28.2370 C.3   206  ASN206      0.1169
     76  CG       -15.1660  -13.9650  -27.5950 C.2   206  ASN206      0.2627
     77  OD1      -15.5680  -12.7770  -27.7430 O.2   206  ASN206     -0.2716
     78  ND2      -13.9770  -14.2470  -27.0890 N.am  206  ASN206     -0.0877
     79  N        -14.0050  -14.3710  -31.1370 N.am  207  LEU207     -0.1966
     80  CA       -12.7110  -14.4850  -31.8120 C.3   207  LEU207      0.1728
     81  C        -11.6140  -13.9540  -30.8910 C.2   207  LEU207      0.2617
     82  O        -11.0680  -12.8370  -31.0580 O.2   207  LEU207     -0.2715
     83  CB       -12.7930  -13.7320  -33.1500 C.3   207  LEU207      0.0311
     84  CG       -13.8360  -14.3660  -34.1100 C.3   207  LEU207      0.0022
     85  CD1      -13.9830  -13.3690  -35.2230 C.3   207  LEU207      0.0001
     86  CD2      -13.4580  -15.7180  -34.7200 C.3   207  LEU207      0.0001
     87  N        -11.3700  -14.7120  -29.8030 N.am  208  GLY208     -0.1940
     88  CA       -10.3640  -14.3090  -28.8150 C.3   208  GLY208      0.2014
     89  C         -8.9700  -14.7940  -29.1140 C.2   208  GLY208      0.2639
     90  O         -8.6530  -15.1610  -30.2000 O.2   208  GLY208     -0.2714
     91  N         -8.0970  -14.4880  -28.1760 N.am  209  TYR209     -0.1959
     92  CA        -6.6660  -14.6740  -28.4110 C.3   209  TYR209      0.1771
     93  C         -6.1900  -16.1170  -28.3390 C.2   209  TYR209      0.2620
     94  O         -5.7060  -16.6650  -29.3020 O.2   209  TYR209     -0.2715
     95  CB        -6.0010  -13.7990  -27.3530 C.3   209  TYR209      0.0574
     96  CG        -4.5120  -13.9010  -27.3760 C.ar  209  TYR209     -0.0198
     97  CD1       -3.8110  -13.2240  -28.3100 C.ar  209  TYR209     -0.0009
     98  CD2       -3.8290  -14.5430  -26.3500 C.ar  209  TYR209     -0.0009
     99  CE1       -2.4280  -13.2640  -28.3090 C.ar  209  TYR209      0.0417
    100  CE2       -2.4390  -14.6120  -26.3200 C.ar  209  TYR209      0.0417
    101  CZ        -1.7600  -13.9040  -27.3050 C.ar  209  TYR209      0.1957
    102  OH        -0.3770  -13.9130  -27.3430 O.3   209  TYR209     -0.2866
    103  N         -6.4320  -16.7990  -27.1990 N.am  210  ASN210     -0.1958
    104  CA        -5.9620  -18.1800  -27.0800 C.3   210  ASN210      0.1819
    105  C         -6.8360  -19.2070  -27.7950 C.2   210  ASN210      0.2621
    106  O         -6.3830  -20.2410  -28.2480 O.2   210  ASN210     -0.2715
    107  CB        -5.9030  -18.5610  -25.5940 C.3   210  ASN210      0.1195
    108  CG        -4.5720  -18.1630  -24.9620 C.2   210  ASN210      0.2630
    109  OD1       -4.5460  -17.6630  -23.8580 O.2   210  ASN210     -0.2716
    110  ND2       -3.4930  -18.3230  -25.6920 N.am  210  ASN210     -0.0877
    111  N         -8.1270  -18.9080  -27.9260 N.am  211  PHE211     -0.1974
    112  CA        -8.9910  -19.8590  -28.5740 C.3   211  PHE211      0.1639
    113  C        -10.2770  -19.0660  -28.9700 C.2   211  PHE211      0.2290
    114  O        -10.4380  -17.8870  -28.6000 O.2   211  PHE211     -0.2864
    115  CB        -9.3240  -21.0360  -27.5590 C.3   211  PHE211      0.0560
    116  CG       -10.0660  -20.5960  -26.3890 C.ar  211  PHE211     -0.0200
    117  CD1       -9.4420  -20.1280  -25.2240 C.ar  211  PHE211     -0.0042
    118  CD2      -11.5060  -20.6320  -26.4360 C.ar  211  PHE211     -0.0042
    119  CE1      -10.2370  -19.6520  -24.1550 C.ar  211  PHE211     -0.0003
    120  CE2      -12.2560  -20.1940  -25.3390 C.ar  211  PHE211     -0.0003
    121  CZ       -11.6160  -19.7270  -24.1750 C.ar  211  PHE211     -0.0000
    122  N         -6.7550  -15.9070  -32.1690 N.3   232  MET232     -0.1245
    123  CA        -5.9620  -14.8940  -32.8510 C.3   232  MET232      0.1570
    124  C         -4.4550  -15.1310  -32.5920 C.2   232  MET232      0.2261
    125  O         -3.5850  -14.7700  -33.3780 O.2   232  MET232     -0.2867
    126  CB        -6.4160  -13.4330  -32.4420 C.3   232  MET232      0.0387
    127  CG        -7.8380  -13.0510  -32.8650 C.3   232  MET232      0.0595
    128  SD        -7.9280  -13.1320  -34.7100 S.3   232  MET232     -0.1393
    129  CE        -8.9000  -14.5690  -34.9890 C.3   232  MET232      0.0692
    130  N         -1.4160  -14.7190  -35.3450 N.3   236  ILE236     -0.1245
    131  CA        -0.1880  -13.9290  -35.0510 C.3   236  ILE236      0.1561
    132  C          1.0490  -14.7980  -35.2910 C.2   236  ILE236      0.2260
    133  O          2.0170  -14.3930  -35.9910 O.2   236  ILE236     -0.2867
    134  CB        -0.1960  -13.3380  -33.6260 C.3   236  ILE236      0.0252
    135  CG1       -1.3020  -12.2690  -33.5640 C.3   236  ILE236      0.0019
    136  CG2        1.1960  -12.7480  -33.2390 C.3   236  ILE236      0.0019
    137  CD1       -1.7300  -11.9730  -32.1130 C.3   236  ILE236      0.0001
    138  N          1.6400   -8.9580  -34.6060 N.3   251  GLU251     -0.1245
    139  CA         0.2870   -8.4530  -34.1910 C.3   251  GLU251      0.1567
    140  C          0.0960   -7.0360  -34.6560 C.2   251  GLU251      0.2260
    141  O         -0.9860   -6.6840  -35.0600 O.2   251  GLU251     -0.2867
    142  CB         0.2620   -8.5200  -32.6310 C.3   251  GLU251      0.0388
    143  CG        -1.1580   -8.2500  -32.1370 C.3   251  GLU251      0.1160
    144  CD        -1.1190   -8.0910  -30.6220 C.2   251  GLU251      0.3649
    145  OE1       -0.1720   -7.4210  -30.1350 O.co2 251  GLU251     -0.2457
    146  OE2       -1.9060   -8.7230  -29.9360 O.co2 251  GLU251     -0.2457
    147  N         -1.0140   -7.1820  -38.2640 N.3   254  ILE254     -0.1231
    148  CA        -2.3840   -7.6590  -38.4270 C.3   254  ILE254      0.1692
    149  C         -3.4040   -6.5630  -38.0890 C.2   254  ILE254      0.2591
    150  O         -4.3730   -6.3840  -38.8340 O.2   254  ILE254     -0.2718
    151  CB        -2.6120   -8.8730  -37.5640 C.3   254  ILE254      0.0266
    152  CG1       -1.8180  -10.0200  -38.1480 C.3   254  ILE254      0.0019
    153  CG2       -4.0940   -9.2510  -37.6380 C.3   254  ILE254      0.0020
    154  CD1       -1.6190  -11.1610  -37.1440 C.3   254  ILE254      0.0001
    155  N         -3.1700   -5.8700  -36.9910 N.am  255  ILE255     -0.1980
    156  CA        -4.1160   -4.8350  -36.4930 C.3   255  ILE255      0.1595
    157  C         -4.0630   -3.6570  -37.4720 C.2   255  ILE255      0.2287
    158  O         -5.1210   -3.0240  -37.8330 O.2   255  ILE255     -0.2864
    159  CB        -3.6750   -4.3360  -35.1370 C.3   255  ILE255      0.0276
    160  CG1       -3.9380   -5.4390  -34.1120 C.3   255  ILE255      0.0022
    161  CG2       -4.3550   -2.9710  -34.7780 C.3   255  ILE255      0.0022
    162  CD1       -3.5100   -5.1740  -32.7060 C.3   255  ILE255      0.0001
    163  N        -15.3310  -10.1730  -29.7330 N.3   330  GLY330     -0.1210
    164  CA       -13.8950  -10.2740  -29.4080 C.3   330  GLY330      0.1956
    165  C        -12.9900   -9.5380  -30.4210 C.2   330  GLY330      0.2609
    166  O        -13.4090   -8.8490  -31.3710 O.2   330  GLY330     -0.2717
    167  N        -11.6900   -9.6600  -30.1600 N.am  331  GLY331     -0.2014
    168  CA       -10.6950   -8.9150  -30.9920 C.3   331  GLY331      0.1506
    169  C        -10.7230   -9.2450  -32.4070 C.3   331  GLY331      0.2054
    170  O        -10.6080   -8.3050  -33.2790 O.3   331  GLY331     -0.2184
    171  N        -12.8640   -7.4100  -35.1170 N.3   334  LYS334     -0.1231
    172  CA       -12.4380   -6.1150  -35.6930 C.3   334  LYS334      0.1693
    173  C        -11.6220   -6.2060  -36.9580 C.2   334  LYS334      0.2592
    174  O        -11.2750   -5.1770  -37.5790 O.2   334  LYS334     -0.2718
    175  CB       -11.6370   -5.3890  -34.5750 C.3   334  LYS334      0.0285
    176  CG       -12.6380   -4.9830  -33.5110 C.3   334  LYS334      0.0035
    177  CD       -11.9630   -3.9810  -32.5670 C.3   334  LYS334      0.0206
    178  CE       -11.2750   -4.8130  -31.6000 C.3   334  LYS334      0.1093
    179  NZ       -10.9850   -3.7940  -30.5020 N.3   334  LYS334     -0.1314
    180  N        -11.3100   -7.4120  -37.4110 N.am  335  ILE335     -0.1966
    181  CA       -10.5400   -7.5680  -38.6760 C.3   335  ILE335      0.1712
    182  C        -11.4870   -7.1230  -39.8130 C.2   335  ILE335      0.2458
    183  O        -12.6390   -7.5600  -39.8880 O.2   335  ILE335     -0.2730
    184  CB       -10.1130   -9.0280  -38.8540 C.3   335  ILE335      0.0289
    185  CG1       -9.0960   -9.4470  -37.7070 C.3   335  ILE335      0.0022
    186  CG2       -9.5100   -9.1840  -40.2500 C.3   335  ILE335      0.0023
    187  CD1       -8.8210  -10.9480  -37.7240 C.3   335  ILE335      0.0001
    188  N        -11.0290   -6.2090  -40.6900 N.am  336  PRO336     -0.2727
    189  CA       -11.9090   -5.7270  -41.7830 C.3   336  PRO336      0.1402
    190  C        -12.3720   -6.8730  -42.6880 C.2   336  PRO336      0.2269
    191  O        -11.6110   -7.8280  -43.0180 O.2   336  PRO336     -0.2865
    192  CB       -10.9170   -4.8450  -42.6490 C.3   336  PRO336      0.0296
    193  CG       -10.0400   -4.2560  -41.5440 C.3   336  PRO336      0.0237
    194  CD        -9.7660   -5.4420  -40.5920 C.3   336  PRO336      0.0939
    195  N        -14.5210   -5.7370  -28.5360 N.3   374  SER374     -0.1217
    196  CA       -13.7390   -6.3350  -27.4770 C.3   374  SER374      0.1889
    197  C        -14.1450   -5.8360  -26.0360 C.2   374  SER374      0.2288
    198  O        -13.7410   -6.4240  -25.0090 O.2   374  SER374     -0.2866
    199  CB       -12.2420   -6.2360  -27.8110 C.3   374  SER374      0.2089
    200  OG       -11.9330   -4.8840  -27.8110 O.3   374  SER374     -0.2183
@<TRIPOS>BOND
     1   191   190    2
     2   190   189    1
     3   192   189    1
     4   192   193    1
     5   189   188    1
     6   193   194    1
     7   188   194    1
     8   188   182   am
     9   186   184    1
    10   183   182    2
    11   182   181    1
    12   184   181    1
    13   184   185    1
    14   150   149    2
    15   181   180    1
    16   148   147    1
    17   148   149    1
    18   148   151    1
    19   152   151    1
    20   152   154    1
    21   149   155   am
    22   158   157    2
    23   187   185    1
    24   153   151    1
    25   174   173    2
    26   157   156    1
    27   180   173   am
    28   155   156    1
    29   173   172    1
    30   156   159    1
    31   133   132    2
    32   172   171    1
    33   172   175    1
    34   130   131    1
    35   132   131    1
    36    85    84    1
    37   159   161    1
    38   159   160    1
    39   141   140    2
    40   131   134    1
    41   129   128    1
    42    86    84    1
    43   128   127    1
    44   140   139    1
    45   138   139    1
    46   175   176    1
    47   139   142    1
    48   160   162    1
    49    84    83    1
    50   134   135    1
    51   134   136    1
    52   135   137    1
    53   176   177    1
    54   125   124    2
    55   170   169    1
    56    83    80    1
    57   127   126    1
    58   123   124    1
    59   123   126    1
    60   123   122    1
    61   142   143    1
    62   177   178    1
    63   169   168    1
    64   143   144    1
    65    80    79    1
    66    80    81    1
    67   178   179    1
    68   166   165    2
    69    79    73   am
    70    82    81    2
    71   168   167    1
    72    81    87   am
    73   144   145   ar
    74   144   146   ar
    75   165   167   am
    76   165   164    1
    77    71    72    1
    78    73    74    2
    79    73    72    1
    80    90    89    2
    81    87    88    1
    82    72    75    1
    83   163   164    1
    84    94    93    2
    85    89    88    1
    86    89    91   am
    87   113   114    2
    88   113   112    1
    89    49    48    1
    90   112   111    1
    91   112   115    1
    92   195   196    1
    93    92    93    1
    94    92    91    1
    95    92    95    1
    96    93   103   am
    97    97    99   ar
    98    97    96   ar
    99    99   101   ar
   100   106   105    2
   101    75    76    1
   102   111   105   am
   103   199   200    1
   104   199   196    1
   105   105   104    1
   106    77    76    2
   107    76    78   am
   108   115   116    1
   109    48    47   ar
   110    48    46   ar
   111    47    45   ar
   112   196   197    1
   113    37    35    1
   114    96    95    1
   115    96    98   ar
   116   102   101    1
   117   101   100   ar
   118   103   104    1
   119    34    35    2
   120    34    33    1
   121   104   107    1
   122    35    36    1
   123    32    33    1
   124    32    31    1
   125   118   116   ar
   126   118   120   ar
   127   116   117   ar
   128    46    44   ar
   129    98   100   ar
   130    45    43   ar
   131   197   198    2
   132    31    28    1
   133   110   108   am
   134   107   108    1
   135   120   121   ar
   136   117   119   ar
   137    44    43   ar
   138    43    42    1
   139   108   109    2
   140   121   119   ar
   141    28    29    1
   142    28    27    1
   143    57    58    1
   144    57    56    1
   145    42    39    1
   146    29    30    2
   147    29    38   am
   148    26    25    1
   149    27    23   am
   150    38    39    1
   151    39    40    1
   152    56    55    1
   153    23    24    2
   154    23    22    1
   155    55    54    1
   156    25    22    1
   157    68    67    2
   158    64    63    1
   159    21    22    1
   160    21    19   am
   161    63    60    1
   162    41    40    2
   163     8     6   ar
   164    70    69    1
   165    67    66    1
   166    18    19    1
   167    18    17    1
   168    54    51    1
   169    19    20    2
   170    69    66    1
   171     6     7   ar
   172     6     5    1
   173    60    61    1
   174    60    59    1
   175    66    65    1
   176    51    50    1
   177    51    52    1
   178    17    11   am
   179    61    62    2
   180     5     2    1
   181     4     3    2
   182    12    11    2
   183    11    10    1
   184    52    53    2
   185     3     2    1
   186     3     9   am
   187     2     1    1
   188     9    10    1
   189    10    13    1
   190    15    13    1
   191    13    14    1
   192    14    16    1
