@<TRIPOS>MOLECULE
tmp/4a2dA01.pdb
 105 99 0 0 0
SMALL
GASTEIGER

@<TRIPOS>ATOM
      1  N         31.6530  -37.0890  -16.3470 N.3   318  PRO318     -0.2116
      2  CA        30.1830  -37.0830  -16.3970 C.3   318  PRO318      0.1372
      3  C         29.5610  -37.6480  -15.1180 C.2   318  PRO318      0.2244
      4  O         30.0220  -38.6760  -14.6100 O.2   318  PRO318     -0.2868
      5  CB        29.8590  -38.0000  -17.5800 C.3   318  PRO318      0.0268
      6  CG        31.0610  -37.9580  -18.4480 C.3   318  PRO318      0.0207
      7  CD        32.2520  -37.6400  -17.5800 C.3   318  PRO318      0.0892
      8  N         22.8900  -35.1480  -10.6510 N.3   324  ALA324     -0.1231
      9  CA        22.8510  -34.8600  -12.0830 C.3   324  ALA324      0.1694
     10  C         21.4180  -34.9460  -12.5700 C.2   324  ALA324      0.2592
     11  O         20.7110  -35.8830  -12.2290 O.2   324  ALA324     -0.2718
     12  CB        23.7340  -35.8340  -12.8590 C.3   324  ALA324      0.0304
     13  N         20.9890  -33.9460  -13.3430 N.am  325  LEU325     -0.1966
     14  CA        19.6600  -33.9430  -13.9470 C.3   325  LEU325      0.1728
     15  C         19.7400  -33.7550  -15.4700 C.2   325  LEU325      0.2616
     16  O         20.6380  -33.0740  -15.9790 O.2   325  LEU325     -0.2715
     17  CB        18.8060  -32.8330  -13.3390 C.3   325  LEU325      0.0311
     18  CG        18.4780  -32.8290  -11.8550 C.3   325  LEU325      0.0022
     19  CD1       17.8620  -31.4890  -11.4960 C.3   325  LEU325      0.0001
     20  CD2       17.5220  -33.9680  -11.4930 C.3   325  LEU325      0.0001
     21  N         18.8080  -34.3710  -16.1880 N.am  326  ASN326     -0.1972
     22  CA        18.7190  -34.2290  -17.6440 C.3   326  ASN326      0.1688
     23  C         17.3540  -33.6910  -18.0040 C.2   326  ASN326      0.2292
     24  O         16.3460  -34.2520  -17.5990 O.2   326  ASN326     -0.2864
     25  CB        18.9820  -35.5620  -18.3770 C.3   326  ASN326      0.1181
     26  CG        19.0560  -35.3940  -19.9040 C.2   326  ASN326      0.2629
     27  OD1       18.2050  -35.8900  -20.6270 O.2   326  ASN326     -0.2716
     28  ND2       20.0630  -34.6750  -20.3880 N.am  326  ASN326     -0.0877
     29  N         24.8210  -31.0110  -11.7550 N.3   380  GLU380     -0.1245
     30  CA        25.0520  -31.0030  -13.1960 C.3   380  GLU380      0.1567
     31  C         23.7380  -31.1240  -13.9450 C.2   380  GLU380      0.2260
     32  O         22.9630  -32.0600  -13.7020 O.2   380  GLU380     -0.2867
     33  CB        25.9940  -32.1350  -13.5940 C.3   380  GLU380      0.0388
     34  CG        26.3450  -32.1970  -15.0690 C.3   380  GLU380      0.1160
     35  CD        27.4760  -33.1650  -15.3420 C.2   380  GLU380      0.3649
     36  OE1       27.2720  -34.3890  -15.1820 O.co2 380  GLU380     -0.2457
     37  OE2       28.5810  -32.6990  -15.6830 O.co2 380  GLU380     -0.2457
     38  N         22.1700  -31.1970  -17.9190 N.3   382  SER382     -0.1217
     39  CA        22.3290  -31.2510  -19.3710 C.3   382  SER382      0.1889
     40  C         21.0230  -30.8740  -20.0350 C.2   382  SER382      0.2288
     41  O         19.9500  -31.2540  -19.5840 O.2   382  SER382     -0.2866
     42  CB        22.8030  -32.6400  -19.8410 C.3   382  SER382      0.2089
     43  OG        22.0720  -33.6880  -19.2110 O.3   382  SER382     -0.2183
     44  N         19.9710  -31.1730  -23.6610 N.3   384  PRO384     -0.2102
     45  CA        20.2210  -31.5430  -25.0450 C.3   384  PRO384      0.1504
     46  C         19.1850  -30.9220  -25.9740 C.2   384  PRO384      0.2575
     47  O         17.9970  -30.9750  -25.6950 O.2   384  PRO384     -0.2718
     48  CB        20.1510  -33.0850  -25.0410 C.3   384  PRO384      0.0282
     49  CG        19.4010  -33.4570  -23.8250 C.3   384  PRO384      0.0208
     50  CD        19.6090  -32.3320  -22.8240 C.3   384  PRO384      0.0893
     51  N         19.6630  -30.3140  -27.0560 N.am  385  ALA385     -0.1980
     52  CA        18.8180  -29.6580  -28.0370 C.3   385  ALA385      0.1597
     53  C         18.0630  -30.6920  -28.8390 C.2   385  ALA385      0.2287
     54  O         18.5050  -31.8380  -28.9710 O.2   385  ALA385     -0.2864
     55  CB        19.6520  -28.7980  -28.9520 C.3   385  ALA385      0.0319
     56  N         30.0750  -27.9190  -21.2210 N.3   407  ARG407     -0.1245
     57  CA        29.9500  -28.1750  -22.6560 C.3   407  ARG407      0.1563
     58  C         29.0910  -27.1170  -23.3630 C.2   407  ARG407      0.2260
     59  O         27.9810  -26.8400  -22.9360 O.2   407  ARG407     -0.2867
     60  CB        29.3990  -29.5800  -22.9070 C.3   407  ARG407      0.0307
     61  CG        29.3910  -29.9320  -24.3930 C.3   407  ARG407      0.0489
     62  CD        29.0030  -31.3770  -24.6960 C.3   407  ARG407      0.2205
     63  NE        28.6750  -31.4750  -26.1180 N.pl3 407  ARG407     -0.0865
     64  CZ        28.2270  -32.5620  -26.7480 C.cat 407  ARG407      0.5346
     65  NH1       28.0510  -33.7120  -26.0930 N.pl3 407  ARG407      0.1354
     66  NH2       27.9640  -32.4880  -28.0560 N.pl3 407  ARG407      0.1354
     67  N         34.0490  -31.8180  -23.3480 N.3   414  TYR414     -0.1241
     68  CA        33.7010  -31.3930  -22.0080 C.3   414  TYR414      0.1605
     69  C         34.8990  -30.6750  -21.4180 C.2   414  TYR414      0.2264
     70  O         36.0450  -31.0810  -21.6200 O.2   414  TYR414     -0.2867
     71  CB        33.2700  -32.5960  -21.1740 C.3   414  TYR414      0.0534
     72  CG        31.9300  -33.1350  -21.6430 C.ar  414  TYR414     -0.0201
     73  CD1       31.8360  -33.9870  -22.7480 C.ar  414  TYR414     -0.0009
     74  CD2       30.7540  -32.7600  -21.0100 C.ar  414  TYR414     -0.0009
     75  CE1       30.6050  -34.4480  -23.1970 C.ar  414  TYR414      0.0417
     76  CE2       29.5240  -33.2190  -21.4450 C.ar  414  TYR414      0.0417
     77  CZ        29.4540  -34.0600  -22.5340 C.ar  414  TYR414      0.1957
     78  OH        28.2170  -34.4940  -22.9570 O.3   414  TYR414     -0.2866
     79  N         21.4820  -32.2830  -31.6190 N.3   431  GLY431     -0.1210
     80  CA        22.7480  -33.0100  -31.5870 C.3   431  GLY431      0.1956
     81  C         23.6540  -32.5250  -30.4710 C.2   431  GLY431      0.2612
     82  O         24.4530  -33.2980  -29.9270 O.2   431  GLY431     -0.2717
     83  N         23.5430  -31.2370  -30.1500 N.am  432  ASP432     -0.1959
     84  CA        24.2240  -30.6780  -29.0020 C.3   432  ASP432      0.1840
     85  C         23.7640  -31.3390  -27.6900 C.2   432  ASP432      0.2622
     86  O         22.6910  -31.9460  -27.6020 O.2   432  ASP432     -0.2715
     87  CB        23.9830  -29.1630  -28.9260 C.3   432  ASP432      0.1450
     88  CG        24.8450  -28.3730  -29.9010 C.2   432  ASP432      0.3671
     89  OD1       26.0090  -28.7760  -30.1710 O.co2 432  ASP432     -0.2456
     90  OD2       24.3640  -27.3330  -30.4000 O.co2 432  ASP432     -0.2456
     91  N         24.5990  -31.2010  -26.6690 N.am  433  ASN433     -0.1972
     92  CA        24.2320  -31.5420  -25.3160 C.3   433  ASN433      0.1688
     93  C         24.8600  -30.5190  -24.3430 C.2   433  ASN433      0.2292
     94  O         25.7040  -30.8740  -23.5080 O.2   433  ASN433     -0.2864
     95  CB        24.6660  -32.9830  -25.0160 C.3   433  ASN433      0.1181
     96  CG        23.8240  -33.6290  -23.9500 C.2   433  ASN433      0.2629
     97  OD1       23.0750  -32.9580  -23.2420 O.2   433  ASN433     -0.2716
     98  ND2       23.9350  -34.9470  -23.8260 N.am  433  ASN433     -0.0877
     99  N         25.8180  -28.5410  -21.3810 N.3   435  THR435     -0.1218
    100  CA        25.8150  -29.1250  -20.0710 C.3   435  THR435      0.1862
    101  C         26.4130  -28.1160  -19.1040 C.2   435  THR435      0.2287
    102  O         27.4370  -27.5280  -19.3970 O.2   435  THR435     -0.2866
    103  CB        26.6240  -30.4640  -20.0680 C.3   435  THR435      0.1770
    104  OG1       26.0770  -31.3440  -21.0640 O.3   435  THR435     -0.2211
    105  CG2       26.5730  -31.1600  -18.7230 C.3   435  THR435      0.0375
@<TRIPOS>BOND
     1    79    80    1
     2    80    81    1
     3    81    83   am
     4    81    82    2
     5    90    88   ar
     6    89    88   ar
     7    83    84    1
     8    88    87    1
     9    84    87    1
    10    84    85    1
    11    54    53    2
    12    55    52    1
    13    53    52    1
    14    66    64    1
    15    52    51    1
    16    85    86    2
    17    85    91   am
    18    51    46   am
    19    64    63    2
    20    64    65    1
    21    91    92    1
    22    63    62    1
    23    46    47    2
    24    46    45    1
    25    92    95    1
    26    92    93    1
    27    45    48    1
    28    45    44    1
    29    48    49    1
    30    95    96    1
    31    62    61    1
    32    61    60    1
    33    93    94    2
    34    96    98   am
    35    96    97    2
    36    49    50    1
    37    44    50    1
    38    58    59    2
    39    58    57    1
    40    67    68    1
    41    75    73   ar
    42    75    77   ar
    43    78    77    1
    44    60    57    1
    45    73    72   ar
    46    57    56    1
    47    77    76   ar
    48    68    69    1
    49    68    71    1
    50    72    71    1
    51    72    74   ar
    52    70    69    2
    53    76    74   ar
    54    99   100    1
    55   104   103    1
    56    27    26    2
    57    28    26   am
    58   100   103    1
    59   100   101    1
    60   103   105    1
    61    40    41    2
    62    40    39    1
    63    26    25    1
    64    42    39    1
    65    42    43    1
    66   102   101    2
    67    39    38    1
    68     6     5    1
    69     6     7    1
    70    25    22    1
    71    23    22    1
    72    23    24    2
    73    22    21    1
    74     5     2    1
    75     7     1    1
    76     2     1    1
    77     2     3    1
    78    21    15   am
    79    16    15    2
    80    37    35   ar
    81    15    14    1
    82    35    36   ar
    83    35    34    1
    84     3     4    2
    85    34    33    1
    86    14    13    1
    87    14    17    1
    88    31    32    2
    89    31    30    1
    90    33    30    1
    91    13    10   am
    92    17    18    1
    93    30    29    1
    94    12     9    1
    95    10    11    2
    96    10     9    1
    97     9     8    1
    98    18    19    1
    99    18    20    1
