@<TRIPOS>MOLECULE
tmp/4a2dA00.pdb
 84 80 0 0 0
SMALL
GASTEIGER

@<TRIPOS>ATOM
      1  N          7.9560    4.2850  -36.4120 N.3    20  PHE20      -0.1241
      2  CA         6.5580    3.8370  -36.4170 C.3    20  PHE20       0.1605
      3  C          5.9890    4.0670  -35.0250 C.2    20  PHE20       0.2264
      4  O          6.6290    3.7280  -34.0210 O.2    20  PHE20      -0.2867
      5  CB         6.4750    2.3530  -36.7880 C.3    20  PHE20       0.0534
      6  CG         5.0640    1.8210  -36.9030 C.ar   20  PHE20      -0.0203
      7  CD1        4.3970    1.3130  -35.7780 C.ar   20  PHE20      -0.0042
      8  CD2        4.4060    1.8180  -38.1390 C.ar   20  PHE20      -0.0042
      9  CE1        3.0880    0.8190  -35.8840 C.ar   20  PHE20      -0.0003
     10  CE2        3.0960    1.3180  -38.2550 C.ar   20  PHE20      -0.0003
     11  CZ         2.4350    0.8200  -37.1280 C.ar   20  PHE20      -0.0000
     12  N          3.5870    3.3960  -31.9150 N.3    22  ARG22      -0.1231
     13  CA         2.7930    2.3500  -31.2910 C.3    22  ARG22       0.1694
     14  C          2.7850    2.5520  -29.7860 C.2    22  ARG22       0.2591
     15  O          3.7060    3.1710  -29.2340 O.2    22  ARG22      -0.2718
     16  CB         3.3180    0.9510  -31.6480 C.3    22  ARG22       0.0321
     17  CG         4.7280    0.6250  -31.1180 C.3    22  ARG22       0.0489
     18  CD         4.9060   -0.8850  -30.9100 C.3    22  ARG22       0.2205
     19  NE         4.3040   -1.3020  -29.6410 N.pl3  22  ARG22      -0.0865
     20  CZ         4.3940   -2.5170  -29.1040 C.cat  22  ARG22       0.5346
     21  NH1        5.0860   -3.4830  -29.7080 N.pl3  22  ARG22       0.1354
     22  NH2        3.7920   -2.7550  -27.9470 N.pl3  22  ARG22       0.1354
     23  N          1.7470    2.0300  -29.1350 N.am   23  GLN23      -0.1979
     24  CA         1.6750    2.0320  -27.6850 C.3    23  GLN23       0.1601
     25  C          2.7130    1.0770  -27.1290 C.2    23  GLN23       0.2287
     26  O          2.9290   -0.0110  -27.6920 O.2    23  GLN23      -0.2864
     27  CB         0.2860    1.6060  -27.2110 C.3    23  GLN23       0.0394
     28  CG        -0.7760    2.6860  -27.3180 C.3    23  GLN23       0.0908
     29  CD        -0.4400    3.9590  -26.5600 C.2    23  GLN23       0.2608
     30  OE1       -0.3360    5.0070  -27.1690 O.2    23  GLN23      -0.2717
     31  NE2       -0.2670    3.8750  -25.2350 N.am   23  GLN23      -0.0878
     32  N         -3.0940    0.0640  -19.3040 N.3    54  ASN54      -0.1240
     33  CA        -3.3980   -0.7510  -20.4860 C.3    54  ASN54       0.1653
     34  C         -3.3250   -2.2450  -20.1570 C.2    54  ASN54       0.2266
     35  O         -2.2540   -2.7410  -19.8080 O.2    54  ASN54      -0.2867
     36  CB        -2.3840   -0.4180  -21.5880 C.3    54  ASN54       0.1155
     37  CG        -2.7390   -1.0230  -22.9310 C.2    54  ASN54       0.2627
     38  OD1       -3.0090   -2.2260  -23.0510 O.2    54  ASN54      -0.2716
     39  ND2       -2.7170   -0.1900  -23.9600 N.am   54  ASN54      -0.0877
     40  N         -4.1110   -4.9080  -22.2450 N.3    56  THR56      -0.1203
     41  CA        -3.5780   -5.6630  -23.3650 C.3    56  THR56       0.1994
     42  C         -2.0690   -5.9220  -23.1570 C.2    56  THR56       0.2617
     43  O         -1.5520   -6.9900  -23.4880 O.2    56  THR56      -0.2717
     44  CB        -3.8870   -4.9290  -24.7000 C.3    56  THR56       0.1784
     45  OG1       -5.3000   -4.6700  -24.7930 O.3    56  THR56      -0.2211
     46  CG2       -3.4580   -5.7590  -25.9080 C.3    56  THR56       0.0376
     47  N         -1.3790   -4.9520  -22.5710 N.am   57  MET57      -0.1979
     48  CA         0.0290   -5.1200  -22.2240 C.3    57  MET57       0.1605
     49  C          0.2510   -5.4120  -20.7320 C.2    57  MET57       0.2287
     50  O          1.4020   -5.5200  -20.2770 O.2    57  MET57      -0.2864
     51  CB         0.8160   -3.8870  -22.6680 C.3    57  MET57       0.0413
     52  CG         0.6410   -3.6170  -24.1540 C.3    57  MET57       0.0598
     53  SD         1.6590   -2.2960  -24.8030 S.3    57  MET57      -0.1393
     54  CE         1.0110   -0.8430  -23.9800 C.3    57  MET57       0.0692
     55  N          5.8140   -4.0770  -34.3760 N.3   153  HIS153     -0.1226
     56  CA         4.8090   -3.0690  -34.5940 C.3   153  HIS153      0.1752
     57  C          3.4820   -3.4480  -33.9750 C.2   153  HIS153      0.2596
     58  O          2.7080   -2.5650  -33.6260 O.2   153  HIS153     -0.2718
     59  CB         4.7010   -2.7520  -36.0780 C.3   153  HIS153      0.0759
     60  CG         5.8960   -2.0150  -36.6010 C.ar  153  HIS153      0.0818
     61  ND1        6.1790   -1.8990  -37.9450 N.ar  153  HIS153     -0.2268
     62  CD2        6.8940   -1.3750  -35.9480 C.ar  153  HIS153      0.1154
     63  CE1        7.2900   -1.2040  -38.0990 C.ar  153  HIS153      0.1986
     64  NE2        7.7450   -0.8780  -36.9030 N.ar  153  HIS153     -0.2212
     65  N          3.2460   -4.7530  -33.8130 N.am  154  LEU154     -0.1966
     66  CA         2.0970   -5.2620  -33.0630 C.3   154  LEU154      0.1728
     67  C          2.5450   -5.7550  -31.7090 C.2   154  LEU154      0.2616
     68  O          3.5350   -6.4640  -31.6250 O.2   154  LEU154     -0.2715
     69  CB         1.3980   -6.4090  -33.8110 C.3   154  LEU154      0.0311
     70  CG         0.7420   -6.0240  -35.1430 C.3   154  LEU154      0.0022
     71  CD1        0.0950   -7.2410  -35.7780 C.3   154  LEU154      0.0001
     72  CD2       -0.2830   -4.8680  -34.9870 C.3   154  LEU154      0.0001
     73  N          1.8030   -5.4120  -30.6580 N.am  155  ALA155     -0.1977
     74  CA         2.1330   -5.8440  -29.2930 C.3   155  ALA155      0.1597
     75  C          2.1810   -7.3700  -29.1350 C.2   155  ALA155      0.2287
     76  O          1.6440   -8.1090  -29.9650 O.2   155  ALA155     -0.2864
     77  CB         1.1620   -5.2490  -28.2960 C.3   155  ALA155      0.0319
     78  N         -1.1050   -9.0770  -29.2160 N.3   158  VAL158     -0.1245
     79  CA        -1.8790   -8.6440  -30.3800 C.3   158  VAL158      0.1561
     80  C         -1.4540   -9.3640  -31.6560 C.2   158  VAL158      0.2260
     81  O         -2.3080   -9.8160  -32.4240 O.2   158  VAL158     -0.2867
     82  CB        -1.8200   -7.0910  -30.5750 C.3   158  VAL158      0.0252
     83  CG1       -2.4290   -6.6690  -31.9200 C.3   158  VAL158      0.0019
     84  CG2       -2.5370   -6.3960  -29.4390 C.3   158  VAL158      0.0019
@<TRIPOS>BOND
     1    10     8   ar
     2    10    11   ar
     3     8     6   ar
     4    63    61   ar
     5    63    64   ar
     6    61    60   ar
     7    11     9   ar
     8    64    62   ar
     9     6     5    1
    10     6     7   ar
    11     5     2    1
    12    60    59    1
    13    60    62   ar
    14     2     1    1
    15     2     3    1
    16    59    56    1
    17     9     7   ar
    18    71    70    1
    19    70    72    1
    20    70    69    1
    21     3     4    2
    22    56    55    1
    23    56    57    1
    24    57    65   am
    25    57    58    2
    26    65    66    1
    27    69    66    1
    28    66    67    1
    29    81    80    2
    30    83    82    1
    31    12    13    1
    32    67    68    2
    33    67    73   am
    34    80    79    1
    35    16    13    1
    36    16    17    1
    37    13    14    1
    38    17    18    1
    39    18    19    1
    40    73    74    1
    41    82    79    1
    42    82    84    1
    43    79    78    1
    44    76    75    2
    45    14    15    2
    46    14    23   am
    47    21    20    1
    48    19    20    2
    49    74    75    1
    50    74    77    1
    51    23    24    1
    52    20    22    1
    53    26    25    2
    54    24    27    1
    55    24    25    1
    56    28    27    1
    57    28    29    1
    58    30    29    2
    59    29    31   am
    60    46    44    1
    61    53    52    1
    62    53    54    1
    63    45    44    1
    64    44    41    1
    65    52    51    1
    66    39    37   am
    67    43    42    2
    68    41    42    1
    69    41    40    1
    70    42    47   am
    71    38    37    2
    72    37    36    1
    73    51    48    1
    74    47    48    1
    75    48    49    1
    76    36    33    1
    77    49    50    2
    78    33    34    1
    79    33    32    1
    80    34    35    2
