@<TRIPOS>MOLECULE
tmp/4a2jA00.pdb
 222 209 0 0 0
SMALL
GASTEIGER

@<TRIPOS>ATOM
      1  N          6.5060   11.9830   11.5870 N.3    33  LEU33      -0.1245
      2  CA         6.2580   10.5620   11.4310 C.3    33  LEU33       0.1561
      3  C          5.2210   10.3260   10.3340 C.2    33  LEU33       0.2260
      4  O          5.3420    9.3780    9.5890 O.2    33  LEU33      -0.2867
      5  CB         5.8510    9.8860   12.7660 C.3    33  LEU33       0.0270
      6  CG         6.9100    9.7070   13.8900 C.3    33  LEU33       0.0019
      7  CD1        6.3250    8.8680   15.0540 C.3    33  LEU33       0.0001
      8  CD2        8.2070    9.0770   13.4310 C.3    33  LEU33       0.0001
      9  N          7.2160   10.9770    7.0100 N.3    36  LEU36      -0.1231
     10  CA         8.1320    9.8670    6.7740 C.3    36  LEU36       0.1693
     11  C          7.4000    8.5950    6.2840 C.2    36  LEU36       0.2592
     12  O          7.8990    7.8890    5.4200 O.2    36  LEU36      -0.2718
     13  CB         8.9740    9.5720    8.0320 C.3    36  LEU36       0.0284
     14  CG        10.2260   10.4440    8.1380 C.3    36  LEU36       0.0019
     15  CD1       10.8420   10.3560    9.5210 C.3    36  LEU36       0.0001
     16  CD2       11.2370   10.0210    7.0670 C.3    36  LEU36       0.0001
     17  N          6.2010    8.3490    6.8030 N.am   37  ASN37      -0.1974
     18  CA         5.4130    7.1910    6.3810 C.3    37  ASN37       0.1688
     19  C          4.8440    7.3720    4.9870 C.2    37  ASN37       0.2292
     20  O          4.9820    6.4960    4.1580 O.2    37  ASN37      -0.2864
     21  CB         4.3290    6.8520    7.3970 C.3    37  ASN37       0.1181
     22  CG         4.8970    6.3110    8.7060 C.2    37  ASN37       0.2629
     23  OD1        6.0710    5.9510    8.7980 O.2    37  ASN37      -0.2716
     24  ND2        4.0540    6.2520    9.7260 N.am   37  ASN37      -0.0877
     25  N          6.1310    9.2080    2.7190 N.3    39  LEU39      -0.1231
     26  CA         7.2960    9.1230    1.8640 C.3    39  LEU39       0.1693
     27  C          7.7480    7.6740    1.6870 C.2    39  LEU39       0.2593
     28  O          8.0800    7.2370    0.5770 O.2    39  LEU39      -0.2718
     29  CB         8.4430   10.0050    2.4210 C.3    39  LEU39       0.0284
     30  CG         9.8210    9.8970    1.7540 C.3    39  LEU39       0.0019
     31  CD1        9.7410   10.2520    0.2700 C.3    39  LEU39       0.0001
     32  CD2       10.8440   10.7890    2.4720 C.3    39  LEU39       0.0001
     33  N          7.7790    6.9340    2.7840 N.am   40  GLY40      -0.1942
     34  CA         8.1590    5.5370    2.7430 C.3    40  GLY40       0.2014
     35  C          7.2250    4.7000    1.8790 C.2    40  GLY40       0.2638
     36  O          7.6880    3.9010    1.0790 O.2    40  GLY40      -0.2714
     37  N          5.9160    4.9140    2.0020 N.am   41  GLU41      -0.1977
     38  CA         4.9340    4.2400    1.1300 C.3    41  GLU41       0.1602
     39  C          5.2670    4.4520   -0.3600 C.2    41  GLU41       0.2287
     40  O          5.3020    3.4870   -1.1540 O.2    41  GLU41      -0.2864
     41  CB         3.5250    4.7570    1.4350 C.3    41  GLU41       0.0415
     42  CG         2.4020    4.0200    0.7320 C.3    41  GLU41       0.1163
     43  CD         2.0480    2.7070    1.4000 C.2    41  GLU41       0.3649
     44  OE1        2.8730    2.1760    2.1900 O.co2  41  GLU41      -0.2457
     45  OE2        0.9290    2.2040    1.1400 O.co2  41  GLU41      -0.2457
     46  N          8.2800    5.4750   -1.5750 N.3    43  GLN43      -0.1231
     47  CA         9.5500    4.8060   -1.8790 C.3    43  GLN43       0.1698
     48  C          9.3850    3.2870   -2.0690 C.2    43  GLN43       0.2592
     49  O          9.9550    2.7160   -2.9960 O.2    43  GLN43      -0.2718
     50  CB        10.6200    5.1270   -0.8350 C.3    43  GLN43       0.0381
     51  CG        10.9390    6.6140   -0.7830 C.3    43  GLN43       0.0905
     52  CD        12.0420    6.9460    0.2010 C.2    43  GLN43       0.2608
     53  OE1       12.5840    6.0570    0.8550 O.2    43  GLN43      -0.2717
     54  NE2       12.3840    8.2320    0.3110 N.am   43  GLN43      -0.0878
     55  N          8.5790    2.6370   -1.2310 N.am   44  LEU44      -0.1980
     56  CA         8.3530    1.1940   -1.3920 C.3    44  LEU44       0.1596
     57  C          7.6250    0.8490   -2.6880 C.2    44  LEU44       0.2287
     58  O          7.9340   -0.1700   -3.3300 O.2    44  LEU44      -0.2864
     59  CB         7.5770    0.6200   -0.2300 C.3    44  LEU44       0.0297
     60  CG         7.4160   -0.8980   -0.2810 C.3    44  LEU44       0.0022
     61  CD1        8.8090   -1.5580   -0.3900 C.3    44  LEU44       0.0001
     62  CD2        6.7040   -1.3320    0.9640 C.3    44  LEU44       0.0001
     63  N         12.6970   -4.4970    2.6470 N.3    73  TRP73      -0.1227
     64  CA        12.3040   -3.0910    2.4400 C.3    73  TRP73       0.1737
     65  C         13.0130   -2.0750    3.3280 C.2    73  TRP73       0.2595
     66  O         13.4640   -1.0310    2.8440 O.2    73  TRP73      -0.2718
     67  CB        10.7710   -2.8770    2.5340 C.3    73  TRP73       0.0564
     68  CG        10.1390   -3.1890    3.8670 C.ar   73  TRP73       0.0003
     69  CD1        9.6470   -4.3920    4.2710 C.ar   73  TRP73       0.0946
     70  CD2        9.9110   -2.2690    4.9600 C.ar   73  TRP73       0.0152
     71  NE1        9.1390   -4.2890    5.5580 N.ar   73  TRP73      -0.2442
     72  CE2        9.2900   -3.0000    5.9990 C.ar   73  TRP73       0.0810
     73  CE3       10.1910   -0.9070    5.1650 C.ar   73  TRP73       0.0012
     74  CZ2        8.9120   -2.4130    7.2040 C.ar   73  TRP73       0.0191
     75  CZ3        9.8220   -0.3190    6.3850 C.ar   73  TRP73       0.0001
     76  CH2        9.1860   -1.0740    7.3820 C.ar   73  TRP73       0.0015
     77  N         13.1320   -2.3550    4.6170 N.am   74  MET74      -0.1979
     78  CA        13.7730   -1.3840    5.5070 C.3    74  MET74       0.1605
     79  C         15.2470   -1.1840    5.1140 C.2    74  MET74       0.2287
     80  O         15.7570   -0.0520    5.1010 O.2    74  MET74      -0.2864
     81  CB        13.6650   -1.8180    6.9710 C.3    74  MET74       0.0413
     82  CG        14.2930   -0.8150    7.9480 C.3    74  MET74       0.0598
     83  SD        13.1710    0.5630    8.2270 S.3    74  MET74      -0.1393
     84  CE        11.9400   -0.2730    9.2470 C.3    74  MET74       0.0692
     85  N         15.5770    0.9920    1.9470 N.3    77  MET77      -0.1230
     86  CA        15.3080    2.4220    2.1270 C.3    77  MET77       0.1702
     87  C         16.3160    3.1950    2.9580 C.2    77  MET77       0.2592
     88  O         16.6100    4.3380    2.6380 O.2    77  MET77      -0.2718
     89  CB        13.9280    2.6020    2.6590 C.3    77  MET77       0.0401
     90  CG        12.9990    2.2270    1.5560 C.3    77  MET77       0.0596
     91  SD        11.3860    2.5190    2.0570 S.3    77  MET77      -0.1393
     92  CE        10.5820    1.4890    0.8360 C.3    77  MET77       0.0692
     93  N         16.8570    2.5630    3.9880 N.am   78  VAL78      -0.1980
     94  CA        17.9010    3.1890    4.7940 C.3    78  VAL78       0.1595
     95  C         19.1930    3.2860    3.9630 C.2    78  VAL78       0.2287
     96  O         19.9310    4.2540    4.0630 O.2    78  VAL78      -0.2864
     97  CB        18.0730    2.4530    6.1670 C.3    78  VAL78       0.0276
     98  CG1       19.0030    1.2500    6.0610 C.3    78  VAL78       0.0022
     99  CG2       18.5470    3.4190    7.2500 C.3    78  VAL78       0.0022
    100  N         18.5550    6.0520    1.5410 N.3    81  LEU81      -0.1245
    101  CA        18.7020    7.2720    2.3300 C.3    81  LEU81       0.1561
    102  C         20.1740    7.6340    2.4510 C.2    81  LEU81       0.2260
    103  O         20.5670    8.7880    2.2130 O.2    81  LEU81      -0.2867
    104  CB        18.1220    7.0630    3.7270 C.3    81  LEU81       0.0270
    105  CG        18.3630    8.1510    4.7780 C.3    81  LEU81       0.0019
    106  CD1       17.8070    9.4730    4.2490 C.3    81  LEU81       0.0001
    107  CD2       17.7300    7.7510    6.0790 C.3    81  LEU81       0.0001
    108  N         21.6310    9.0300   -0.9510 N.3    84  ARG84      -0.1245
    109  CA        21.1770   10.3850   -1.2270 C.3    84  ARG84       0.1563
    110  C         21.8790   11.4090   -0.3330 C.2    84  ARG84       0.2260
    111  O         22.2620   12.4770   -0.7960 O.2    84  ARG84      -0.2867
    112  CB        19.6680   10.5000   -1.0460 C.3    84  ARG84       0.0307
    113  CG        18.8800    9.8080   -2.1220 C.3    84  ARG84       0.0489
    114  CD        17.4200   10.1740   -2.0480 C.3    84  ARG84       0.2205
    115  NE        16.8420    9.8660   -0.7410 N.pl3  84  ARG84      -0.0865
    116  CZ        16.3830    8.6690   -0.3660 C.cat  84  ARG84       0.5346
    117  NH1       16.4080    7.6330   -1.1970 N.pl3  84  ARG84       0.1354
    118  NH2       15.8770    8.5110    0.8500 N.pl3  84  ARG84       0.1354
    119  N         16.1200   12.5700    3.2520 N.3    96  PHE96      -0.1241
    120  CA        14.9810   11.6620    3.0430 C.3    96  PHE96       0.1605
    121  C         14.3610   11.9630    1.6910 C.2    96  PHE96       0.2264
    122  O         14.1540   11.0690    0.8850 O.2    96  PHE96      -0.2867
    123  CB        13.9410   11.7940    4.1640 C.3    96  PHE96       0.0534
    124  CG        14.4420   11.3730    5.5100 C.ar   96  PHE96      -0.0203
    125  CD1       14.5080   10.0370    5.8480 C.ar   96  PHE96      -0.0042
    126  CD2       14.8230   12.3160    6.4580 C.ar   96  PHE96      -0.0042
    127  CE1       14.9540    9.6440    7.1040 C.ar   96  PHE96      -0.0003
    128  CE2       15.2760   11.9180    7.7130 C.ar   96  PHE96      -0.0003
    129  CZ        15.3400   10.5800    8.0300 C.ar   96  PHE96      -0.0000
    130  N         13.1810   11.7400   17.7040 N.3   112  PHE112     -0.1241
    131  CA        13.8780   10.4540   17.5080 C.3   112  PHE112      0.1605
    132  C         15.3440   10.6920   17.1330 C.2   112  PHE112      0.2264
    133  O         15.8950   10.0610   16.2350 O.2   112  PHE112     -0.2867
    134  CB        13.1460    9.5540   16.5070 C.3   112  PHE112      0.0534
    135  CG        12.6480   10.2770   15.2990 C.ar  112  PHE112     -0.0203
    136  CD1       11.4830   11.0320   15.3620 C.ar  112  PHE112     -0.0042
    137  CD2       13.3450   10.2150   14.1010 C.ar  112  PHE112     -0.0042
    138  CE1       11.0170   11.7160   14.2420 C.ar  112  PHE112     -0.0003
    139  CE2       12.8830   10.8870   12.9720 C.ar  112  PHE112     -0.0003
    140  CZ        11.7200   11.6460   13.0460 C.ar  112  PHE112     -0.0000
    141  N         17.6380    7.6720   16.7650 N.3   115  LEU115     -0.1245
    142  CA        17.2970    6.9550   15.5540 C.3   115  LEU115      0.1561
    143  C         17.9230    7.6870   14.3670 C.2   115  LEU115      0.2260
    144  O         18.4930    7.0540   13.4920 O.2   115  LEU115     -0.2867
    145  CB        15.7790    6.8370   15.3720 C.3   115  LEU115      0.0270
    146  CG        15.3700    5.7190   14.4010 C.3   115  LEU115      0.0019
    147  CD1       15.3790    4.3950   15.1300 C.3   115  LEU115      0.0001
    148  CD2       14.0020    5.9500   13.7550 C.3   115  LEU115      0.0001
    149  N         20.7420    6.0420   11.8380 N.3   119  MET119     -0.1245
    150  CA        20.6100    6.1150   10.3970 C.3   119  MET119      0.1570
    151  C         21.7310    6.9190    9.7370 C.2   119  MET119      0.2261
    152  O         22.0670    6.6610    8.5980 O.2   119  MET119     -0.2867
    153  CB        19.2520    6.7050   10.0370 C.3   119  MET119      0.0387
    154  CG        18.0870    5.7850   10.3460 C.3   119  MET119      0.0595
    155  SD        16.5550    6.4040    9.6400 S.3   119  MET119     -0.1393
    156  CE        16.2570    7.8720   10.6220 C.3   119  MET119      0.0692
    157  N         15.9490   -0.4210   13.5920 N.3   205  LEU205     -0.1245
    158  CA        14.8830    0.3160   12.8910 C.3   205  LEU205      0.1561
    159  C         13.5800   -0.5040   12.8820 C.2   205  LEU205      0.2260
    160  O         12.4950    0.0500   13.0590 O.2   205  LEU205     -0.2867
    161  CB        15.3010    0.6940   11.4640 C.3   205  LEU205      0.0270
    162  CG        16.6530    1.3850   11.2160 C.3   205  LEU205      0.0019
    163  CD1       16.7260    1.8690    9.7600 C.3   205  LEU205      0.0001
    164  CD2       16.9220    2.5090   12.1620 C.3   205  LEU205      0.0001
    165  N         12.0400   -0.1390   16.4100 N.3   208  TYR208     -0.1227
    166  CA        11.4280    1.1900   16.4840 C.3   208  TYR208      0.1736
    167  C         10.1300    1.2370   15.6800 C.2   208  TYR208      0.2595
    168  O          9.1070    1.7530   16.1280 O.2   208  TYR208     -0.2718
    169  CB        12.3750    2.2710   15.9480 C.3   208  TYR208      0.0548
    170  CG        11.8900    3.6640   16.2920 C.ar  208  TYR208     -0.0200
    171  CD1       10.9670    4.3170   15.4840 C.ar  208  TYR208     -0.0009
    172  CD2       12.3280    4.3090   17.4420 C.ar  208  TYR208     -0.0009
    173  CE1       10.5030    5.5850   15.8010 C.ar  208  TYR208      0.0417
    174  CE2       11.8700    5.5910   17.7730 C.ar  208  TYR208      0.0417
    175  CZ        10.9570    6.2180   16.9410 C.ar  208  TYR208      0.1957
    176  OH        10.4850    7.4750   17.2420 O.3   208  TYR208     -0.2866
    177  N         10.1820    0.6930   14.4790 N.am  209  CYS209     -0.1970
    178  CA         9.0610    0.7850   13.5750 C.3   209  CYS209      0.1712
    179  C          7.8750    0.0410   14.1810 C.2   209  CYS209      0.2296
    180  O          6.7970    0.6140   14.3260 O.2   209  CYS209     -0.2864
    181  CB         9.4380    0.2390   12.1950 C.3   209  CYS209      0.0983
    182  SG         8.0320    0.0840   11.1030 S.3   209  CYS209     -0.0798
    183  N          6.3280    1.7860   17.1980 N.3   212  THR212     -0.1218
    184  CA         5.5630    2.9570   16.7630 C.3   212  THR212      0.1862
    185  C          4.2390    2.5210   16.1250 C.2   212  THR212      0.2287
    186  O          3.2080    3.1760   16.2960 O.2   212  THR212     -0.2866
    187  CB         6.3660    3.8700   15.7730 C.3   212  THR212      0.1770
    188  OG1        7.6050    4.2640   16.3650 O.3   212  THR212     -0.2211
    189  CG2        5.5870    5.1360   15.4420 C.3   212  THR212      0.0375
    190  N          0.0820    8.8270   14.5120 N.3   221  VAL221     -0.1245
    191  CA         0.8630    8.6100   13.2870 C.3   221  VAL221      0.1561
    192  C          0.0680    7.6880   12.3570 C.2   221  VAL221      0.2260
    193  O         -0.3470    6.5960   12.7630 O.2   221  VAL221     -0.2867
    194  CB         2.2420    7.9300   13.5690 C.3   221  VAL221      0.0252
    195  CG1        3.0140    7.7070   12.2770 C.3   221  VAL221      0.0019
    196  CG2        3.0890    8.7490   14.5370 C.3   221  VAL221      0.0019
    197  N         -0.3180    5.0570    9.4720 N.3   223  PHE223     -0.1241
    198  CA         0.4140    4.0050    8.8190 C.3   223  PHE223      0.1605
    199  C         -0.3600    3.6220    7.5550 C.2   223  PHE223      0.2264
    200  O         -1.4860    3.1670    7.6460 O.2   223  PHE223     -0.2867
    201  CB         0.6500    2.8370    9.7920 C.3   223  PHE223      0.0534
    202  CG         1.7650    3.1140   10.7800 C.ar  223  PHE223     -0.0203
    203  CD1        1.5980    4.0500   11.7790 C.ar  223  PHE223     -0.0042
    204  CD2        2.9860    2.4730   10.6740 C.ar  223  PHE223     -0.0042
    205  CE1        2.6180    4.3350   12.6640 C.ar  223  PHE223     -0.0003
    206  CE2        4.0250    2.7550   11.5650 C.ar  223  PHE223     -0.0003
    207  CZ         3.8350    3.6890   12.5550 C.ar  223  PHE223     -0.0000
    208  N          2.4620   -0.2470    3.9030 N.3   227  MET227     -0.1245
    209  CA         3.3120   -0.2580    5.0980 C.3   227  MET227      0.1570
    210  C          2.7290   -1.2230    6.1370 C.2   227  MET227      0.2261
    211  O          3.4230   -2.0930    6.6680 O.2   227  MET227     -0.2867
    212  CB         3.4010    1.1360    5.7130 C.3   227  MET227      0.0387
    213  CG         4.5470    1.2760    6.6970 C.3   227  MET227      0.0595
    214  SD         4.4210    2.8140    7.5830 S.3   227  MET227     -0.1393
    215  CE         5.9000    2.7110    8.6280 C.3   227  MET227      0.0692
    216  N          3.1430   -4.9450    4.9410 N.3   230  VAL230     -0.1245
    217  CA         4.4820   -5.5400    5.0890 C.3   230  VAL230      0.1561
    218  C          4.8500   -5.7520    6.5570 C.2   230  VAL230      0.2260
    219  O          5.5420   -6.7200    6.9120 O.2   230  VAL230     -0.2867
    220  CB         5.6060   -4.7510    4.3520 C.3   230  VAL230      0.0252
    221  CG1        5.3620   -4.7470    2.8320 C.3   230  VAL230      0.0019
    222  CG2        5.7800   -3.3030    4.9210 C.3   230  VAL230      0.0019
@<TRIPOS>BOND
     1    58    57    2
     2    49    48    2
     3    57    56    1
     4   113   114    1
     5   113   112    1
     6    48    47    1
     7    48    55   am
     8   114   115    1
     9    47    46    1
    10    47    50    1
    11    56    55    1
    12    56    59    1
    13   109   112    1
    14   109   108    1
    15   109   110    1
    16   117   116    1
    17    40    39    2
    18    50    51    1
    19   111   110    2
    20    51    52    1
    21   115   116    2
    22    61    60    1
    23   116   118    1
    24    39    38    1
    25    60    59    1
    26    60    62    1
    27    52    54   am
    28    52    53    2
    29    31    30    1
    30    28    27    2
    31    42    43    1
    32    42    41    1
    33    92    91    1
    34   122   121    2
    35    36    35    2
    36    38    41    1
    37    38    37    1
    38    45    43   ar
    39    43    44   ar
    40   100   101    1
    41    90    91    1
    42    90    89    1
    43    27    26    1
    44    27    33   am
    45   121   120    1
    46    30    29    1
    47    30    32    1
    48    26    29    1
    49    26    25    1
    50    35    37   am
    51    35    34    1
    52    85    86    1
    53    86    89    1
    54    86    87    1
    55   103   102    2
    56   101   102    1
    57   101   104    1
    58    64    67    1
    59    64    63    1
    60    64    65    1
    61    67    68    1
    62    88    87    2
    63    34    33    1
    64   221   220    1
    65    66    65    2
    66    87    93   am
    67   120   119    1
    68   120   123    1
    69    65    77   am
    70   104   105    1
    71    68    69   ar
    72    68    70   ar
    73   208   209    1
    74    95    96    2
    75    95    94    1
    76    93    94    1
    77    20    19    2
    78   123   124    1
    79   106   105    1
    80    69    71   ar
    81   220   222    1
    82   220   217    1
    83    77    78    1
    84   105   107    1
    85    94    97    1
    86   216   217    1
    87    70    73   ar
    88    70    72   ar
    89    19    18    1
    90   217   218    1
    91   209   212    1
    92   209   210    1
    93    80    79    2
    94    79    78    1
    95    73    75   ar
    96    12    11    2
    97    78    81    1
    98   124   125   ar
    99   124   126   ar
   100    71    72   ar
   101   212   213    1
   102   125   127   ar
   103    72    74   ar
   104    98    97    1
   105   210   211    2
   106    97    99    1
   107    11    10    1
   108    11    17   am
   109    18    17    1
   110    18    21    1
   111    75    76   ar
   112   126   128   ar
   113   218   219    2
   114   213   214    1
   115    10     9    1
   116    10    13    1
   117    81    82    1
   118    16    14    1
   119   127   129   ar
   120    74    76   ar
   121    21    22    1
   122   199   200    2
   123   199   198    1
   124   214   215    1
   125   128   129   ar
   126    82    83    1
   127    13    14    1
   128    14    15    1
   129    83    84    1
   130   152   151    2
   131    22    23    2
   132    22    24   am
   133   198   197    1
   134   198   201    1
   135     4     3    2
   136   155   154    1
   137   155   156    1
   138   151   150    1
   139   163   162    1
   140   201   202    1
   141   153   154    1
   142   153   150    1
   143     3     2    1
   144   150   149    1
   145   204   202   ar
   146   204   206   ar
   147   202   203   ar
   148   182   181    1
   149   162   161    1
   150   162   164    1
   151     2     1    1
   152     2     5    1
   153   161   158    1
   154   206   207   ar
   155   203   205   ar
   156   181   178    1
   157   195   194    1
   158   192   193    2
   159   192   191    1
   160   207   205   ar
   161     5     6    1
   162   159   158    1
   163   159   160    2
   164   158   157    1
   165   139   140   ar
   166   139   137   ar
   167   140   138   ar
   168   191   194    1
   169   191   190    1
   170     8     6    1
   171   144   143    2
   172   194   196    1
   173   178   179    1
   174   178   177    1
   175   148   146    1
   176     6     7    1
   177   137   135   ar
   178   179   180    2
   179   138   136   ar
   180   143   142    1
   181   146   147    1
   182   146   145    1
   183   177   167   am
   184   135   136   ar
   185   135   134    1
   186   145   142    1
   187   189   187    1
   188   171   173   ar
   189   171   170   ar
   190   142   141    1
   191   167   168    2
   192   167   166    1
   193   187   188    1
   194   187   184    1
   195   173   175   ar
   196   169   170    1
   197   169   166    1
   198   185   186    2
   199   185   184    1
   200   133   132    2
   201   170   172   ar
   202   165   166    1
   203   134   131    1
   204   184   183    1
   205   175   176    1
   206   175   174   ar
   207   132   131    1
   208   172   174   ar
   209   131   130    1
