@<TRIPOS>MOLECULE
tmp/4a2lD01.pdb
 136 130 0 0 0
SMALL
GASTEIGER

@<TRIPOS>ATOM
      1  N        154.7570   49.7590   13.6460 N.3   311  ARG311     -0.1245
      2  CA       154.0390   50.9220   13.0990 C.3   311  ARG311      0.1563
      3  C        152.5820   50.9710   13.5200 C.2   311  ARG311      0.2260
      4  O        151.9620   52.0240   13.4710 O.2   311  ARG311     -0.2867
      5  CB       154.1220   50.9740   11.5810 C.3   311  ARG311      0.0307
      6  CG       153.4620   49.8220   10.8630 C.3   311  ARG311      0.0489
      7  CD       153.8220   49.9010    9.4060 C.3   311  ARG311      0.2205
      8  NE       153.4860   48.6820    8.7080 N.pl3 311  ARG311     -0.0865
      9  CZ       153.4720   48.5780    7.3890 C.cat 311  ARG311      0.5346
     10  NH1      153.7560   49.6220    6.6100 N.pl3 311  ARG311      0.1354
     11  NH2      153.1570   47.4210    6.8370 N.pl3 311  ARG311      0.1354
     12  N        144.4050   62.5840    3.3400 N.3   558  PHE558     -0.1241
     13  CA       144.4110   62.4560    1.8960 C.3   558  PHE558      0.1605
     14  C        143.0790   61.9480    1.3590 C.2   558  PHE558      0.2264
     15  O        142.9660   61.5780    0.1980 O.2   558  PHE558     -0.2867
     16  CB       145.5160   61.4960    1.4870 C.3   558  PHE558      0.0534
     17  CG       146.8440   61.8010    2.1210 C.ar  558  PHE558     -0.0203
     18  CD1      147.6460   62.8280    1.6270 C.ar  558  PHE558     -0.0042
     19  CD2      147.2930   61.0600    3.2060 C.ar  558  PHE558     -0.0042
     20  CE1      148.8650   63.1150    2.2030 C.ar  558  PHE558     -0.0003
     21  CE2      148.5170   61.3380    3.7940 C.ar  558  PHE558     -0.0003
     22  CZ       149.3030   62.3700    3.2880 C.ar  558  PHE558     -0.0000
     23  N        141.6080   59.2250    1.9890 N.3   560  ARG560     -0.1245
     24  CA       141.5600   57.7660    1.8540 C.3   560  ARG560      0.1563
     25  C        140.7250   57.2150    2.9830 C.2   560  ARG560      0.2260
     26  O        140.6130   57.8370    4.0200 O.2   560  ARG560     -0.2867
     27  CB       142.9640   57.1540    1.8540 C.3   560  ARG560      0.0307
     28  CG       143.8360   57.6740    0.7100 C.3   560  ARG560      0.0489
     29  CD       145.2080   57.0260    0.6500 C.3   560  ARG560      0.2205
     30  NE       145.9130   57.2030    1.9130 N.pl3 560  ARG560     -0.0865
     31  CZ       147.1700   56.8380    2.1340 C.cat 560  ARG560      0.5346
     32  NH1      147.9010   56.2960    1.1630 N.pl3 560  ARG560      0.1354
     33  NH2      147.7070   57.0380    3.3320 N.pl3 560  ARG560      0.1354
     34  N        139.7040   54.2570    5.7460 N.3   562  TRP562     -0.1241
     35  CA       140.2360   53.1390    6.5000 C.3   562  TRP562      0.1605
     36  C        139.1330   52.3340    7.0780 C.2   562  TRP562      0.2264
     37  O        138.3700   52.8330    7.9030 O.2   562  TRP562     -0.2867
     38  CB       141.1340   53.6410    7.5810 C.3   562  TRP562      0.0550
     39  CG       142.3770   54.1860    6.9720 C.ar  562  TRP562      0.0003
     40  CD1      142.5460   55.4120    6.3340 C.ar  562  TRP562      0.0946
     41  CD2      143.6590   53.5240    6.8740 C.ar  562  TRP562      0.0152
     42  NE1      143.8260   55.5550    5.8870 N.ar  562  TRP562     -0.2442
     43  CE2      144.5500   54.4560    6.1840 C.ar  562  TRP562      0.0810
     44  CE3      144.1510   52.3030    7.2850 C.ar  562  TRP562      0.0012
     45  CZ2      145.8730   54.1500    5.9270 C.ar  562  TRP562      0.0191
     46  CZ3      145.4940   52.0040    7.0270 C.ar  562  TRP562      0.0001
     47  CH2      146.3290   52.9130    6.3600 C.ar  562  TRP562      0.0015
     48  N        143.1300   50.1930    3.7730 N.3   571  CYS571     -0.1235
     49  CA       143.1430   51.5630    3.2720 C.3   571  CYS571      0.1677
     50  C        142.6140   51.5390    1.8520 C.2   571  CYS571      0.2270
     51  O        143.1290   50.8140    1.0140 O.2   571  CYS571     -0.2867
     52  CB       144.5370   52.1360    3.2720 C.3   571  CYS571      0.0956
     53  SG       144.5860   53.8050    2.5990 S.3   571  CYS571     -0.0801
     54  N        142.1220   51.6010   -5.4210 N.3   578  LYS578     -0.1245
     55  CA       143.1340   50.6730   -4.9340 C.3   578  LYS578      0.1561
     56  C        142.8870   50.3680   -3.4640 C.2   578  LYS578      0.2260
     57  O        142.7930   51.2800   -2.6230 O.2   578  LYS578     -0.2867
     58  CB       144.5600   51.2290   -5.0930 C.3   578  LYS578      0.0271
     59  CG       145.6370   50.1970   -5.0610 C.3   578  LYS578      0.0035
     60  CD       146.9870   50.8880   -5.1200 C.3   578  LYS578      0.0206
     61  CE       148.0580   50.0870   -4.3820 C.3   578  LYS578      0.1093
     62  NZ       147.7390   49.8580   -2.9190 N.3   578  LYS578     -0.1314
     63  N        144.5940   48.5820   -0.1220 N.3   580  ARG580     -0.1245
     64  CA       145.8490   48.2020    0.4750 C.3   580  ARG580      0.1563
     65  C        145.5160   47.6150    1.8380 C.2   580  ARG580      0.2260
     66  O        145.0110   48.3150    2.7110 O.2   580  ARG580     -0.2867
     67  CB       146.7620   49.4200    0.5920 C.3   580  ARG580      0.0307
     68  CG       148.0450   49.1890    1.3880 C.3   580  ARG580      0.0489
     69  CD       148.9840   48.1560    0.7750 C.3   580  ARG580      0.2205
     70  NE       149.9270   47.7170    1.7960 N.pl3 580  ARG580     -0.0865
     71  CZ       151.0130   48.3920    2.1830 C.cat 580  ARG580      0.5346
     72  NH1      151.3580   49.5530    1.6160 N.pl3 580  ARG580      0.1354
     73  NH2      151.7680   47.8920    3.1540 N.pl3 580  ARG580      0.1354
     74  N        145.9810   45.2810    5.4240 N.3   582  PHE582     -0.1241
     75  CA       146.8590   44.8770    6.5070 C.3   582  PHE582      0.1605
     76  C        146.1860   43.7850    7.3190 C.2   582  PHE582      0.2264
     77  O        144.9940   43.6580    7.2780 O.2   582  PHE582     -0.2867
     78  CB       147.1660   46.0670    7.4000 C.3   582  PHE582      0.0534
     79  CG       147.7540   47.2320    6.6670 C.ar  582  PHE582     -0.0203
     80  CD1      146.9410   48.1520    6.0440 C.ar  582  PHE582     -0.0042
     81  CD2      149.1250   47.4060    6.5920 C.ar  582  PHE582     -0.0042
     82  CE1      147.4800   49.2410    5.3760 C.ar  582  PHE582     -0.0003
     83  CE2      149.6730   48.4890    5.9260 C.ar  582  PHE582     -0.0003
     84  CZ       148.8470   49.4060    5.3180 C.ar  582  PHE582     -0.0000
     85  N        147.7520   57.3340    9.9810 N.3   619  PRO619     -0.2102
     86  CA       148.0480   57.0800    8.5480 C.3   619  PRO619      0.1504
     87  C        149.1780   57.9220    7.9810 C.2   619  PRO619      0.2575
     88  O        150.0630   57.4100    7.3130 O.2   619  PRO619     -0.2718
     89  CB       146.7420   57.4370    7.8410 C.3   619  PRO619      0.0282
     90  CG       145.6910   57.2680    8.8810 C.3   619  PRO619      0.0208
     91  CD       146.3100   57.5100   10.2230 C.3   619  PRO619      0.0893
     92  N        149.1700   59.2050    8.2860 N.am  620  GLU620     -0.1980
     93  CA       150.1580   60.0980    7.7050 C.3   620  GLU620      0.1602
     94  C        151.5760   59.9000    8.2950 C.2   620  GLU620      0.2287
     95  O        152.4970   60.5670    7.8800 O.2   620  GLU620     -0.2864
     96  CB       149.6820   61.5930    7.7000 C.3   620  GLU620      0.0415
     97  CG       148.6240   62.0360    8.7150 C.3   620  GLU620      0.1163
     98  CD       147.1990   61.5500    8.4080 C.2   620  GLU620      0.3649
     99  OE1      146.6460   61.8920    7.3470 O.co2 620  GLU620     -0.2457
    100  OE2      146.6180   60.8240    9.2530 O.co2 620  GLU620     -0.2457
    101  N        152.6230   56.3950    8.9900 N.3   622  LEU622     -0.1231
    102  CA       152.9850   55.0310    8.6520 C.3   622  LEU622      0.1693
    103  C        154.1640   55.0040    7.6680 C.2   622  LEU622      0.2592
    104  O        154.3040   55.8870    6.8170 O.2   622  LEU622     -0.2718
    105  CB       151.8000   54.2970    8.0240 C.3   622  LEU622      0.0284
    106  CG       150.6190   53.9530    8.9390 C.3   622  LEU622      0.0019
    107  CD1      149.4130   53.5790    8.0670 C.3   622  LEU622      0.0001
    108  CD2      150.9520   52.8600    9.9700 C.3   622  LEU622      0.0001
    109  N        155.0020   53.9800    7.7950 N.am  623  LEU623     -0.1966
    110  CA       156.0840   53.7530    6.8600 C.3   623  LEU623      0.1728
    111  C        155.9510   52.3670    6.2480 C.2   623  LEU623      0.2616
    112  O        155.5600   51.4290    6.9100 O.2   623  LEU623     -0.2715
    113  CB       157.4380   53.8990    7.5650 C.3   623  LEU623      0.0311
    114  CG       157.7760   55.2920    8.1180 C.3   623  LEU623      0.0022
    115  CD1      158.9220   55.2010    9.1340 C.3   623  LEU623      0.0001
    116  CD2      158.0850   56.2640    6.9670 C.3   623  LEU623      0.0001
    117  N        156.2540   52.2560    4.9660 N.am  624  ASP624     -0.1971
    118  CA       156.3940   50.9600    4.3380 C.3   624  ASP624      0.1709
    119  C        157.8320   50.4980    4.4510 C.2   624  ASP624      0.2293
    120  O        158.7390   51.3020    4.6080 O.2   624  ASP624     -0.2864
    121  CB       155.9580   51.0020    2.8710 C.3   624  ASP624      0.1436
    122  CG       154.4570   50.7310    2.6910 C.2   624  ASP624      0.3671
    123  OD1      153.7660   50.3200    3.6620 O.co2 624  ASP624     -0.2456
    124  OD2      153.9570   50.9190    1.5620 O.co2 624  ASP624     -0.2456
    125  N        155.0880   44.7850    2.1620 N.3   728  ASP728     -0.1225
    126  CA       154.3830   45.9740    1.6530 C.3   728  ASP728      0.1805
    127  C        154.3740   46.1200    0.1110 C.2   728  ASP728      0.2598
    128  O        154.2130   47.2320   -0.4140 O.2   728  ASP728     -0.2718
    129  CB       154.9790   47.2300    2.2980 C.3   728  ASP728      0.1424
    130  CG       154.9610   47.1710    3.8190 C.2   728  ASP728      0.3668
    131  OD1      154.1200   46.4470    4.3810 O.co2 728  ASP728     -0.2456
    132  OD2      155.7860   47.8470    4.4640 O.co2 728  ASP728     -0.2456
    133  N        154.5550   45.0100   -0.6050 N.am  729  GLY729     -0.1957
    134  CA       154.3460   44.9730   -2.0440 C.3   729  GLY729      0.1869
    135  C        155.4550   45.5690   -2.8940 C.2   729  GLY729      0.2309
    136  O        155.2720   45.7620   -4.0880 O.2   729  GLY729     -0.2863
@<TRIPOS>BOND
     1    54    55    1
     2    60    59    1
     3    60    61    1
     4    58    59    1
     5    58    55    1
     6    55    56    1
     7    61    62    1
     8   136   135    2
     9    56    57    2
    10   135   134    1
    11   134   133    1
    12   133   127   am
    13   128   127    2
    14    63    64    1
    15   127   126    1
    16    15    14    2
    17    64    67    1
    18    64    65    1
    19    67    68    1
    20    29    28    1
    21    29    30    1
    22    28    27    1
    23    69    68    1
    24    69    70    1
    25    51    50    2
    26    32    31    1
    27    14    13    1
    28    16    13    1
    29    16    17    1
    30   124   122   ar
    31    72    71    1
    32    18    17   ar
    33    18    20   ar
    34   126   125    1
    35   126   129    1
    36    70    71    2
    37    65    66    2
    38    50    49    1
    39    24    27    1
    40    24    23    1
    41    24    25    1
    42    13    12    1
    43    30    31    2
    44    17    19   ar
    45    31    33    1
    46    71    73    1
    47    20    22   ar
    48   129   130    1
    49    53    52    1
    50   122   121    1
    51   122   123   ar
    52   121   118    1
    53    25    26    2
    54    19    21   ar
    55    49    52    1
    56    49    48    1
    57    22    21   ar
    58   130   131   ar
    59   130   132   ar
    60   118   119    1
    61   118   117    1
    62   119   120    2
    63   117   111   am
    64    84    82   ar
    65    84    83   ar
    66    82    80   ar
    67    74    75    1
    68    34    35    1
    69    42    43   ar
    70    42    40   ar
    71    83    81   ar
    72    45    43   ar
    73    45    47   ar
    74    80    79   ar
    75    43    41   ar
    76   111   110    1
    77   111   112    2
    78    40    39   ar
    79    47    46   ar
    80    35    36    1
    81    35    38    1
    82    75    76    1
    83    75    78    1
    84    81    79   ar
    85    10     9    1
    86    79    78    1
    87   104   103    2
    88    11     9    1
    89   110   113    1
    90   110   109    1
    91    41    39   ar
    92    41    44   ar
    93   116   114    1
    94    39    38    1
    95    46    44   ar
    96    36    37    2
    97    77    76    2
    98    88    87    2
    99    99    98   ar
   100     9     8    2
   101   113   114    1
   102   103   109   am
   103   103   102    1
   104    96    93    1
   105    96    97    1
   106    93    92    1
   107    93    94    1
   108    89    86    1
   109    89    90    1
   110    95    94    2
   111    87    92   am
   112    87    86    1
   113   105   102    1
   114   105   106    1
   115   107   106    1
   116   114   115    1
   117    98    97    1
   118    98   100   ar
   119    86    85    1
   120   102   101    1
   121     8     7    1
   122    90    91    1
   123   106   108    1
   124     7     6    1
   125    85    91    1
   126     6     5    1
   127     5     2    1
   128     2     3    1
   129     2     1    1
   130     4     3    2
