@<TRIPOS>MOLECULE
tmp/4a2lA00.pdb
 104 100 0 0 0
SMALL
GASTEIGER

@<TRIPOS>ATOM
      1  N         70.7050   52.6920   11.2140 N.3   310  ARG310     -0.1245
      2  CA        71.9670   52.3100   10.5520 C.3   310  ARG310      0.1563
      3  C         71.9370   50.8790    9.9910 C.2   310  ARG310      0.2260
      4  O         72.7630   50.5220    9.1740 O.2   310  ARG310     -0.2867
      5  CB        73.1040   52.3970   11.5610 C.3   310  ARG310      0.0307
      6  CG        72.9030   51.4480   12.7290 C.3   310  ARG310      0.0489
      7  CD        73.8850   51.6340   13.8410 C.3   310  ARG310      0.2205
      8  NE        73.4350   50.8540   14.9960 N.pl3 310  ARG310     -0.0865
      9  CZ        74.1670   50.6130   16.0740 C.cat 310  ARG310      0.5346
     10  NH1       75.4200   51.0700   16.1900 N.pl3 310  ARG310      0.1354
     11  NH2       73.6460   49.8800   17.0220 N.pl3 310  ARG310      0.1354
     12  N         88.1100   43.8750    7.9890 N.3   561  ARG561     -0.1245
     13  CA        87.3390   43.2110    9.0210 C.3   561  ARG561      0.1563
     14  C         86.3170   42.3080    8.3770 C.2   561  ARG561      0.2260
     15  O         85.7730   42.6070    7.3080 O.2   561  ARG561     -0.2867
     16  CB        86.6430   44.2160    9.9270 C.3   561  ARG561      0.0307
     17  CG        87.6250   45.1620   10.6070 C.3   561  ARG561      0.0489
     18  CD        86.9470   46.1880   11.4880 C.3   561  ARG561      0.2205
     19  NE        85.9810   46.9700   10.7280 N.pl3 561  ARG561     -0.0865
     20  CZ        85.2660   47.9840   11.2130 C.cat 561  ARG561      0.5346
     21  NH1       85.4260   48.3990   12.4610 N.pl3 561  ARG561      0.1354
     22  NH2       84.3890   48.6010   10.4290 N.pl3 561  ARG561      0.1354
     23  N         82.7580   40.2210    8.5990 N.3   563  TRP563     -0.1241
     24  CA        81.4030   40.3200    9.1300 C.3   563  TRP563      0.1605
     25  C         80.7600   39.0020    8.9660 C.2   563  TRP563      0.2264
     26  O         80.7310   38.4580    7.8560 O.2   563  TRP563     -0.2867
     27  CB        80.6200   41.3720    8.3850 C.3   563  TRP563      0.0550
     28  CG        81.0610   42.7400    8.7890 C.ar  563  TRP563      0.0003
     29  CD1       82.1570   43.4350    8.3420 C.ar  563  TRP563      0.0946
     30  CD2       80.4300   43.6150    9.7650 C.ar  563  TRP563      0.0152
     31  NE1       82.2330   44.6610    8.9380 N.ar  563  TRP563     -0.2442
     32  CE2       81.2360   44.8300    9.8010 C.ar  563  TRP563      0.0810
     33  CE3       79.3030   43.5320   10.5630 C.ar  563  TRP563      0.0012
     34  CZ2       80.9230   45.8900   10.6280 C.ar  563  TRP563      0.0191
     35  CZ3       78.9990   44.5990   11.4040 C.ar  563  TRP563      0.0001
     36  CH2       79.7820   45.7520   11.4330 C.ar  563  TRP563      0.0015
     37  N         81.2190   41.4330   13.9870 N.3   572  CYS572     -0.1235
     38  CA        82.3350   42.0270   13.2600 C.3   572  CYS572      0.1677
     39  C         83.6680   41.6390   13.8870 C.2   572  CYS572      0.2270
     40  O         83.9430   41.9950   15.0180 O.2   572  CYS572     -0.2867
     41  CB        82.2190   43.5500   13.2440 C.3   572  CYS572      0.0956
     42  SG        83.7090   44.3150   12.5920 S.3   572  CYS572     -0.0801
     43  N         83.0130   42.5400   17.7310 N.3   581  ARG581     -0.1245
     44  CA        81.9760   43.4810   18.1090 C.3   581  ARG581      0.1563
     45  C         80.6410   42.9300   17.5400 C.2   581  ARG581      0.2260
     46  O         80.4650   42.8030   16.3150 O.2   581  ARG581     -0.2867
     47  CB        82.3620   44.8820   17.6040 C.3   581  ARG581      0.0307
     48  CG        81.2350   45.8910   17.4500 C.3   581  ARG581      0.0489
     49  CD        80.6120   46.2480   18.7600 C.3   581  ARG581      0.2205
     50  NE        79.8640   47.4920   18.6440 N.pl3 581  ARG581     -0.0865
     51  CZ        78.5450   47.6300   18.7840 C.cat 581  ARG581      0.5346
     52  NH1       77.7450   46.5920   19.0470 N.pl3 581  ARG581      0.1354
     53  NH2       78.0220   48.8430   18.6770 N.pl3 581  ARG581      0.1354
     54  N         76.3890   42.3820   17.2290 N.3   583  PHE583     -0.1241
     55  CA        75.1040   43.0630   17.1240 C.3   583  PHE583      0.1605
     56  C         74.0100   42.0160   17.2030 C.2   583  PHE583      0.2264
     57  O         74.2590   40.8470   16.8960 O.2   583  PHE583     -0.2867
     58  CB        75.0070   43.7760   15.7760 C.3   583  PHE583      0.0534
     59  CG        76.0420   44.8300   15.5850 C.ar  583  PHE583     -0.0203
     60  CD1       75.8300   46.1180   16.0430 C.ar  583  PHE583     -0.0042
     61  CD2       77.2340   44.5420   14.9610 C.ar  583  PHE583     -0.0042
     62  CE1       76.7890   47.1110   15.8690 C.ar  583  PHE583     -0.0003
     63  CE2       78.1970   45.5240   14.7690 C.ar  583  PHE583     -0.0003
     64  CZ        77.9760   46.8130   15.2320 C.ar  583  PHE583     -0.0000
     65  N         79.0770   48.8120    6.3860 N.3   620  PRO620     -0.2102
     66  CA        79.9000   48.6370    7.6060 C.3   620  PRO620      0.1504
     67  C         80.6830   49.8780    8.0010 C.2   620  PRO620      0.2575
     68  O         80.6810   50.2600    9.1540 O.2   620  PRO620     -0.2718
     69  CB        80.8460   47.4890    7.2550 C.3   620  PRO620      0.0282
     70  CG        80.7000   47.2510    5.7820 C.3   620  PRO620      0.0208
     71  CD        79.3950   47.8140    5.3410 C.3   620  PRO620      0.0893
     72  N         81.2900   50.5390    7.0310 N.am  621  GLU621     -0.1980
     73  CA        82.1670   51.6930    7.2760 C.3   621  GLU621      0.1602
     74  C         81.4250   52.9540    7.7370 C.2   621  GLU621      0.2287
     75  O         81.9860   53.7760    8.4270 O.2   621  GLU621     -0.2864
     76  CB        82.9870   51.9970    6.0080 C.3   621  GLU621      0.0415
     77  CG        83.7900   50.8010    5.4690 C.3   621  GLU621      0.1163
     78  CD        83.0330   49.8980    4.4720 C.2   621  GLU621      0.3649
     79  OE1       81.8540   50.1830    4.0910 O.co2 621  GLU621     -0.2457
     80  OE2       83.6370   48.8760    4.0650 O.co2 621  GLU621     -0.2457
     81  N         78.7470   52.9280    9.7240 N.3   623  LEU623     -0.1231
     82  CA        78.0200   52.6810   10.9720 C.3   623  LEU623      0.1693
     83  C         78.4160   53.6590   12.0780 C.2   623  LEU623      0.2592
     84  O         79.5780   53.9920   12.2190 O.2   623  LEU623     -0.2718
     85  CB        78.2600   51.2580   11.4640 C.3   623  LEU623      0.0284
     86  CG        77.5410   50.1380   10.7110 C.3   623  LEU623      0.0019
     87  CD1       78.0100   48.7960   11.2480 C.3   623  LEU623      0.0001
     88  CD2       76.0220   50.2500   10.7870 C.3   623  LEU623      0.0001
     89  N         77.4450   54.1390   12.8490 N.am  624  LEU624     -0.1966
     90  CA        77.7470   54.9530   14.0230 C.3   624  LEU624      0.1728
     91  C         77.1670   54.2760   15.2310 C.2   624  LEU624      0.2616
     92  O         76.1590   53.5740   15.1370 O.2   624  LEU624     -0.2715
     93  CB        77.1740   56.3750   13.9280 C.3   624  LEU624      0.0311
     94  CG        77.7570   57.3250   12.8670 C.3   624  LEU624      0.0022
     95  CD1       77.0260   58.6690   12.8640 C.3   624  LEU624      0.0001
     96  CD2       79.2580   57.5300   13.0510 C.3   624  LEU624      0.0001
     97  N         77.8400   54.5040   16.3570 N.am  625  ASP625     -0.1971
     98  CA        77.4030   54.0650   17.6680 C.3   625  ASP625      0.1709
     99  C         76.7310   55.2150   18.3690 C.2   625  ASP625      0.2293
    100  O         77.0080   56.3830   18.0690 O.2   625  ASP625     -0.2864
    101  CB        78.5970   53.5540   18.4840 C.3   625  ASP625      0.1436
    102  CG        79.0370   52.1270   18.0620 C.2   625  ASP625      0.3671
    103  OD1       78.2770   51.3890   17.3600 O.co2 625  ASP625     -0.2456
    104  OD2       80.1400   51.7240   18.4360 O.co2 625  ASP625     -0.2456
@<TRIPOS>BOND
     1    80    78   ar
     2    79    78   ar
     3    78    77    1
     4    71    70    1
     5    71    65    1
     6    77    76    1
     7    70    69    1
     8    76    73    1
     9    65    66    1
    10    72    73    1
    11    72    67   am
    12    69    66    1
    13    73    74    1
    14    15    14    2
    15    66    67    1
    16    74    75    2
    17    26    25    2
    18    12    13    1
    19    67    68    2
    20    29    28   ar
    21    29    31   ar
    22    14    13    1
    23    27    28    1
    24    27    24    1
    25    23    24    1
    26    28    30   ar
    27    31    32   ar
    28    25    24    1
    29    13    16    1
    30     4     3    2
    31    81    82    1
    32    30    32   ar
    33    30    33   ar
    34    32    34   ar
    35    16    17    1
    36     3     2    1
    37    22    20    1
    38     2     1    1
    39     2     5    1
    40    33    35   ar
    41    17    18    1
    42    34    36   ar
    43    86    88    1
    44    86    87    1
    45    86    85    1
    46    19    20    2
    47    19    18    1
    48    82    85    1
    49    82    83    1
    50    20    21    1
    51    35    36   ar
    52     5     6    1
    53    83    84    2
    54    83    89   am
    55    42    41    1
    56     6     7    1
    57    89    90    1
    58    95    94    1
    59    94    96    1
    60    94    93    1
    61    41    38    1
    62    38    39    1
    63    38    37    1
    64     7     8    1
    65    39    40    2
    66    93    90    1
    67    90    91    1
    68    63    61   ar
    69    63    64   ar
    70    61    59   ar
    71     8     9    2
    72    92    91    2
    73    91    97   am
    74    64    62   ar
    75    59    58    1
    76    59    60   ar
    77    58    55    1
    78    62    60   ar
    79     9    10    1
    80     9    11    1
    81    46    45    2
    82    97    98    1
    83    57    56    2
    84    55    56    1
    85    55    54    1
    86   103   102   ar
    87    48    47    1
    88    48    49    1
    89    45    44    1
    90    47    44    1
    91    98    99    1
    92    98   101    1
    93    43    44    1
    94   102   104   ar
    95   102   101    1
    96   100    99    2
    97    50    49    1
    98    50    51    2
    99    53    51    1
   100    51    52    1
