@<TRIPOS>MOLECULE
tmp/4a2lB00.pdb
 124 119 0 0 0
SMALL
GASTEIGER

@<TRIPOS>ATOM
      1  N         38.9330   32.4370   26.0730 N.3   312  ARG312     -0.1245
      2  CA        37.6630   32.7830   26.6900 C.3   312  ARG312      0.1563
      3  C         37.1010   34.1310   26.2080 C.2   312  ARG312      0.2260
      4  O         35.8880   34.3010   26.1380 O.2   312  ARG312     -0.2867
      5  CB        37.8120   32.7850   28.2000 C.3   312  ARG312      0.0307
      6  CG        38.8530   33.7320   28.7890 C.3   312  ARG312      0.0489
      7  CD        38.8760   33.4890   30.3010 C.3   312  ARG312      0.2205
      8  NE        39.9280   34.2100   31.0110 N.pl3 312  ARG312     -0.0865
      9  CZ        40.0200   34.2960   32.3370 C.cat 312  ARG312      0.5346
     10  NH1       39.1210   33.7180   33.1340 N.pl3 312  ARG312      0.1354
     11  NH2       41.0200   34.9720   32.8790 N.pl3 312  ARG312      0.1354
     12  N         23.1720   36.9970   36.2740 N.3   557  PHE557     -0.1241
     13  CA        23.2680   37.0280   37.7120 C.3   557  PHE557      0.1605
     14  C         23.1620   38.4390   38.2770 C.2   557  PHE557      0.2264
     15  O         23.3530   38.6320   39.4670 O.2   557  PHE557     -0.2867
     16  CB        24.5930   36.4050   38.1320 C.3   557  PHE557      0.0534
     17  CG        24.8210   35.0550   37.5430 C.ar  557  PHE557     -0.0203
     18  CD1       24.0780   33.9640   37.9790 C.ar  557  PHE557     -0.0042
     19  CD2       25.7610   34.8730   36.5390 C.ar  557  PHE557     -0.0042
     20  CE1       24.2770   32.7080   37.4310 C.ar  557  PHE557     -0.0003
     21  CE2       25.9690   33.6200   35.9840 C.ar  557  PHE557     -0.0003
     22  CZ        25.2250   32.5350   36.4320 C.ar  557  PHE557     -0.0000
     23  N         25.1730   40.8810   37.7900 N.3   559  ARG559     -0.1245
     24  CA        26.4670   41.5450   37.8700 C.3   559  ARG559      0.1563
     25  C         26.6170   42.4590   36.6670 C.2   559  ARG559      0.2260
     26  O         26.0940   42.1930   35.5780 O.2   559  ARG559     -0.2867
     27  CB        27.6160   40.5470   37.8930 C.3   559  ARG559      0.0307
     28  CG        27.5000   39.5130   38.9930 C.3   559  ARG559      0.0489
     29  CD        28.6430   38.5120   38.9960 C.3   559  ARG559      0.2205
     30  NE        28.8540   37.9040   37.6870 N.pl3 559  ARG559     -0.0865
     31  CZ        29.6590   36.8700   37.4450 C.cat 559  ARG559      0.5346
     32  NH1       30.3090   36.2680   38.4290 N.pl3 559  ARG559      0.1354
     33  NH2       29.7920   36.4200   36.1980 N.pl3 559  ARG559      0.1354
     34  N         28.9770   44.5970   33.9380 N.3   561  TRP561     -0.1241
     35  CA        30.2410   44.5610   33.2260 C.3   561  TRP561      0.1605
     36  C         30.5310   45.9390   32.7090 C.2   561  TRP561      0.2264
     37  O         29.7040   46.5440   32.0240 O.2   561  TRP561     -0.2867
     38  CB        30.1680   43.5390   32.1200 C.3   561  TRP561      0.0550
     39  CG        30.1640   42.1460   32.6690 C.ar  561  TRP561      0.0003
     40  CD1       29.1090   41.4590   33.2460 C.ar  561  TRP561      0.0946
     41  CD2       31.3010   41.2470   32.7730 C.ar  561  TRP561      0.0152
     42  NE1       29.5020   40.2200   33.6680 N.ar  561  TRP561     -0.2442
     43  CE2       30.8050   40.0290   33.4050 C.ar  561  TRP561      0.0810
     44  CE3       32.6380   41.3210   32.4010 C.ar  561  TRP561      0.0012
     45  CZ2       31.6210   38.9470   33.6440 C.ar  561  TRP561      0.0191
     46  CZ3       33.4530   40.2220   32.6450 C.ar  561  TRP561      0.0001
     47  CH2       32.9560   39.0610   33.2550 C.ar  561  TRP561      0.0015
     48  N         34.1650   43.1940   36.0350 N.3   570  CYS570     -0.1235
     49  CA        32.9270   42.5630   36.4760 C.3   570  CYS570      0.1677
     50  C         32.7030   42.9850   37.9090 C.2   570  CYS570      0.2270
     51  O         33.5570   42.7480   38.7650 O.2   570  CYS570     -0.2867
     52  CB        33.0240   41.0520   36.4210 C.3   570  CYS570      0.0956
     53  SG        31.5540   40.2810   37.1090 S.3   570  CYS570     -0.0801
     54  N         32.2970   43.3520   45.0480 N.3   577  LYS577     -0.1245
     55  CA        33.5290   42.7540   44.4990 C.3   577  LYS577      0.1561
     56  C         33.7630   43.1900   43.0490 C.2   577  LYS577      0.2260
     57  O         32.8930   43.0360   42.1940 O.2   577  LYS577     -0.2867
     58  CB        33.4940   41.2150   44.5720 C.3   577  LYS577      0.0271
     59  CG        34.7130   40.5860   43.9110 C.3   577  LYS577      0.0035
     60  CD        34.9090   39.1390   44.3050 C.3   577  LYS577      0.0206
     61  CE        34.9430   38.2460   43.0790 C.3   577  LYS577      0.1093
     62  NZ        35.9360   38.7610   42.1220 N.3   577  LYS577     -0.1314
     63  N         36.0750   42.2930   39.8210 N.3   579  ARG579     -0.1245
     64  CA        37.0030   41.3650   39.2290 C.3   579  ARG579      0.1563
     65  C         37.4200   41.9560   37.9030 C.2   579  ARG579      0.2260
     66  O         36.6040   42.1590   37.0400 O.2   579  ARG579     -0.2867
     67  CB        36.3380   40.0220   39.0400 C.3   579  ARG579      0.0307
     68  CG        37.1140   39.0980   38.1360 C.3   579  ARG579      0.0489
     69  CD        38.3780   38.5760   38.8020 C.3   579  ARG579      0.2205
     70  NE        38.5580   37.2340   38.3010 N.pl3 579  ARG579     -0.0865
     71  CZ        39.3770   36.8830   37.3240 C.cat 579  ARG579      0.5346
     72  NH1       40.2120   37.7540   36.7480 N.pl3 579  ARG579      0.1354
     73  NH2       39.3790   35.6220   36.9420 N.pl3 579  ARG579      0.1354
     74  N         39.7830   42.4820   34.3320 N.3   581  PHE581     -0.1241
     75  CA        40.5170   41.8160   33.2680 C.3   581  PHE581      0.1605
     76  C         41.2150   42.8830   32.4400 C.2   581  PHE581      0.2264
     77  O         40.7760   44.0390   32.4140 O.2   581  PHE581     -0.2867
     78  CB        39.5910   40.9900   32.3890 C.3   581  PHE581      0.0534
     79  CG        38.8050   39.9610   33.1380 C.ar  581  PHE581     -0.0203
     80  CD1       37.5890   40.2810   33.7050 C.ar  581  PHE581     -0.0042
     81  CD2       39.2780   38.6670   33.2770 C.ar  581  PHE581     -0.0042
     82  CE1       36.8500   39.3260   34.3970 C.ar  581  PHE581     -0.0003
     83  CE2       38.5480   37.7080   33.9540 C.ar  581  PHE581     -0.0003
     84  CZ        37.3300   38.0360   34.5210 C.ar  581  PHE581     -0.0000
     85  N         29.4120   35.9690   29.6940 N.3   618  PRO618     -0.2102
     86  CA        29.8460   35.8520   31.1000 C.3   618  PRO618      0.1504
     87  C         29.5770   34.4730   31.7150 C.2   618  PRO618      0.2575
     88  O         30.3860   33.9510   32.4650 O.2   618  PRO618     -0.2718
     89  CB        29.0080   36.9230   31.8070 C.3   618  PRO618      0.0282
     90  CG        28.7430   37.9390   30.7550 C.3   618  PRO618      0.0208
     91  CD        28.5750   37.1630   29.4850 C.3   618  PRO618      0.0893
     92  N         28.4330   33.9110   31.3620 N.am  619  GLU619     -0.1980
     93  CA        27.9840   32.6270   31.8540 C.3   619  GLU619      0.1602
     94  C         28.9030   31.4650   31.4740 C.2   619  GLU619      0.2287
     95  O         28.9340   30.4620   32.1550 O.2   619  GLU619     -0.2864
     96  CB        26.5710   32.3410   31.3160 C.3   619  GLU619      0.0415
     97  CG        25.4630   33.1910   31.9220 C.3   619  GLU619      0.1163
     98  CD        25.3870   34.6130   31.3900 C.2   619  GLU619      0.3649
     99  OE1       26.0280   34.9390   30.3700 O.co2 619  GLU619     -0.2457
    100  OE2       24.6810   35.4250   32.0170 O.co2 619  GLU619     -0.2457
    101  N         32.2980   31.9330   30.7390 N.3   621  LEU621     -0.1231
    102  CA        33.6720   32.2130   31.1030 C.3   621  LEU621      0.1693
    103  C         34.1600   31.1590   32.1190 C.2   621  LEU621      0.2592
    104  O         33.3940   30.7120   32.9670 O.2   621  LEU621     -0.2718
    105  CB        33.8170   33.6220   31.6910 C.3   621  LEU621      0.0284
    106  CG        33.7180   34.8210   30.7420 C.3   621  LEU621      0.0019
    107  CD1       33.8960   36.0910   31.5660 C.3   621  LEU621      0.0001
    108  CD2       34.7370   34.7630   29.6230 C.3   621  LEU621      0.0001
    109  N         35.4280   30.7600   31.9990 N.am  622  LEU622     -0.1966
    110  CA        36.0800   29.8530   32.9360 C.3   622  LEU622      0.1728
    111  C         37.3560   30.5040   33.4530 C.2   622  LEU622      0.2616
    112  O         38.0630   31.1680   32.6980 O.2   622  LEU622     -0.2715
    113  CB        36.4440   28.5490   32.2240 C.3   622  LEU622      0.0311
    114  CG        35.3370   27.5180   31.9170 C.3   622  LEU622      0.0022
    115  CD1       35.7990   26.6340   30.7570 C.3   622  LEU622      0.0001
    116  CD2       34.9690   26.7020   33.1600 C.3   622  LEU622      0.0001
    117  N         37.6550   30.3020   34.7330 N.am  623  ASP623     -0.1971
    118  CA        38.9420   30.7280   35.3110 C.3   623  ASP623      0.1709
    119  C         39.9910   29.6300   35.1960 C.2   623  ASP623      0.2293
    120  O         39.6680   28.4610   34.9950 O.2   623  ASP623     -0.2864
    121  CB        38.7850   31.1290   36.7830 C.3   623  ASP623      0.1436
    122  CG        38.2840   32.5580   36.9550 C.2   623  ASP623      0.3671
    123  OD1       38.4130   33.3450   35.9980 O.co2 623  ASP623     -0.2456
    124  OD2       37.7680   32.9050   38.0390 O.co2 623  ASP623     -0.2456
@<TRIPOS>BOND
     1     1     2    1
     2     4     3    2
     3     3     2    1
     4     2     5    1
     5     5     6    1
     6     6     7    1
     7    91    85    1
     8    91    90    1
     9   108   106    1
    10    85    86    1
    11     7     8    1
    12    99    98   ar
    13   101   102    1
    14   106   107    1
    15   106   105    1
    16    90    89    1
    17   115   114    1
    18     8     9    2
    19    86    87    1
    20    86    89    1
    21   102   105    1
    22   102   103    1
    23    96    93    1
    24    96    97    1
    25    92    87   am
    26    92    93    1
    27    98    97    1
    28    98   100   ar
    29    94    93    1
    30    94    95    2
    31    87    88    2
    32   114   113    1
    33   114   116    1
    34   109   103   am
    35   109   110    1
    36    37    36    2
    37   103   104    2
    38    38    39    1
    39    38    35    1
    40   113   110    1
    41     9    11    1
    42     9    10    1
    43    78    79    1
    44    78    75    1
    45    44    46   ar
    46    44    41   ar
    47    77    76    2
    48    76    75    1
    49    46    47   ar
    50    39    41   ar
    51    39    40   ar
    52   112   111    2
    53    36    35    1
    54    41    43   ar
    55   110   111    1
    56    79    81   ar
    57    79    80   ar
    58    35    34    1
    59    40    42   ar
    60    47    45   ar
    61    75    74    1
    62    81    83   ar
    63    43    45   ar
    64    43    42   ar
    65   111   117   am
    66    80    82   ar
    67    83    84   ar
    68    82    84   ar
    69   117   118    1
    70   120   119    2
    71   119   118    1
    72   118   121    1
    73    26    25    2
    74    21    22   ar
    75    21    19   ar
    76   123   122   ar
    77    48    49    1
    78    33    31    1
    79    12    13    1
    80    52    49    1
    81    52    53    1
    82    22    20   ar
    83    49    50    1
    84    19    17   ar
    85    25    24    1
    86    72    71    1
    87   121   122    1
    88    73    71    1
    89   122   124   ar
    90    66    65    2
    91    71    70    2
    92    20    18   ar
    93    31    30    2
    94    31    32    1
    95    17    18   ar
    96    17    16    1
    97    30    29    1
    98    13    16    1
    99    13    14    1
   100    23    24    1
   101    24    27    1
   102    27    28    1
   103    65    64    1
   104    50    51    2
   105    68    69    1
   106    68    67    1
   107    14    15    2
   108    70    69    1
   109    28    29    1
   110    67    64    1
   111    64    63    1
   112    62    61    1
   113    57    56    2
   114    56    55    1
   115    61    60    1
   116    59    60    1
   117    59    58    1
   118    55    58    1
   119    55    54    1
