@<TRIPOS>MOLECULE
tmp/4a2mB01.pdb
 132 125 0 0 0
SMALL
GASTEIGER

@<TRIPOS>ATOM
      1  N         -2.4700   16.6200   32.7520 N.3    19  PHE19      -0.1241
      2  CA        -3.7280   16.7160   33.4840 C.3    19  PHE19       0.1605
      3  C         -4.8190   15.8140   32.9140 C.2    19  PHE19       0.2264
      4  O         -5.5050   15.1180   33.6650 O.2    19  PHE19      -0.2867
      5  CB        -4.2210   18.1660   33.5200 C.3    19  PHE19       0.0534
      6  CG        -3.3750   19.0790   34.3620 C.ar   19  PHE19      -0.0203
      7  CD1       -3.4940   19.0790   35.7490 C.ar   19  PHE19      -0.0042
      8  CD2       -2.4690   19.9510   33.7690 C.ar   19  PHE19      -0.0042
      9  CE1       -2.7200   19.9250   36.5290 C.ar   19  PHE19      -0.0003
     10  CE2       -1.6930   20.8020   34.5430 C.ar   19  PHE19      -0.0003
     11  CZ        -1.8200   20.7890   35.9240 C.ar   19  PHE19      -0.0000
     12  N          0.5960   21.6820   31.7700 N.3    34  TYR34      -0.1241
     13  CA         0.6460   22.9810   32.4370 C.3    34  TYR34       0.1605
     14  C          1.2020   24.0420   31.4870 C.2    34  TYR34       0.2264
     15  O          0.8950   25.2270   31.6170 O.2    34  TYR34      -0.2867
     16  CB         1.5100   22.9100   33.7000 C.3    34  TYR34       0.0534
     17  CG         0.9570   23.6710   34.8900 C.ar   34  TYR34      -0.0201
     18  CD1        0.5380   24.9970   34.7720 C.ar   34  TYR34      -0.0009
     19  CD2        0.8680   23.0660   36.1430 C.ar   34  TYR34      -0.0009
     20  CE1        0.0340   25.6920   35.8600 C.ar   34  TYR34       0.0417
     21  CE2        0.3670   23.7530   37.2390 C.ar   34  TYR34       0.0417
     22  CZ        -0.0470   25.0650   37.0910 C.ar   34  TYR34       0.1957
     23  OH        -0.5440   25.7520   38.1740 O.3    34  TYR34      -0.2866
     24  N         -6.0870   22.4470   31.2490 N.3    64  ARG64      -0.1245
     25  CA        -6.4220   21.6090   32.3990 C.3    64  ARG64       0.1563
     26  C         -7.2840   20.3960   32.0500 C.2    64  ARG64       0.2260
     27  O         -7.2350   19.3810   32.7480 O.2    64  ARG64      -0.2867
     28  CB        -7.0960   22.4520   33.4890 C.3    64  ARG64       0.0307
     29  CG        -6.7910   22.0120   34.9170 C.3    64  ARG64       0.0489
     30  CD        -5.3250   22.2180   35.2820 C.3    64  ARG64       0.2205
     31  NE        -4.9400   23.6300   35.3060 N.pl3  64  ARG64      -0.0865
     32  CZ        -4.6260   24.3120   36.4050 C.cat  64  ARG64       0.5346
     33  NH1       -4.6380   23.7200   37.5940 N.pl3  64  ARG64       0.1354
     34  NH2       -4.2910   25.5920   36.3150 N.pl3  64  ARG64       0.1354
     35  N        -13.4630   16.9170   48.1040 N.3   185  GLN185     -0.1245
     36  CA       -13.6120   17.2330   46.6840 C.3   185  GLN185      0.1566
     37  C        -13.4550   15.9860   45.8170 C.2   185  GLN185      0.2260
     38  O        -12.5180   15.2070   46.0030 O.2   185  GLN185     -0.2867
     39  CB       -12.5930   18.3020   46.2740 C.3   185  GLN185      0.0367
     40  CG       -12.7260   18.7930   44.8390 C.3   185  GLN185      0.0905
     41  CD       -11.8070   19.9590   44.5230 C.2   185  GLN185      0.2608
     42  OE1      -11.5950   20.8450   45.3530 O.2   185  GLN185     -0.2717
     43  NE2      -11.2630   19.9690   43.3120 N.am  185  GLN185     -0.0878
     44  N        -12.7220   14.0460   42.2550 N.3   187  GLN187     -0.1245
     45  CA       -11.8020   14.2640   41.1370 C.3   187  GLN187      0.1566
     46  C        -12.1090   13.4100   39.9070 C.2   187  GLN187      0.2260
     47  O        -11.8540   13.8310   38.7760 O.2   187  GLN187     -0.2867
     48  CB       -10.3540   14.0310   41.5780 C.3   187  GLN187      0.0367
     49  CG        -9.8830   14.8940   42.7410 C.3   187  GLN187      0.0905
     50  CD        -9.6240   16.3400   42.3520 C.2   187  GLN187      0.2608
     51  OE1      -10.5540   17.1100   42.1070 O.2   187  GLN187     -0.2717
     52  NE2       -8.3520   16.7190   42.3130 N.am  187  GLN187     -0.0878
     53  N        -10.4260   13.7660   46.9480 N.3   202  GLU202     -0.1245
     54  CA        -9.2380   14.4000   47.5200 C.3   202  GLU202      0.1567
     55  C         -9.1170   14.1200   49.0170 C.2   202  GLU202      0.2260
     56  O         -9.6240   14.8840   49.8440 O.2   202  GLU202     -0.2867
     57  CB        -9.2570   15.9150   47.2740 C.3   202  GLU202      0.0388
     58  CG        -8.8350   16.3480   45.8780 C.3   202  GLU202      0.1160
     59  CD        -7.3420   16.2170   45.6310 C.2   202  GLU202      0.3649
     60  OE1       -6.5490   16.8220   46.3850 O.co2 202  GLU202     -0.2457
     61  OE2       -6.9600   15.5080   44.6760 O.co2 202  GLU202     -0.2457
     62  N         -7.2430   10.9080   41.9600 N.3   235  ARG235     -0.1245
     63  CA        -7.6240   11.8470   40.8980 C.3   235  ARG235      0.1563
     64  C         -7.9000   11.2400   39.5120 C.2   235  ARG235      0.2260
     65  O         -8.3010   11.9620   38.5950 O.2   235  ARG235     -0.2867
     66  CB        -6.6240   13.0170   40.7980 C.3   235  ARG235      0.0307
     67  CG        -5.1450   12.6410   40.7530 C.3   235  ARG235      0.0489
     68  CD        -4.5300   12.5040   42.1430 C.3   235  ARG235      0.2205
     69  NE        -4.7680   13.6770   42.9870 N.pl3 235  ARG235     -0.0865
     70  CZ        -3.9500   14.7220   43.0850 C.cat 235  ARG235      0.5346
     71  NH1       -2.8190   14.7620   42.3900 N.pl3 235  ARG235      0.1354
     72  NH2       -4.2650   15.7330   43.8830 N.pl3 235  ARG235      0.1354
     73  N         -2.2640   10.1920   44.3530 N.3   250  PHE250     -0.1241
     74  CA        -1.1870   11.1450   44.6330 C.3   250  PHE250      0.1605
     75  C          0.1330   10.4210   44.9120 C.2   250  PHE250      0.2264
     76  O          1.2110   10.9720   44.6830 O.2   250  PHE250     -0.2867
     77  CB        -1.5750   12.0440   45.8140 C.3   250  PHE250      0.0534
     78  CG        -0.6110   13.1710   46.0750 C.ar  250  PHE250     -0.0203
     79  CD1       -0.6180   14.3140   45.2810 C.ar  250  PHE250     -0.0042
     80  CD2        0.2930   13.1000   47.1310 C.ar  250  PHE250     -0.0042
     81  CE1        0.2670   15.3540   45.5270 C.ar  250  PHE250     -0.0003
     82  CE2        1.1800   14.1350   47.3810 C.ar  250  PHE250     -0.0003
     83  CZ         1.1670   15.2650   46.5780 C.ar  250  PHE250     -0.0000
     84  N          7.0580    8.6130   37.6760 N.3   278  GLN278     -0.1245
     85  CA         6.8500    9.4720   38.8410 C.3   278  GLN278      0.1566
     86  C          5.8480    8.8300   39.7980 C.2   278  GLN278      0.2260
     87  O          5.1550    7.8800   39.4360 O.2   278  GLN278     -0.2867
     88  CB         6.3580   10.8560   38.4160 C.3   278  GLN278      0.0367
     89  CG         6.6370   11.9490   39.4390 C.3   278  GLN278      0.0905
     90  CD         5.4170   12.7980   39.7440 C.2   278  GLN278      0.2608
     91  OE1        4.5620   13.0170   38.8860 O.2   278  GLN278     -0.2717
     92  NE2        5.3320   13.2820   40.9790 N.am  278  GLN278     -0.0878
     93  N          3.2280   10.4880   41.4490 N.3   280  SER280     -0.1217
     94  CA         1.8800   11.0720   41.3870 C.3   280  SER280      0.1889
     95  C          1.1980   10.9250   40.0230 C.2   280  SER280      0.2288
     96  O          1.5030   11.6610   39.0840 O.2   280  SER280     -0.2866
     97  CB         1.9130   12.5480   41.8070 C.3   280  SER280      0.2089
     98  OG         0.6160   13.1230   41.7700 O.3   280  SER280     -0.2183
     99  N         -2.0220   11.3310   37.5950 N.3   282  ARG282     -0.1245
    100  CA        -3.1150   12.3020   37.5120 C.3   282  ARG282      0.1563
    101  C         -4.1730   11.9880   36.4530 C.2   282  ARG282      0.2260
    102  O         -5.3100   12.4540   36.5560 O.2   282  ARG282     -0.2867
    103  CB        -2.5710   13.7220   37.3250 C.3   282  ARG282      0.0307
    104  CG        -1.8410   14.2580   38.5470 C.3   282  ARG282      0.0489
    105  CD        -2.1300   15.7300   38.7840 C.3   282  ARG282      0.2205
    106  NE        -3.5330   15.9760   39.1080 N.pl3 282  ARG282     -0.0865
    107  CZ        -3.9790   17.0220   39.7990 C.cat 282  ARG282      0.5346
    108  NH1       -3.1380   17.9370   40.2660 N.pl3 282  ARG282      0.1354
    109  NH2       -5.2760   17.1490   40.0310 N.pl3 282  ARG282      0.1354
    110  N          2.5080   14.0600   37.1360 N.3   297  TYR297     -0.1227
    111  CA         2.7030   15.4910   37.3830 C.3   297  TYR297      0.1736
    112  C          4.1250   15.9570   37.0550 C.2   297  TYR297      0.2595
    113  O          4.3280   17.1090   36.6720 O.2   297  TYR297     -0.2718
    114  CB         2.3550   15.8370   38.8380 C.3   297  TYR297      0.0548
    115  CG         1.9850   17.2920   39.0760 C.ar  297  TYR297     -0.0200
    116  CD1        2.9670   18.2610   39.2780 C.ar  297  TYR297     -0.0009
    117  CD2        0.6520   17.6950   39.1080 C.ar  297  TYR297     -0.0009
    118  CE1        2.6330   19.5890   39.4970 C.ar  297  TYR297      0.0417
    119  CE2        0.3070   19.0200   39.3300 C.ar  297  TYR297      0.0417
    120  CZ         1.3030   19.9620   39.5230 C.ar  297  TYR297      0.1957
    121  OH         0.9700   21.2780   39.7420 O.3   297  TYR297     -0.2866
    122  N          5.1040   15.0680   37.2080 N.am  298  PHE298     -0.1976
    123  CA         6.5050   15.4290   36.9830 C.3   298  PHE298      0.1639
    124  C          7.2580   14.4710   36.0560 C.2   298  PHE298      0.2290
    125  O          8.3060   14.8290   35.5130 O.2   298  PHE298     -0.2864
    126  CB         7.2550   15.5540   38.3180 C.3   298  PHE298      0.0560
    127  CG         6.8050   16.7100   39.1750 C.ar  298  PHE298     -0.0200
    128  CD1        7.1180   18.0210   38.8260 C.ar  298  PHE298     -0.0042
    129  CD2        6.0910   16.4860   40.3480 C.ar  298  PHE298     -0.0042
    130  CE1        6.7120   19.0840   39.6200 C.ar  298  PHE298     -0.0003
    131  CE2        5.6860   17.5450   41.1480 C.ar  298  PHE298     -0.0003
    132  CZ         5.9960   18.8460   40.7840 C.ar  298  PHE298     -0.0000
@<TRIPOS>BOND
     1    24    25    1
     2    14    15    2
     3    14    13    1
     4    12    13    1
     5    26    25    1
     6    26    27    2
     7    25    28    1
     8    13    16    1
     9     1     2    1
    10     3     2    1
    11     3     4    2
    12     2     5    1
    13    28    29    1
    14     5     6    1
    15    16    17    1
    16     8     6   ar
    17     8    10   ar
    18     6     7   ar
    19    10    11   ar
    20    18    17   ar
    21    18    20   ar
    22    17    19   ar
    23    29    30    1
    24    30    31    1
    25    31    32    2
    26   125   124    2
    27     7     9   ar
    28    20    22   ar
    29    11     9   ar
    30   124   123    1
    31    19    21   ar
    32    34    32    1
    33    32    33    1
    34   101   102    2
    35   101   100    1
    36   113   112    2
    37   123   122    1
    38   123   126    1
    39   112   122   am
    40   112   111    1
    41    22    21   ar
    42    22    23    1
    43   110   111    1
    44   103   100    1
    45   103   104    1
    46   111   114    1
    47   100    99    1
    48    84    85    1
    49   126   127    1
    50    88    85    1
    51    88    89    1
    52   104   105    1
    53    65    64    2
    54    47    46    2
    55   105   106    1
    56   128   127   ar
    57   128   130   ar
    58   114   115    1
    59    85    86    1
    60    91    90    2
    61   115   117   ar
    62   115   116   ar
    63    96    95    2
    64   106   107    2
    65   117   119   ar
    66   127   129   ar
    67   116   118   ar
    68   119   120   ar
    69    87    86    2
    70    89    90    1
    71   118   120   ar
    72    64    63    1
    73   120   121    1
    74   130   132   ar
    75    90    92   am
    76   107   109    1
    77   107   108    1
    78    46    45    1
    79    95    94    1
    80   129   131   ar
    81    67    66    1
    82    67    68    1
    83   132   131   ar
    84    66    63    1
    85    63    62    1
    86    45    48    1
    87    45    44    1
    88    94    93    1
    89    94    97    1
    90    48    49    1
    91    98    97    1
    92    51    50    2
    93    68    69    1
    94    52    50   am
    95    50    49    1
    96    71    70    1
    97    69    70    2
    98    70    72    1
    99    43    41   am
   100    73    74    1
   101    41    40    1
   102    41    42    2
   103    74    75    1
   104    74    77    1
   105    61    59   ar
   106    76    75    2
   107    40    39    1
   108    79    81   ar
   109    79    78   ar
   110    81    83   ar
   111    59    58    1
   112    59    60   ar
   113    77    78    1
   114    37    38    2
   115    37    36    1
   116    58    57    1
   117    78    80   ar
   118    39    36    1
   119    83    82   ar
   120    36    35    1
   121    53    54    1
   122    80    82   ar
   123    57    54    1
   124    54    55    1
   125    55    56    2
