@<TRIPOS>MOLECULE
tmp/4a2mB00.pdb
 100 92 0 0 0
SMALL
GASTEIGER

@<TRIPOS>ATOM
      1  N         34.1120   -7.5090   29.9520 N.3   344  ASN344     -0.1240
      2  CA        35.3360   -6.9070   29.4370 C.3   344  ASN344      0.1653
      3  C         36.1770   -6.2280   30.5120 C.2   344  ASN344      0.2266
      4  O         37.4060   -6.2440   30.4450 O.2   344  ASN344     -0.2867
      5  CB        35.0060   -5.9010   28.3350 C.3   344  ASN344      0.1155
      6  CG        36.2090   -5.5530   27.4840 C.2   344  ASN344      0.2627
      7  OD1       36.7230   -6.3910   26.7470 O.2   344  ASN344     -0.2716
      8  ND2       36.6610   -4.3090   27.5770 N.am  344  ASN344     -0.0877
      9  N         39.3670   -9.3060   31.7390 N.3   374  ASN374     -0.1240
     10  CA        38.8270   -9.2910   30.3870 C.3   374  ASN374      0.1653
     11  C         38.5910  -10.7060   29.8710 C.2   374  ASN374      0.2266
     12  O         39.4720  -11.3110   29.2590 O.2   374  ASN374     -0.2867
     13  CB        39.7670   -8.5250   29.4550 C.3   374  ASN374      0.1155
     14  CG        39.0780   -8.0460   28.1940 C.2   374  ASN374      0.2627
     15  OD1       38.3340   -8.7870   27.5530 O.2   374  ASN374     -0.2716
     16  ND2       39.3310   -6.7970   27.8280 N.am  374  ASN374     -0.0877
     17  N         36.9970  -13.7630   27.6510 N.3   376  LYS376     -0.1245
     18  CA        36.6230  -14.0040   26.2590 C.3   376  LYS376      0.1561
     19  C         36.0870  -15.4150   26.0100 C.2   376  LYS376      0.2260
     20  O         35.2500  -15.6110   25.1270 O.2   376  LYS376     -0.2867
     21  CB        37.8060  -13.7220   25.3240 C.3   376  LYS376      0.0271
     22  CG        38.2300  -12.2610   25.2490 C.3   376  LYS376      0.0035
     23  CD        37.1900  -11.3970   24.5500 C.3   376  LYS376      0.0206
     24  CE        37.6280   -9.9430   24.5060 C.3   376  LYS376      0.1093
     25  NZ        36.6420   -9.0870   23.7920 N.3   376  LYS376     -0.1314
     26  N         41.7180  -12.0930   27.8570 N.3   392  HIS392     -0.1241
     27  CA        42.5930  -11.2420   27.0580 C.3   392  HIS392      0.1621
     28  C         43.6270  -10.6050   27.9390 C.2   392  HIS392      0.2264
     29  O         43.3020  -10.0750   29.0040 O.2   392  HIS392     -0.2867
     30  CB        41.7920  -10.1740   26.3280 C.3   392  HIS392      0.0745
     31  CG        42.6330   -9.2710   25.4590 C.ar  392  HIS392      0.0817
     32  ND1       42.9670   -9.5890   24.1970 N.ar  392  HIS392     -0.2268
     33  CD2       43.2120   -8.0310   25.7190 C.ar  392  HIS392      0.1154
     34  CE1       43.7170   -8.6040   23.6700 C.ar  392  HIS392      0.1986
     35  NE2       43.8670   -7.6510   24.6030 N.ar  392  HIS392     -0.2212
     36  N         40.9400  -16.7540   23.3450 N.3   422  TYR422     -0.1241
     37  CA        39.6440  -16.2600   22.8780 C.3   422  TYR422      0.1605
     38  C         38.5960  -17.3600   22.6870 C.2   422  TYR422      0.2264
     39  O         37.3960  -17.0730   22.6270 O.2   422  TYR422     -0.2867
     40  CB        39.8190  -15.4660   21.5790 C.3   422  TYR422      0.0534
     41  CG        40.1680  -14.0050   21.7800 C.ar  422  TYR422     -0.0201
     42  CD1       41.4320  -13.6190   22.2220 C.ar  422  TYR422     -0.0009
     43  CD2       39.2310  -13.0070   21.5210 C.ar  422  TYR422     -0.0009
     44  CE1       41.7530  -12.2810   22.4050 C.ar  422  TYR422      0.0417
     45  CE2       39.5430  -11.6670   21.6980 C.ar  422  TYR422      0.0417
     46  CZ        40.8050  -11.3100   22.1400 C.ar  422  TYR422      0.1957
     47  OH        41.1140   -9.9800   22.3150 O.3   422  TYR422     -0.2866
     48  N         45.5590  -15.3740   19.6730 N.3   437  LEU437     -0.1245
     49  CA        45.7610  -14.3750   18.6200 C.3   437  LEU437      0.1561
     50  C         46.8820  -14.6930   17.6290 C.2   437  LEU437      0.2260
     51  O         46.9200  -14.1260   16.5340 O.2   437  LEU437     -0.2867
     52  CB        45.9970  -12.9910   19.2300 C.3   437  LEU437      0.0270
     53  CG        44.8680  -12.3190   20.0150 C.3   437  LEU437      0.0019
     54  CD1       45.2950  -10.9100   20.3950 C.3   437  LEU437      0.0001
     55  CD2       43.5590  -12.2910   19.2380 C.3   437  LEU437      0.0001
     56  N         45.3610  -15.3310   13.5720 N.3   466  GLN466     -0.1245
     57  CA        44.4490  -15.0230   14.6760 C.3   466  GLN466      0.1566
     58  C         43.2640  -15.9900   14.7260 C.2   466  GLN466      0.2260
     59  O         42.5650  -16.1860   13.7280 O.2   466  GLN466     -0.2867
     60  CB        43.9600  -13.5720   14.5670 C.3   466  GLN466      0.0367
     61  CG        42.9730  -13.1390   15.6440 C.3   466  GLN466      0.0905
     62  CD        42.6610  -11.6510   15.6020 C.2   466  GLN466      0.2608
     63  OE1       43.5610  -10.8120   15.6530 O.2   466  GLN466     -0.2717
     64  NE2       41.3760  -11.3180   15.5250 N.am  466  GLN466     -0.0878
     65  N         39.7300  -16.6950   16.7080 N.3   468  THR468     -0.1218
     66  CA        38.7240  -16.0620   17.5630 C.3   468  THR468      0.1862
     67  C         37.5910  -17.0080   17.9460 C.2   468  THR468      0.2287
     68  O         36.9350  -16.8120   18.9720 O.2   468  THR468     -0.2866
     69  CB        38.1130  -14.8080   16.9050 C.3   468  THR468      0.1770
     70  OG1       37.5720  -15.1530   15.6230 O.3   468  THR468     -0.2211
     71  CG2       39.1590  -13.7070   16.7460 C.3   468  THR468      0.0375
     72  N         36.6390  -12.1130    7.7550 N.3   511  PHE511     -0.1241
     73  CA        36.7080  -11.9700    9.2070 C.3   511  PHE511      0.1605
     74  C         35.5740  -12.7580    9.8640 C.2   511  PHE511      0.2264
     75  O         34.4420  -12.2810    9.9640 O.2   511  PHE511     -0.2867
     76  CB        36.6350  -10.4910    9.6010 C.3   511  PHE511      0.0534
     77  CG        37.2500  -10.1770   10.9420 C.ar  511  PHE511     -0.0203
     78  CD1       36.9080  -10.9020   12.0820 C.ar  511  PHE511     -0.0042
     79  CD2       38.1710   -9.1430   11.0640 C.ar  511  PHE511     -0.0042
     80  CE1       37.4740  -10.6040   13.3100 C.ar  511  PHE511     -0.0003
     81  CE2       38.7390   -8.8380   12.2920 C.ar  511  PHE511     -0.0003
     82  CZ        38.3910   -9.5720   13.4150 C.ar  511  PHE511     -0.0000
     83  N         32.0310  -10.4280    9.5080 N.3   528  ARG528     -0.1245
     84  CA        31.9420   -8.9770    9.6590 C.3   528  ARG528      0.1563
     85  C         31.3060   -8.3000    8.4430 C.2   528  ARG528      0.2260
     86  O         30.8720   -7.1480    8.5230 O.2   528  ARG528     -0.2867
     87  CB        33.3140   -8.3680    9.9710 C.3   528  ARG528      0.0307
     88  CG        33.8570   -8.7560   11.3380 C.3   528  ARG528      0.0489
     89  CD        34.4550   -7.5660   12.0700 C.3   528  ARG528      0.2205
     90  NE        34.8130   -7.9010   13.4480 N.pl3 528  ARG528     -0.0865
     91  CZ        34.6630   -7.0860   14.4910 C.cat 528  ARG528      0.5346
     92  NH1       34.1420   -5.8750   14.3350 N.pl3 528  ARG528      0.1354
     93  NH2       35.0200   -7.4900   15.7020 N.pl3 528  ARG528      0.1354
     94  N         30.9980   -9.5380   20.6200 N.3   600  THR600     -0.1218
     95  CA        31.4790  -10.8390   20.1540 C.3   600  THR600      0.1862
     96  C         31.2340  -11.9310   21.1880 C.2   600  THR600      0.2287
     97  O         31.3110  -11.6820   22.3920 O.2   600  THR600     -0.2866
     98  CB        32.9870  -10.8010   19.8280 C.3   600  THR600      0.1770
     99  OG1       33.3590   -9.4910   19.3840 O.3   600  THR600     -0.2211
    100  CG2       33.3310  -11.8190   18.7450 C.3   600  THR600      0.0375
@<TRIPOS>BOND
     1    72    73    1
     2    85    86    2
     3    85    84    1
     4    73    76    1
     5    73    74    1
     6    83    84    1
     7    76    77    1
     8    84    87    1
     9    74    75    2
    10    87    88    1
    11    77    79   ar
    12    77    78   ar
    13    79    81   ar
    14    88    89    1
    15    89    90    1
    16    78    80   ar
    17    81    82   ar
    18    80    82   ar
    19    90    91    2
    20    56    57    1
    21    59    58    2
    22    92    91    1
    23    91    93    1
    24    60    57    1
    25    60    61    1
    26    57    58    1
    27    64    62   am
    28    62    61    1
    29    62    63    2
    30    70    69    1
    31    51    50    2
    32    65    66    1
    33    71    69    1
    34    69    66    1
    35    66    67    1
    36    50    49    1
    37    67    68    2
    38    49    52    1
    39    49    48    1
    40   100    98    1
    41    52    53    1
    42    55    53    1
    43    99    98    1
    44    98    95    1
    45    53    54    1
    46    95    94    1
    47    95    96    1
    48    96    97    2
    49    43    45   ar
    50    43    41   ar
    51    40    41    1
    52    40    37    1
    53    45    46   ar
    54    41    42   ar
    55    46    47    1
    56    46    44   ar
    57    42    44   ar
    58    39    38    2
    59    38    37    1
    60    37    36    1
    61    34    32   ar
    62    34    35   ar
    63    25    24    1
    64    32    31   ar
    65    24    23    1
    66    23    22    1
    67    35    33   ar
    68    20    19    2
    69    22    21    1
    70    21    18    1
    71    31    33   ar
    72    31    30    1
    73    19    18    1
    74    18    17    1
    75    30    27    1
    76     7     6    2
    77    27    26    1
    78    27    28    1
    79     6     8   am
    80     6     5    1
    81    15    14    2
    82    16    14   am
    83    28    29    2
    84    14    13    1
    85     5     2    1
    86    12    11    2
    87     2     1    1
    88     2     3    1
    89    13    10    1
    90    11    10    1
    91    10     9    1
    92     4     3    2
