@<TRIPOS>MOLECULE
tmp/4a2nA00.pdb
 231 229 0 0 0
SMALL
GASTEIGER

@<TRIPOS>ATOM
      1  N         19.1690   52.7650  109.0530 N.3    99  LEU99      -0.1245
      2  CA        17.8170   52.5540  109.5670 C.3    99  LEU99       0.1561
      3  C         17.7420   51.2920  110.4130 C.2    99  LEU99       0.2260
      4  O         17.4940   51.3530  111.6060 O.2    99  LEU99      -0.2867
      5  CB        16.8160   52.4770  108.4130 C.3    99  LEU99       0.0270
      6  CG        15.6560   53.4740  108.3820 C.3    99  LEU99       0.0019
      7  CD1       14.7180   53.1690  107.2270 C.3    99  LEU99       0.0001
      8  CD2       14.9130   53.4010  109.6860 C.3    99  LEU99       0.0001
      9  N         14.3370   49.5160  112.5210 N.3   102  ASN102     -0.1225
     10  CA        13.1270   50.3150  112.4360 C.3   102  ASN102      0.1785
     11  C         12.3410   50.1800  111.1380 C.2   102  ASN102      0.2597
     12  O         11.1630   50.5330  111.0680 O.2   102  ASN102     -0.2718
     13  CB        13.4770   51.7730  112.6610 C.3   102  ASN102      0.1169
     14  CG        14.1560   51.9960  113.9790 C.2   102  ASN102      0.2627
     15  OD1       13.9910   51.2140  114.9160 O.2   102  ASN102     -0.2716
     16  ND2       14.9350   53.0640  114.0650 N.am  102  ASN102     -0.0877
     17  N         12.9810   49.6540  110.1110 N.am  103  TRP103     -0.1962
     18  CA        12.3810   49.6530  108.7840 C.3   103  TRP103      0.1771
     19  C         11.2060   48.6920  108.6070 C.2   103  TRP103      0.2620
     20  O         11.1650   47.6230  109.1990 O.2   103  TRP103     -0.2715
     21  CB        13.4600   49.3700  107.7390 C.3   103  TRP103      0.0590
     22  CG        12.9360   49.0440  106.3770 C.ar  103  TRP103      0.0006
     23  CD1       12.8190   49.8910  105.3160 C.ar  103  TRP103      0.0946
     24  CD2       12.4750   47.7760  105.9260 C.ar  103  TRP103      0.0152
     25  NE1       12.3080   49.2250  104.2310 N.ar  103  TRP103     -0.2442
     26  CE2       12.0900   47.9230  104.5820 C.ar  103  TRP103      0.0810
     27  CE3       12.3530   46.5280  106.5270 C.ar  103  TRP103      0.0012
     28  CZ2       11.5900   46.8750  103.8360 C.ar  103  TRP103      0.0191
     29  CZ3       11.8570   45.4870  105.7820 C.ar  103  TRP103      0.0001
     30  CH2       11.4810   45.6650  104.4510 C.ar  103  TRP103      0.0015
     31  N         10.2440   49.1050  107.7930 N.am  104  SER104     -0.1936
     32  CA         9.2310   48.2070  107.2480 C.3   104  SER104      0.2055
     33  C          8.7130   48.8590  105.9770 C.2   104  SER104      0.2642
     34  O          9.0070   50.0250  105.7350 O.2   104  SER104     -0.2714
     35  CB         8.0940   47.9820  108.2360 C.3   104  SER104      0.2130
     36  OG         7.3350   46.8450  107.8620 O.3   104  SER104     -0.2179
     37  N          7.9990   48.1280  105.1300 N.am  105  ALA105     -0.1977
     38  CA         7.3910   48.7950  103.9850 C.3   105  ALA105      0.1597
     39  C          5.9270   49.2420  104.2340 C.2   105  ALA105      0.2287
     40  O          5.3490   49.9710  103.4280 O.2   105  ALA105     -0.2864
     41  CB         7.5200   47.9400  102.7360 C.3   105  ALA105      0.0319
     42  N          4.4390   50.9230  107.0760 N.3   107  LEU107     -0.1231
     43  CA         4.1770   51.8460  108.1960 C.3   107  LEU107      0.1693
     44  C          4.0180   51.1650  109.5440 C.2   107  LEU107      0.2592
     45  O          3.1120   51.4990  110.2820 O.2   107  LEU107     -0.2718
     46  CB         2.8870   52.6380  107.9610 C.3   107  LEU107      0.0284
     47  CG         2.8450   53.6450  106.8130 C.3   107  LEU107      0.0019
     48  CD1        1.5080   53.6020  106.1180 C.3   107  LEU107      0.0001
     49  CD2        3.1150   55.0420  107.3060 C.3   107  LEU107      0.0001
     50  N          4.8860   50.2070  109.8600 N.am  108  GLU108     -0.1966
     51  CA         4.8790   49.5990  111.1820 C.3   108  GLU108      0.1733
     52  C          5.4800   50.6000  112.1390 C.2   108  GLU108      0.2616
     53  O          6.3350   51.3900  111.7690 O.2   108  GLU108     -0.2715
     54  CB         5.7170   48.3070  111.2290 C.3   108  GLU108      0.0429
     55  CG         5.2430   47.1660  110.3300 C.3   108  GLU108      0.1163
     56  CD         5.8840   45.8130  110.6710 C.2   108  GLU108      0.3649
     57  OE1        6.0090   45.5090  111.8750 O.co2 108  GLU108     -0.2457
     58  OE2        6.2560   45.0480  109.7440 O.co2 108  GLU108     -0.2457
     59  N          5.0290   50.5840  113.3740 N.am  109  ILE109     -0.1977
     60  CA         5.8080   51.2060  114.4110 C.3   109  ILE109      0.1596
     61  C          6.2290   50.0630  115.3000 C.2   109  ILE109      0.2287
     62  O          5.4040   49.4600  115.9790 O.2   109  ILE109     -0.2864
     63  CB         5.0150   52.2470  115.1530 C.3   109  ILE109      0.0276
     64  CG1        4.7840   53.4300  114.2250 C.3   109  ILE109      0.0022
     65  CG2        5.7740   52.7150  116.3630 C.3   109  ILE109      0.0022
     66  CD1        6.0490   54.1260  113.8100 C.3   109  ILE109      0.0001
     67  N         10.8220   50.7700  118.8320 N.3   113  HIS113     -0.1226
     68  CA        11.1550   51.7020  117.7580 C.3   113  HIS113      0.1752
     69  C         11.9290   52.8990  118.2820 C.2   113  HIS113      0.2596
     70  O         11.5120   53.5480  119.2410 O.2   113  HIS113     -0.2718
     71  CB         9.8590   52.1650  117.0830 C.3   113  HIS113      0.0759
     72  CG        10.0180   52.5660  115.6530 C.ar  113  HIS113      0.0818
     73  ND1        9.1090   52.2120  114.6810 N.ar  113  HIS113     -0.2268
     74  CD2       10.9660   53.3040  115.0310 C.ar  113  HIS113      0.1154
     75  CE1        9.4950   52.7050  113.5190 C.ar  113  HIS113      0.1986
     76  NE2       10.6170   53.3770  113.7040 N.ar  113  HIS113     -0.2212
     77  N         13.0540   53.2040  117.6440 N.am  114  LYS114     -0.1966
     78  CA        13.8500   54.3700  118.0130 C.3   114  LYS114      0.1728
     79  C         13.9280   55.3400  116.8390 C.2   114  LYS114      0.2616
     80  O         14.2170   54.9340  115.7140 O.2   114  LYS114     -0.2715
     81  CB        15.2430   53.9470  118.4480 C.3   114  LYS114      0.0311
     82  CG        16.0330   53.2410  117.3580 C.3   114  LYS114      0.0038
     83  CD        17.2800   52.5580  117.9440 C.3   114  LYS114      0.0206
     84  CE        18.5030   52.7130  117.0400 C.3   114  LYS114      0.1093
     85  NZ        18.1890   52.2950  115.6500 N.3   114  LYS114     -0.1314
     86  N         13.6650   56.6190  117.0950 N.am  115  LEU115     -0.1963
     87  CA        13.6570   57.5920  116.0250 C.3   115  LEU115      0.1728
     88  C         15.0860   57.9430  115.7400 C.2   115  LEU115      0.2616
     89  O         15.8480   58.1970  116.6660 O.2   115  LEU115     -0.2715
     90  CB        12.8970   58.8470  116.4270 C.3   115  LEU115      0.0311
     91  CG        13.0710   60.0330  115.4720 C.3   115  LEU115      0.0022
     92  CD1       12.7920   59.6150  114.0470 C.3   115  LEU115      0.0001
     93  CD2       12.1800   61.2030  115.8560 C.3   115  LEU115      0.0001
     94  N         15.4470   57.9620  114.4610 N.am  116  VAL116     -0.1977
     95  CA        16.8150   58.2560  114.0520 C.3   116  VAL116      0.1596
     96  C         16.9480   59.5650  113.2750 C.2   116  VAL116      0.2287
     97  O         16.5130   59.6690  112.1290 O.2   116  VAL116     -0.2864
     98  CB        17.3840   57.0970  113.2170 C.3   116  VAL116      0.0276
     99  CG1       16.2650   56.1610  112.7890 C.3   116  VAL116      0.0022
    100  CG2       18.1640   57.6180  112.0160 C.3   116  VAL116      0.0022
    101  N         20.2150   60.3100  107.6940 N.3   121  TYR121     -0.1241
    102  CA        18.9580   60.9240  108.1170 C.3   121  TYR121      0.1605
    103  C         19.0550   62.3320  108.7160 C.2   121  TYR121      0.2264
    104  O         18.0520   63.0240  108.8210 O.2   121  TYR121     -0.2867
    105  CB        18.2210   60.0050  109.0840 C.3   121  TYR121      0.0534
    106  CG        17.5510   58.8630  108.3790 C.ar  121  TYR121     -0.0201
    107  CD1       18.2490   57.7030  108.0850 C.ar  121  TYR121     -0.0009
    108  CD2       16.2230   58.9490  107.9800 C.ar  121  TYR121     -0.0009
    109  CE1       17.6380   56.6510  107.4270 C.ar  121  TYR121      0.0417
    110  CE2       15.6060   57.9000  107.3230 C.ar  121  TYR121      0.0417
    111  CZ        16.3200   56.7580  107.0500 C.ar  121  TYR121      0.1957
    112  OH        15.7240   55.7150  106.3960 O.3   121  TYR121     -0.2866
    113  N         14.8080   63.2440  106.0810 N.3   125  ARG125     -0.1231
    114  CA        13.9530   62.1680  106.5600 C.3   125  ARG125      0.1694
    115  C         13.3630   61.6220  105.2860 C.2   125  ARG125      0.2592
    116  O         13.1970   62.3690  104.3260 O.2   125  ARG125     -0.2718
    117  CB        12.8630   62.7070  107.4690 C.3   125  ARG125      0.0321
    118  CG        12.3460   64.0790  107.0290 C.3   125  ARG125      0.0489
    119  CD        11.2000   64.5930  107.8990 C.3   125  ARG125      0.2205
    120  NE        11.0360   66.0380  107.7660 N.pl3 125  ARG125     -0.0865
    121  CZ        10.2810   66.6180  106.8410 C.cat 125  ARG125      0.5346
    122  NH1        9.6180   65.8600  105.9870 N.pl3 125  ARG125      0.1354
    123  NH2       10.1820   67.9440  106.7680 N.pl3 125  ARG125      0.1354
    124  N         13.0710   60.3300  105.2490 N.am  126  HIS126     -0.1962
    125  CA        12.7270   59.6480  103.9910 C.3   126  HIS126      0.1772
    126  C         13.7930   59.7720  102.9110 C.2   126  HIS126      0.2462
    127  O         13.4690   60.0660  101.7560 O.2   126  HIS126     -0.2730
    128  CB        11.4240   60.1620  103.3860 C.3   126  HIS126      0.0785
    129  CG        10.5170   60.8160  104.3680 C.ar  126  HIS126      0.0821
    130  ND1       10.4630   60.4460  105.6940 N.ar  126  HIS126     -0.2267
    131  CD2        9.6310   61.8270  104.2220 C.ar  126  HIS126      0.1154
    132  CE1        9.5790   61.1970  106.3210 C.ar  126  HIS126      0.1986
    133  NE2        9.0590   62.0440  105.4510 N.ar  126  HIS126     -0.2212
    134  N         15.0650   59.5320  103.2740 N.am  127  PRO127     -0.2716
    135  CA        16.1050   59.4060  102.2560 C.3   127  PRO127      0.1536
    136  C         15.8060   58.2260  101.3380 C.2   127  PRO127      0.2598
    137  O         15.8400   58.3230  100.1160 O.2   127  PRO127     -0.2715
    138  CB        17.3430   59.0900  103.0900 C.3   127  PRO127      0.0310
    139  CG        16.8120   58.4690  104.3320 C.3   127  PRO127      0.0237
    140  CD        15.5980   59.2700  104.6210 C.3   127  PRO127      0.0939
    141  N         15.4860   57.1000  101.9680 N.am  128  MET128     -0.1964
    142  CA        15.1210   55.8870  101.2520 C.3   128  MET128      0.1736
    143  C         14.1950   56.2010  100.0850 C.2   128  MET128      0.2616
    144  O         14.4370   55.7620   98.9600 O.2   128  MET128     -0.2715
    145  CB        14.4530   54.8870  102.1980 C.3   128  MET128      0.0427
    146  CG        14.0870   53.5640  101.5450 C.3   128  MET128      0.0599
    147  SD        14.3600   52.1520  102.6310 S.3   128  MET128     -0.1393
    148  CE        13.2550   50.9450  101.9030 C.3   128  MET128      0.0692
    149  N         13.1360   56.9620  100.3470 N.am  129  TYR129     -0.1974
    150  CA        12.2120   57.3180   99.2840 C.3   129  TYR129      0.1639
    151  C         12.9530   58.0510   98.1890 C.2   129  TYR129      0.2290
    152  O         12.8750   57.6990   97.0110 O.2   129  TYR129     -0.2864
    153  CB        11.0730   58.1720   99.8120 C.3   129  TYR129      0.0560
    154  CG        10.2160   57.3820  100.7250 C.ar  129  TYR129     -0.0198
    155  CD1       10.2110   56.0120  100.6440 C.ar  129  TYR129     -0.0009
    156  CD2        9.4390   57.9880  101.6880 C.ar  129  TYR129     -0.0009
    157  CE1        9.4430   55.2540  101.4820 C.ar  129  TYR129      0.0417
    158  CE2        8.6630   57.2420  102.5470 C.ar  129  TYR129      0.0417
    159  CZ         8.6650   55.8650  102.4390 C.ar  129  TYR129      0.1957
    160  OH         7.8940   55.0790  103.2800 O.3   129  TYR129     -0.2866
    161  N          1.5760   58.1290  100.5300 N.3   163  ARG163     -0.1245
    162  CA         2.2150   57.4320  101.6340 C.3   163  ARG163      0.1563
    163  C          2.7780   58.3660  102.6840 C.2   163  ARG163      0.2260
    164  O          2.5820   58.1630  103.8770 O.2   163  ARG163     -0.2867
    165  CB         3.3240   56.5040  101.1380 C.3   163  ARG163      0.0307
    166  CG         4.2240   55.9920  102.2290 C.3   163  ARG163      0.0489
    167  CD         3.5530   54.9640  103.1060 C.3   163  ARG163      0.2205
    168  NE         3.5950   53.6280  102.5150 N.pl3 163  ARG163     -0.0865
    169  CZ         4.7020   53.0410  102.0710 C.cat 163  ARG163      0.5346
    170  NH1        5.8670   53.6760  102.1360 N.pl3 163  ARG163      0.1354
    171  NH2        4.6450   51.8200  101.5550 N.pl3 163  ARG163      0.1354
    172  N          2.6630   58.7620  107.0400 N.3   167  GLU167     -0.1245
    173  CA         3.9000   58.3150  107.6720 C.3   167  GLU167      0.1567
    174  C          4.4010   59.3210  108.6750 C.2   167  GLU167      0.2260
    175  O          4.7690   58.9600  109.7870 O.2   167  GLU167     -0.2867
    176  CB         4.9780   58.0640  106.6200 C.3   167  GLU167      0.0388
    177  CG         6.2940   57.5180  107.1810 C.3   167  GLU167      0.1160
    178  CD         7.1120   56.7530  106.1370 C.2   167  GLU167      0.3649
    179  OE1        6.5170   55.9750  105.3590 O.co2 167  GLU167     -0.2457
    180  OE2        8.3470   56.9270  106.0880 O.co2 167  GLU167     -0.2457
    181  N          2.0470   59.6780  111.3730 N.3   170  LEU170     -0.1231
    182  CA         2.2760   58.5050  112.2060 C.3   170  LEU170      0.1693
    183  C          3.4550   58.6920  113.1400 C.2   170  LEU170      0.2591
    184  O          3.3520   58.4320  114.3320 O.2   170  LEU170     -0.2718
    185  CB         2.5330   57.2880  111.3460 C.3   170  LEU170      0.0284
    186  CG         2.4320   55.9760  112.1140 C.3   170  LEU170      0.0019
    187  CD1        2.8790   54.8510  111.2210 C.3   170  LEU170      0.0001
    188  CD2        3.2590   55.9830  113.3670 C.3   170  LEU170      0.0001
    189  N          4.5880   59.1120  112.5950 N.am  171  LEU171     -0.1980
    190  CA         5.7750   59.3130  113.4210 C.3   171  LEU171      0.1596
    191  C          5.5360   60.3810  114.4590 C.2   171  LEU171      0.2287
    192  O          6.1360   60.3490  115.5300 O.2   171  LEU171     -0.2864
    193  CB         7.0060   59.6700  112.5870 C.3   171  LEU171      0.0297
    194  CG         7.5830   58.5020  111.7970 C.3   171  LEU171      0.0022
    195  CD1        8.7600   58.9790  111.0050 C.3   171  LEU171      0.0001
    196  CD2        7.9740   57.3620  112.7170 C.3   171  LEU171      0.0001
    197  N          6.5830   59.9060  118.3610 N.3   175  PHE175     -0.1241
    198  CA         7.6800   60.7090  118.8770 C.3   175  PHE175      0.1605
    199  C          7.3120   62.1370  119.2610 C.2   175  PHE175      0.2264
    200  O          8.1030   62.8310  119.8970 O.2   175  PHE175     -0.2867
    201  CB         8.8170   60.6840  117.8740 C.3   175  PHE175      0.0534
    202  CG         9.2370   59.2970  117.4970 C.ar  175  PHE175     -0.0203
    203  CD1        9.5040   58.3580  118.4750 C.ar  175  PHE175     -0.0042
    204  CD2        9.3330   58.9180  116.1710 C.ar  175  PHE175     -0.0042
    205  CE1        9.8870   57.0770  118.1400 C.ar  175  PHE175     -0.0003
    206  CE2        9.7150   57.6330  115.8330 C.ar  175  PHE175     -0.0003
    207  CZ         9.9920   56.7150  116.8210 C.ar  175  PHE175     -0.0000
    208  N          9.7160   64.8480  116.5830 N.3   179  TYR179     -0.1241
    209  CA         9.5620   64.7800  115.1340 C.3   179  TYR179      0.1605
    210  C          9.2880   66.1360  114.5020 C.2   179  TYR179      0.2264
    211  O          9.7690   66.4120  113.4060 O.2   179  TYR179     -0.2867
    212  CB         8.5010   63.7710  114.7000 C.3   179  TYR179      0.0534
    213  CG         8.7480   63.2460  113.3000 C.ar  179  TYR179     -0.0201
    214  CD1        9.6060   62.1850  113.0880 C.ar  179  TYR179     -0.0009
    215  CD2        8.1400   63.8160  112.1930 C.ar  179  TYR179     -0.0009
    216  CE1        9.8560   61.7050  111.8190 C.ar  179  TYR179      0.0417
    217  CE2        8.3820   63.3290  110.9090 C.ar  179  TYR179      0.0417
    218  CZ         9.2450   62.2730  110.7350 C.ar  179  TYR179      0.1957
    219  OH         9.5160   61.7700  109.4830 O.3   179  TYR179     -0.2866
    220  N         12.4010   67.7940  114.1600 N.3   182  TYR182     -0.1241
    221  CA        13.1470   67.1410  113.1000 C.3   182  TYR182      0.1605
    222  C         12.8080   67.7440  111.7440 C.2   182  TYR182      0.2264
    223  O         13.6950   68.2220  111.0400 O.2   182  TYR182     -0.2867
    224  CB        12.8310   65.6510  113.1240 C.3   182  TYR182      0.0534
    225  CG        13.6620   64.7780  112.2180 C.ar  182  TYR182     -0.0201
    226  CD1       14.4380   65.3090  111.2030 C.ar  182  TYR182     -0.0009
    227  CD2       13.6520   63.4050  112.3780 C.ar  182  TYR182     -0.0009
    228  CE1       15.1790   64.4920  110.3790 C.ar  182  TYR182      0.0417
    229  CE2       14.3840   62.5890  111.5660 C.ar  182  TYR182      0.0417
    230  CZ        15.1440   63.1310  110.5710 C.ar  182  TYR182      0.1957
    231  OH        15.8590   62.2820  109.7690 O.3   182  TYR182     -0.2866
@<TRIPOS>BOND
     1   152   151    2
     2   151   150    1
     3   144   143    2
     4   150   153    1
     5   150   149    1
     6   153   154    1
     7   143   149   am
     8   143   142    1
     9   137   136    2
    10   161   162    1
    11   155   154   ar
    12   155   157   ar
    13   154   156   ar
    14   165   162    1
    15   165   166    1
    16   142   141    1
    17   142   145    1
    18   136   141   am
    19   136   135    1
    20   157   159   ar
    21   146   145    1
    22   146   147    1
    23   171   169    1
    24   162   163    1
    25   156   158   ar
    26   127   126    2
    27   148   147    1
    28   169   170    1
    29   169   168    2
    30   166   167    1
    31   135   138    1
    32   135   134    1
    33   159   158   ar
    34   159   160    1
    35   168   167    1
    36   163   164    2
    37    41    38    1
    38   126   134   am
    39   126   125    1
    40   138   139    1
    41   134   140    1
    42   128   125    1
    43   128   129    1
    44    40    39    2
    45    28    30   ar
    46    28    26   ar
    47    38    39    1
    48    38    37    1
    49   125   124    1
    50   131   129   ar
    51   131   133   ar
    52    25    26   ar
    53    25    23   ar
    54   116   115    2
    55   139   140    1
    56   129   130   ar
    57    30    29   ar
    58    26    24   ar
    59    37    33   am
    60   124   115   am
    61   115   114    1
    62    23    22   ar
    63   179   178   ar
    64   133   132   ar
    65   130   132   ar
    66    34    33    2
    67    29    27   ar
    68    24    22   ar
    69    24    27   ar
    70    33    32    1
    71   122   121    1
    72   113   114    1
    73   180   178   ar
    74    48    47    1
    75   178   177    1
    76    22    21    1
    77   112   111    1
    78   114   117    1
    79   176   177    1
    80   176   173    1
    81   123   121    1
    82    47    49    1
    83    47    46    1
    84   121   120    2
    85   118   117    1
    86   118   119    1
    87   172   173    1
    88   111   110   ar
    89   111   109   ar
    90    42    43    1
    91     7     6    1
    92    32    31    1
    93    32    35    1
    94   110   108   ar
    95   109   107   ar
    96   173   174    1
    97   101   102    1
    98    21    18    1
    99   120   119    1
   100    31    19   am
   101    36    35    1
   102    46    43    1
   103   108   106   ar
   104   107   106   ar
   105   102   103    1
   106   102   105    1
   107    43    44    1
   108   106   105    1
   109     6     5    1
   110     6     8    1
   111     5     2    1
   112    19    18    1
   113    19    20    2
   114   174   175    2
   115   103   104    2
   116    18    17    1
   117     1     2    1
   118   219   218    1
   119    44    50   am
   120    44    45    2
   121     2     3    1
   122    58    56   ar
   123   231   230    1
   124    50    51    1
   125    17    11   am
   126    55    56    1
   127    55    54    1
   128   228   230   ar
   129   228   226   ar
   130     3     4    2
   131   230   229   ar
   132    56    57   ar
   133   218   217   ar
   134   218   216   ar
   135   217   215   ar
   136   195   194    1
   137   223   222    2
   138    12    11    2
   139    11    10    1
   140    51    54    1
   141    51    52    1
   142   226   225   ar
   143   187   186    1
   144   185   186    1
   145   185   182    1
   146   181   182    1
   147   229   227   ar
   148   222   221    1
   149    53    52    2
   150   194   193    1
   151   194   196    1
   152   216   214   ar
   153   100    98    1
   154   186   188    1
   155    97    96    2
   156    52    59   am
   157   215   213   ar
   158   182   183    1
   159   225   227   ar
   160   225   224    1
   161    10     9    1
   162    10    13    1
   163   193   190    1
   164   189   183   am
   165   189   190    1
   166    13    14    1
   167    99    98    1
   168   214   213   ar
   169   221   224    1
   170   221   220    1
   171   183   184    2
   172    98    95    1
   173    96    95    1
   174   213   212    1
   175    59    60    1
   176   211   210    2
   177   190   191    1
   178    75    76   ar
   179    75    73   ar
   180    76    74   ar
   181    66    64    1
   182    14    16   am
   183    14    15    2
   184    92    91    1
   185    95    94    1
   186    64    63    1
   187    60    63    1
   188    60    61    1
   189   191   192    2
   190    94    88   am
   191   210   209    1
   192    73    72   ar
   193   212   209    1
   194    74    72   ar
   195   209   208    1
   196    63    65    1
   197    61    62    2
   198    91    93    1
   199    91    90    1
   200    85    84    1
   201    72    71    1
   202    80    79    2
   203    88    87    1
   204    88    89    2
   205   206   204   ar
   206   206   207   ar
   207    87    90    1
   208    87    86    1
   209   204   202   ar
   210   207   205   ar
   211    79    86   am
   212    79    78    1
   213    84    83    1
   214    71    68    1
   215    82    83    1
   216    82    81    1
   217   202   201    1
   218   202   203   ar
   219    77    78    1
   220    77    69   am
   221    68    69    1
   222    68    67    1
   223   201   198    1
   224    78    81    1
   225   205   203   ar
   226    69    70    2
   227   197   198    1
   228   198   199    1
   229   199   200    2
