@<TRIPOS>MOLECULE
tmp/4a2nA01.pdb
 156 151 0 0 0
SMALL
GASTEIGER

@<TRIPOS>ATOM
      1  N         20.9880   44.8650   94.0790 N.3    17  TRP17      -0.1227
      2  CA        20.0770   45.8110   94.7130 C.3    17  TRP17       0.1737
      3  C         19.1610   45.0360   95.6000 C.2    17  TRP17       0.2595
      4  O         18.8500   45.4590   96.7010 O.2    17  TRP17      -0.2718
      5  CB        19.2360   46.5240   93.6610 C.3    17  TRP17       0.0564
      6  CG        18.1390   47.4540   94.1920 C.ar   17  TRP17       0.0003
      7  CD1       18.2830   48.4940   95.0750 C.ar   17  TRP17       0.0946
      8  CD2       16.7540   47.4540   93.8080 C.ar   17  TRP17       0.0152
      9  NE1       17.0770   49.1220   95.2740 N.ar   17  TRP17      -0.2442
     10  CE2       16.1260   48.5020   94.5070 C.ar   17  TRP17       0.0810
     11  CE3       15.9840   46.6620   92.9460 C.ar   17  TRP17       0.0012
     12  CZ2       14.7780   48.7690   94.3740 C.ar   17  TRP17       0.0191
     13  CZ3       14.6510   46.9370   92.8150 C.ar   17  TRP17       0.0001
     14  CH2       14.0590   47.9760   93.5270 C.ar   17  TRP17       0.0015
     15  N         18.7170   43.8930   95.0980 N.am   18  VAL18      -0.1980
     16  CA        17.7980   43.0630   95.8450 C.3    18  VAL18       0.1595
     17  C         18.5370   42.4650   97.0200 C.2    18  VAL18       0.2287
     18  O         18.0460   42.5000   98.1390 O.2    18  VAL18      -0.2864
     19  CB        17.1740   41.9420   94.9890 C.3    18  VAL18       0.0276
     20  CG1       16.3730   41.0140   95.8670 C.3    18  VAL18       0.0022
     21  CG2       16.2850   42.5230   93.8880 C.3    18  VAL18       0.0022
     22  N         18.7100   44.4770  100.1650 N.3    21  ARG21      -0.1245
     23  CA        17.4700   44.5420  100.9430 C.3    21  ARG21       0.1563
     24  C         17.1920   43.2170  101.6200 C.2    21  ARG21       0.2260
     25  O         16.9070   43.1790  102.8150 O.2    21  ARG21      -0.2867
     26  CB        16.2570   44.9410  100.0960 C.3    21  ARG21       0.0307
     27  CG        15.1280   45.5260  100.9410 C.3    21  ARG21       0.0489
     28  CD        13.7310   45.2320  100.3860 C.3    21  ARG21       0.2205
     29  NE        13.0730   46.3730   99.7300 N.pl3  21  ARG21      -0.0865
     30  CZ        12.8990   47.5840  100.2680 C.cat  21  ARG21       0.5346
     31  NH1       13.3600   47.8610  101.4830 N.pl3  21  ARG21       0.1354
     32  NH2       12.2730   48.5350   99.5780 N.pl3  21  ARG21       0.1354
     33  N          2.1510   48.9230   97.8750 N.3    46  VAL46      -0.1245
     34  CA         3.4870   48.4090   97.7220 C.3    46  VAL46       0.1561
     35  C          3.5020   47.4770   96.5420 C.2    46  VAL46       0.2260
     36  O          4.2580   47.6700   95.5910 O.2    46  VAL46      -0.2867
     37  CB         3.9050   47.6140   98.9500 C.3    46  VAL46       0.0252
     38  CG1        4.8080   46.4550   98.5470 C.3    46  VAL46       0.0019
     39  CG2        4.5950   48.5160   99.9590 C.3    46  VAL46       0.0019
     40  N          3.9740   49.0050   93.3870 N.3    49  ASN49      -0.1225
     41  CA         5.3470   49.2520   93.0290 C.3    49  ASN49       0.1785
     42  C          6.0500   47.9680   92.7280 C.2    49  ASN49       0.2597
     43  O          6.8360   47.9000   91.8140 O.2    49  ASN49      -0.2718
     44  CB         6.0670   49.9930   94.1230 C.3    49  ASN49       0.1169
     45  CG         6.1970   51.4330   93.8010 C.2    49  ASN49       0.2627
     46  OD1        6.5420   51.7930   92.6740 O.2    49  ASN49      -0.2716
     47  ND2        5.8760   52.2810   94.7580 N.am   49  ASN49      -0.0877
     48  N          5.7410   46.9220   93.4610 N.am   50  PHE50      -0.1976
     49  CA         6.3920   45.6700   93.1660 C.3    50  PHE50       0.1639
     50  C          6.3520   45.3140   91.7090 C.2    50  PHE50       0.2290
     51  O          7.2800   44.7170   91.2050 O.2    50  PHE50      -0.2864
     52  CB         5.8290   44.5480   93.9880 C.3    50  PHE50       0.0560
     53  CG         6.8300   43.9700   94.8740 C.ar   50  PHE50      -0.0200
     54  CD1        7.3270   44.7260   95.9160 C.ar   50  PHE50      -0.0042
     55  CD2        7.3470   42.7150   94.6320 C.ar   50  PHE50      -0.0042
     56  CE1        8.2890   44.2280   96.7350 C.ar   50  PHE50      -0.0003
     57  CE2        8.3150   42.2000   95.4530 C.ar   50  PHE50      -0.0003
     58  CZ         8.7900   42.9590   96.5100 C.ar   50  PHE50      -0.0000
     59  N          9.0160   48.0710   90.2180 N.3    53  MET53      -0.1230
     60  CA        10.4050   47.7930   90.5110 C.3    53  MET53       0.1702
     61  C         10.8560   46.4860   89.8910 C.2    53  MET53       0.2592
     62  O         11.9040   46.4410   89.2610 O.2    53  MET53      -0.2718
     63  CB        10.6340   47.7030   92.0170 C.3    53  MET53       0.0401
     64  CG         9.8820   48.7130   92.8480 C.3    53  MET53       0.0596
     65  SD        10.4680   50.3930   92.6610 S.3    53  MET53      -0.1393
     66  CE        10.5690   50.8170   94.3860 C.3    53  MET53       0.0692
     67  N         10.0870   45.4200   90.0840 N.am   54  VAL54      -0.1980
     68  CA        10.5940   44.0930   89.7690 C.3    54  VAL54       0.1595
     69  C          9.8470   43.3370   88.6750 C.2    54  VAL54       0.2287
     70  O         10.4330   43.0300   87.6490 O.2    54  VAL54      -0.2864
     71  CB        10.8170   43.2340   91.0410 C.3    54  VAL54       0.0276
     72  CG1       10.8510   44.1130   92.2660 C.3    54  VAL54       0.0022
     73  CG2        9.7640   42.1740   91.1910 C.3    54  VAL54       0.0022
     74  N         21.7530   53.4380   99.1570 N.3    92  PHE92      -0.1241
     75  CA        20.8030   52.4640   99.6600 C.3    92  PHE92       0.1605
     76  C         21.3870   51.8010  100.8760 C.2    92  PHE92       0.2264
     77  O         20.9070   51.9840  101.9800 O.2    92  PHE92      -0.2867
     78  CB        20.5850   51.4030   98.6050 C.3    92  PHE92       0.0534
     79  CG        19.3230   50.5980   98.7820 C.ar   92  PHE92      -0.0203
     80  CD1       18.1140   51.2170   99.0110 C.ar   92  PHE92      -0.0042
     81  CD2       19.3430   49.2130   98.6600 C.ar   92  PHE92      -0.0042
     82  CE1       16.9580   50.4780   99.1360 C.ar   92  PHE92      -0.0003
     83  CE2       18.1820   48.4710   98.7820 C.ar   92  PHE92      -0.0003
     84  CZ        16.9950   49.1040   99.0240 C.ar   92  PHE92      -0.0000
     85  N         10.2440   49.1050  107.7930 N.3   104  SER104     -0.1202
     86  CA         9.2310   48.2070  107.2480 C.3   104  SER104      0.2020
     87  C          8.7130   48.8590  105.9770 C.2   104  SER104      0.2618
     88  O          9.0070   50.0250  105.7350 O.2   104  SER104     -0.2717
     89  CB         8.0940   47.9820  108.2360 C.3   104  SER104      0.2103
     90  OG         7.3350   46.8450  107.8620 O.3   104  SER104     -0.2182
     91  N          7.9990   48.1280  105.1300 N.am  105  ALA105     -0.1979
     92  CA         7.3910   48.7950  103.9850 C.3   105  ALA105      0.1597
     93  C          5.9270   49.2420  104.2340 C.2   105  ALA105      0.2287
     94  O          5.3490   49.9710  103.4280 O.2   105  ALA105     -0.2864
     95  CB         7.5200   47.9400  102.7360 C.3   105  ALA105      0.0319
     96  N         15.4860   57.1000  101.9680 N.3   128  MET128     -0.1230
     97  CA        15.1210   55.8870  101.2520 C.3   128  MET128      0.1702
     98  C         14.1950   56.2010  100.0850 C.2   128  MET128      0.2592
     99  O         14.4370   55.7620   98.9600 O.2   128  MET128     -0.2718
    100  CB        14.4530   54.8870  102.1980 C.3   128  MET128      0.0401
    101  CG        14.0870   53.5640  101.5450 C.3   128  MET128      0.0596
    102  SD        14.3600   52.1520  102.6310 S.3   128  MET128     -0.1393
    103  CE        13.2550   50.9450  101.9030 C.3   128  MET128      0.0692
    104  N         13.1360   56.9620  100.3470 N.am  129  TYR129     -0.1976
    105  CA        12.2120   57.3180   99.2840 C.3   129  TYR129      0.1639
    106  C         12.9530   58.0510   98.1890 C.2   129  TYR129      0.2290
    107  O         12.8750   57.6990   97.0110 O.2   129  TYR129     -0.2864
    108  CB        11.0730   58.1720   99.8120 C.3   129  TYR129      0.0560
    109  CG        10.2160   57.3820  100.7250 C.ar  129  TYR129     -0.0198
    110  CD1       10.2110   56.0120  100.6440 C.ar  129  TYR129     -0.0009
    111  CD2        9.4390   57.9880  101.6880 C.ar  129  TYR129     -0.0009
    112  CE1        9.4430   55.2540  101.4820 C.ar  129  TYR129      0.0417
    113  CE2        8.6630   57.2420  102.5470 C.ar  129  TYR129      0.0417
    114  CZ         8.6650   55.8650  102.4390 C.ar  129  TYR129      0.1957
    115  OH         7.8940   55.0790  103.2800 O.3   129  TYR129     -0.2866
    116  N         14.5220   55.5590   96.2260 N.3   132  LEU132     -0.1245
    117  CA        13.5350   54.9440   95.3690 C.3   132  LEU132      0.1561
    118  C         13.1800   55.8900   94.2440 C.2   132  LEU132      0.2260
    119  O         13.0600   55.4820   93.0940 O.2   132  LEU132     -0.2867
    120  CB        12.2890   54.6040   96.1620 C.3   132  LEU132      0.0270
    121  CG        12.3210   53.3030   96.9410 C.3   132  LEU132      0.0019
    122  CD1       13.1890   52.3180   96.2240 C.3   132  LEU132      0.0001
    123  CD2       12.8520   53.5600   98.3030 C.3   132  LEU132      0.0001
    124  N          5.2810   54.5270   91.8810 N.3   156  TRP156     -0.1241
    125  CA         5.9560   55.0460   93.0590 C.3   156  TRP156      0.1605
    126  C          5.3590   56.3850   93.5060 C.2   156  TRP156      0.2264
    127  O          4.9210   56.5280   94.6520 O.2   156  TRP156     -0.2867
    128  CB         7.4680   55.1610   92.8280 C.3   156  TRP156      0.0550
    129  CG         8.1680   55.9050   93.9030 C.ar  156  TRP156      0.0003
    130  CD1        8.7640   57.1270   93.7990 C.ar  156  TRP156      0.0946
    131  CD2        8.3290   55.4870   95.2530 C.ar  156  TRP156      0.0152
    132  NE1        9.2880   57.4930   95.0030 N.ar  156  TRP156     -0.2442
    133  CE2        9.0340   56.5050   95.9170 C.ar  156  TRP156      0.0810
    134  CE3        7.9430   54.3520   95.9680 C.ar  156  TRP156      0.0012
    135  CZ2        9.3650   56.4230   97.2640 C.ar  156  TRP156      0.0191
    136  CZ3        8.2710   54.2710   97.2980 C.ar  156  TRP156      0.0001
    137  CH2        8.9790   55.3000   97.9350 C.ar  156  TRP156      0.0015
    138  N          2.3660   55.9630   95.5180 N.3   159  LEU159     -0.1245
    139  CA         2.6440   55.3250   96.7770 C.3   159  LEU159      0.1561
    140  C          3.3560   56.3550   97.6080 C.2   159  LEU159      0.2260
    141  O          2.9520   56.6340   98.7190 O.2   159  LEU159     -0.2867
    142  CB         3.5220   54.1110   96.5700 C.3   159  LEU159      0.0270
    143  CG         3.8100   53.3380   97.8430 C.3   159  LEU159      0.0019
    144  CD1        4.5560   52.0990   97.4610 C.3   159  LEU159      0.0001
    145  CD2        4.6290   54.1730   98.7990 C.3   159  LEU159      0.0001
    146  N          1.5760   58.1290  100.5300 N.3   163  ARG163     -0.1245
    147  CA         2.2150   57.4320  101.6340 C.3   163  ARG163      0.1563
    148  C          2.7780   58.3660  102.6840 C.2   163  ARG163      0.2260
    149  O          2.5820   58.1630  103.8770 O.2   163  ARG163     -0.2867
    150  CB         3.3240   56.5040  101.1380 C.3   163  ARG163      0.0307
    151  CG         4.2240   55.9920  102.2290 C.3   163  ARG163      0.0489
    152  CD         3.5530   54.9640  103.1060 C.3   163  ARG163      0.2205
    153  NE         3.5950   53.6280  102.5150 N.pl3 163  ARG163     -0.0865
    154  CZ         4.7020   53.0410  102.0710 C.cat 163  ARG163      0.5346
    155  NH1        5.8670   53.6760  102.1360 N.pl3 163  ARG163      0.1354
    156  NH2        4.6450   51.8200  101.5550 N.pl3 163  ARG163      0.1354
@<TRIPOS>BOND
     1    70    69    2
     2    69    68    1
     3    62    61    2
     4    68    67    1
     5    68    71    1
     6    61    67   am
     7    61    60    1
     8    59    60    1
     9    60    63    1
    10    71    73    1
    11    71    72    1
    12    51    50    2
    13    50    49    1
    14    43    42    2
    15   124   125    1
    16    63    64    1
    17    65    64    1
    18    65    66    1
    19    46    45    2
    20    42    41    1
    21    42    48   am
    22    13    11   ar
    23    13    14   ar
    24   128   125    1
    25   128   129    1
    26    11     8   ar
    27    41    40    1
    28    41    44    1
    29   125   126    1
    30   119   118    2
    31    49    48    1
    32    49    52    1
    33   126   127    2
    34    14    12   ar
    35     5     6    1
    36     5     2    1
    37   130   129   ar
    38   130   132   ar
    39    45    44    1
    40    45    47   am
    41     8     6   ar
    42     8    10   ar
    43    21    19    1
    44   129   131   ar
    45    52    53    1
    46     1     2    1
    47     6     7   ar
    48   118   117    1
    49    12    10   ar
    50    10     9   ar
    51    55    53   ar
    52    55    57   ar
    53     2     3    1
    54    53    54   ar
    55    19    16    1
    56    19    20    1
    57   132   133   ar
    58     7     9   ar
    59    15     3   am
    60    15    16    1
    61   131   133   ar
    62   131   134   ar
    63   117   120    1
    64   117   116    1
    65    57    58   ar
    66   138   139    1
    67    36    35    2
    68     3     4    2
    69    16    17    1
    70    54    56   ar
    71   133   135   ar
    72   134   136   ar
    73   120   121    1
    74   122   121    1
    75    58    56   ar
    76    35    34    1
    77   142   139    1
    78   142   143    1
    79   139   140    1
    80   121   123    1
    81   107   106    2
    82    17    18    2
    83   135   137   ar
    84   136   137   ar
    85   144   143    1
    86   140   141    2
    87    34    33    1
    88    34    37    1
    89   143   145    1
    90   106   105    1
    91    38    37    1
    92    78    79    1
    93    78    75    1
    94    81    83   ar
    95    81    79   ar
    96    83    84   ar
    97    79    80   ar
    98    37    39    1
    99    99    98    2
   100    80    82   ar
   101    84    82   ar
   102    74    75    1
   103   105   108    1
   104   105   104    1
   105    32    30    1
   106    75    76    1
   107    29    30    2
   108    29    28    1
   109   108   109    1
   110    98   104   am
   111    98    97    1
   112    26    27    1
   113    26    23    1
   114    22    23    1
   115    30    31    1
   116    28    27    1
   117   146   147    1
   118   110   109   ar
   119   110   112   ar
   120   109   111   ar
   121    76    77    2
   122    23    24    1
   123   150   147    1
   124   150   151    1
   125    97    96    1
   126    97   100    1
   127   112   114   ar
   128   101   100    1
   129   101   102    1
   130   156   154    1
   131    24    25    2
   132   147   148    1
   133   111   113   ar
   134   103   102    1
   135   154   155    1
   136   154   153    2
   137   151   152    1
   138   114   113   ar
   139   114   115    1
   140   153   152    1
   141   148   149    2
   142    95    92    1
   143    94    93    2
   144    92    93    1
   145    92    91    1
   146    91    87   am
   147    88    87    2
   148    87    86    1
   149    86    85    1
   150    86    89    1
   151    90    89    1
