@<TRIPOS>MOLECULE
tmp/4a2sA01.pdb
 134 129 0 0 0
SMALL
GASTEIGER

@<TRIPOS>ATOM
      1  N          5.7430  -12.6260  -14.6440 N.3     7  TRP7       -0.1241
      2  CA         6.9940  -12.8060  -15.3600 C.3     7  TRP7        0.1605
      3  C          8.0990  -13.2590  -14.4190 C.2     7  TRP7        0.2264
      4  O          9.0210  -13.9320  -14.8660 O.2     7  TRP7       -0.2867
      5  CB         7.3440  -11.5410  -16.1280 C.3     7  TRP7        0.0550
      6  CG         7.9490  -10.5650  -15.2740 C.ar    7  TRP7        0.0003
      7  CD1        7.3170   -9.6800  -14.4670 C.ar    7  TRP7        0.0946
      8  CD2        9.3460  -10.3730  -15.0890 C.ar    7  TRP7        0.0152
      9  NE1        8.2390   -8.9360  -13.7800 N.ar    7  TRP7       -0.2442
     10  CE2        9.4970   -9.3460  -14.1420 C.ar    7  TRP7        0.0810
     11  CE3       10.4870  -10.9790  -15.6240 C.ar    7  TRP7        0.0012
     12  CZ2       10.7310   -8.8920  -13.7310 C.ar    7  TRP7        0.0191
     13  CZ3       11.7260  -10.5240  -15.2200 C.ar    7  TRP7        0.0001
     14  CH2       11.8410   -9.4910  -14.2780 C.ar    7  TRP7        0.0015
     15  N         25.6700   -0.7910  -15.7720 N.3    50  TYR50      -0.1241
     16  CA        25.0590   -1.9850  -16.3550 C.3    50  TYR50       0.1605
     17  C         25.2930   -2.1080  -17.8380 C.2    50  TYR50       0.2264
     18  O         25.2600   -1.0960  -18.5830 O.2    50  TYR50      -0.2867
     19  CB        23.5550   -1.9350  -16.2800 C.3    50  TYR50       0.0534
     20  CG        22.9520   -2.4930  -15.0570 C.ar   50  TYR50      -0.0201
     21  CD1       22.7800   -3.8540  -14.8720 C.ar   50  TYR50      -0.0009
     22  CD2       22.4850   -1.6360  -14.0970 C.ar   50  TYR50      -0.0009
     23  CE1       22.1670   -4.3380  -13.6630 C.ar   50  TYR50       0.0417
     24  CE2       21.8720   -2.0710  -12.9760 C.ar   50  TYR50       0.0417
     25  CZ        21.7250   -3.4030  -12.7280 C.ar   50  TYR50       0.1957
     26  OH        21.0930   -3.7210  -11.5440 O.3    50  TYR50      -0.2866
     27  N         15.7040   -4.1520  -21.6710 N.3    55  SER55      -0.1203
     28  CA        15.1810   -4.1880  -20.3150 C.3    55  SER55       0.2005
     29  C         13.6850   -4.1310  -20.4420 C.2    55  SER55       0.2461
     30  O         13.1860   -3.5270  -21.3830 O.2    55  SER55      -0.2732
     31  CB        15.6690   -2.9850  -19.5080 C.3    55  SER55       0.2103
     32  OG        15.1020   -2.9720  -18.2020 O.3    55  SER55      -0.2182
     33  N         12.9600   -4.7740  -19.5150 N.am   56  PRO56      -0.2717
     34  CA        11.5000   -4.6160  -19.5380 C.3    56  PRO56       0.1535
     35  C         11.0530   -3.1460  -19.4470 C.2    56  PRO56       0.2599
     36  O          9.8690   -2.8560  -19.6490 O.2    56  PRO56      -0.2715
     37  CB        11.0500   -5.4020  -18.2950 C.3    56  PRO56       0.0310
     38  CG        12.0850   -6.4390  -18.1080 C.3    56  PRO56       0.0237
     39  CD        13.3920   -5.7780  -18.5210 C.3    56  PRO56       0.0939
     40  N         11.9850   -2.2340  -19.1680 N.am   57  SER57      -0.1950
     41  CA        11.6610   -0.8190  -18.9680 C.3    57  SER57       0.1924
     42  C         11.5110   -0.0220  -20.2630 C.2    57  SER57       0.2314
     43  O         11.2820    1.1940  -20.2320 O.2    57  SER57      -0.2863
     44  CB        12.7460   -0.1660  -18.1170 C.3    57  SER57       0.2116
     45  OG        12.9620   -0.9070  -16.9260 O.3    57  SER57      -0.2180
     46  N         23.8710   -8.2050  -17.4440 N.3    82  LYS82      -0.1245
     47  CA        22.6420   -8.9810  -17.5100 C.3    82  LYS82       0.1561
     48  C         22.9130  -10.2480  -18.2780 C.2    82  LYS82       0.2260
     49  O         23.4280  -10.1990  -19.3960 O.2    82  LYS82      -0.2867
     50  CB        21.5520   -8.1950  -18.2230 C.3    82  LYS82       0.0271
     51  CG        21.2170   -6.8720  -17.5720 C.3    82  LYS82       0.0035
     52  CD        20.5380   -7.0380  -16.2430 C.3    82  LYS82       0.0206
     53  CE        19.9470   -5.7120  -15.7410 C.3    82  LYS82       0.1093
     54  NZ        19.0520   -5.9230  -14.5750 N.3    82  LYS82      -0.1314
     55  N         15.9380   -9.8400  -20.9650 N.3    88  PHE88      -0.1241
     56  CA        17.0610   -8.9170  -21.0740 C.3    88  PHE88       0.1605
     57  C         18.0080   -9.2160  -22.2300 C.2    88  PHE88       0.2264
     58  O         18.9810   -8.4920  -22.4210 O.2    88  PHE88      -0.2867
     59  CB        17.8330   -8.9100  -19.7630 C.3    88  PHE88       0.0534
     60  CG        17.0450   -8.3760  -18.6140 C.ar   88  PHE88      -0.0203
     61  CD1       17.0440   -7.0220  -18.3300 C.ar   88  PHE88      -0.0042
     62  CD2       16.2910   -9.2340  -17.8270 C.ar   88  PHE88      -0.0042
     63  CE1       16.3060   -6.5230  -17.2570 C.ar   88  PHE88      -0.0003
     64  CE2       15.5490   -8.7410  -16.7510 C.ar   88  PHE88      -0.0003
     65  CZ        15.5580   -7.3760  -16.4750 C.ar   88  PHE88      -0.0000
     66  N         16.8380   -1.3000   -4.0610 N.3   179  PHE179     -0.1241
     67  CA        16.0510   -0.8680   -5.2040 C.3   179  PHE179      0.1605
     68  C         14.8550   -0.0250   -4.7100 C.2   179  PHE179      0.2264
     69  O         14.9540    1.2000   -4.6150 O.2   179  PHE179     -0.2867
     70  CB        15.6730   -2.0720   -6.0800 C.3   179  PHE179      0.0534
     71  CG        16.7910   -2.5130   -7.0060 C.ar  179  PHE179     -0.0203
     72  CD1       17.9850   -2.9630   -6.4930 C.ar  179  PHE179     -0.0042
     73  CD2       16.6490   -2.4410   -8.3800 C.ar  179  PHE179     -0.0042
     74  CE1       19.0130   -3.3270   -7.3260 C.ar  179  PHE179     -0.0003
     75  CE2       17.6890   -2.8290   -9.2320 C.ar  179  PHE179     -0.0003
     76  CZ        18.8560   -3.2710   -8.7010 C.ar  179  PHE179     -0.0000
     77  N         11.6940   -0.4630   -6.2670 N.3   181  MET181     -0.1245
     78  CA        11.1340   -0.3830   -7.6240 C.3   181  MET181      0.1570
     79  C          9.6720   -0.7460   -7.6000 C.2   181  MET181      0.2261
     80  O          9.2890   -1.7310   -6.9610 O.2   181  MET181     -0.2867
     81  CB        11.8860   -1.3180   -8.5730 C.3   181  MET181      0.0387
     82  CG        11.3150   -1.3490  -10.0020 C.3   181  MET181      0.0595
     83  SD        11.3050    0.2290  -10.8660 S.3   181  MET181     -0.1393
     84  CE        12.9970    0.7590  -10.5520 C.3   181  MET181      0.0692
     85  N          6.7550   -1.9370  -10.1050 N.3   183  PHE183     -0.1241
     86  CA         6.7560   -2.5870  -11.4130 C.3   183  PHE183      0.1605
     87  C          5.6910   -2.1010  -12.3860 C.2   183  PHE183      0.2264
     88  O          5.8010   -2.3480  -13.5920 O.2   183  PHE183     -0.2867
     89  CB         6.6550   -4.0920  -11.2380 C.3   183  PHE183      0.0534
     90  CG         7.9310   -4.7100  -10.7730 C.ar  183  PHE183     -0.0203
     91  CD1        8.9900   -3.8980  -10.3920 C.ar  183  PHE183     -0.0042
     92  CD2        8.0880   -6.0840  -10.7420 C.ar  183  PHE183     -0.0042
     93  CE1       10.1820   -4.4400   -9.9720 C.ar  183  PHE183     -0.0003
     94  CE2        9.2770   -6.6370  -10.3220 C.ar  183  PHE183     -0.0003
     95  CZ        10.3310   -5.8000   -9.9340 C.ar  183  PHE183     -0.0000
     96  N          7.4800    1.4560  -13.0210 N.3   186  GLY186     -0.1225
     97  CA         8.8850    1.2390  -13.3260 C.3   186  GLY186      0.1811
     98  C          9.7880    2.2810  -12.6780 C.2   186  GLY186      0.2280
     99  O         10.9420    2.4540  -13.0740 O.2   186  GLY186     -0.2866
    100  N         11.6500    4.1840   -9.2750 N.3   188  ILE188     -0.1245
    101  CA        12.1610    3.9780   -7.9340 C.3   188  ILE188      0.1561
    102  C         11.4450    4.9160   -6.9730 C.2   188  ILE188      0.2260
    103  O         11.3270    6.1140   -7.2310 O.2   188  ILE188     -0.2867
    104  CB        13.6690    4.2410   -7.8680 C.3   188  ILE188      0.0252
    105  CG1       14.4050    3.3100   -8.8310 C.3   188  ILE188      0.0019
    106  CG2       14.1760    4.0510   -6.4490 C.3   188  ILE188      0.0019
    107  CD1       15.8840    3.5460   -8.8760 C.3   188  ILE188      0.0001
    108  N         20.2160    1.6150   -6.4260 N.3   209  LYS209     -0.1231
    109  CA        19.8030    1.7050   -7.8470 C.3   209  LYS209      0.1693
    110  C         19.3460    3.1300   -8.0940 C.2   209  LYS209      0.2592
    111  O         18.4730    3.6510   -7.3790 O.2   209  LYS209     -0.2718
    112  CB        18.6690    0.7330   -8.1730 C.3   209  LYS209      0.0285
    113  CG        18.1670    0.8320   -9.6090 C.3   209  LYS209      0.0035
    114  CD        19.1620    0.2900  -10.6160 C.3   209  LYS209      0.0206
    115  CE        18.7060    0.5780  -12.0760 C.3   209  LYS209      0.1093
    116  NZ        17.4380   -0.0510  -12.5380 N.3   209  LYS209     -0.1314
    117  N         19.9300    3.7780   -9.0840 N.am  210  LEU210     -0.1966
    118  CA        19.5540    5.1340   -9.3990 C.3   210  LEU210      0.1728
    119  C         18.5220    5.1520  -10.5050 C.2   210  LEU210      0.2616
    120  O         18.6730    4.4620  -11.5380 O.2   210  LEU210     -0.2715
    121  CB        20.7670    5.9320   -9.8310 C.3   210  LEU210      0.0311
    122  CG        21.7560    6.2950   -8.7370 C.3   210  LEU210      0.0022
    123  CD1       22.9040    7.0930   -9.3430 C.3   210  LEU210      0.0001
    124  CD2       21.0740    7.1090   -7.6450 C.3   210  LEU210      0.0001
    125  N         17.4680    5.9220  -10.2730 N.am  211  GLY211     -0.1955
    126  CA        16.4650    6.1660  -11.2840 C.3   211  GLY211      0.1869
    127  C         16.8370    7.4750  -11.9550 C.2   211  GLY211      0.2309
    128  O         16.9950    7.5230  -13.1780 O.2   211  GLY211     -0.2863
    129  N         21.8190    2.0880  -15.2160 N.3   232  SER232     -0.1217
    130  CA        21.5700    1.2790  -16.4020 C.3   232  SER232      0.1889
    131  C         21.2680    2.0760  -17.6780 C.2   232  SER232      0.2288
    132  O         22.1840    2.3810  -18.4360 O.2   232  SER232     -0.2866
    133  CB        20.4560    0.2750  -16.1040 C.3   232  SER232      0.2089
    134  OG        19.2510    0.9370  -15.7410 O.3   232  SER232     -0.2183
@<TRIPOS>BOND
     1    58    57    2
     2    57    56    1
     3    27    28    1
     4    30    29    2
     5    56    55    1
     6    56    59    1
     7    29    28    1
     8    29    33   am
     9    28    31    1
    10    42    43    2
    11    42    41    1
    12    59    60    1
    13    36    35    2
    14    34    33    1
    15    34    35    1
    16    34    37    1
    17    33    39    1
    18    31    32    1
    19    35    40   am
    20    49    48    2
    21    40    41    1
    22    41    44    1
    23    60    61   ar
    24    60    62   ar
    25    18    17    2
    26    39    38    1
    27   132   131    2
    28    61    63   ar
    29    37    38    1
    30    48    47    1
    31    50    51    1
    32    50    47    1
    33    44    45    1
    34    17    16    1
    35    62    64   ar
    36   131   130    1
    37    51    52    1
    38    47    46    1
    39    63    65   ar
    40    64    65   ar
    41   130   133    1
    42   130   129    1
    43    16    19    1
    44    16    15    1
    45    19    20    1
    46    52    53    1
    47     5     2    1
    48     5     6    1
    49   133   134    1
    50    53    54    1
    51    11    13   ar
    52    11     8   ar
    53     2     1    1
    54     2     3    1
    55     6     8   ar
    56     6     7   ar
    57    13    14   ar
    58     8    10   ar
    59    20    21   ar
    60    20    22   ar
    61    21    23   ar
    62     4     3    2
    63     7     9   ar
    64    14    12   ar
    65    10     9   ar
    66    10    12   ar
    67    22    24   ar
    68    23    25   ar
    69    88    87    2
    70    97    96    1
    71    97    98    1
    72   128   127    2
    73    99    98    2
    74    24    25   ar
    75    25    26    1
    76   116   115    1
    77    87    86    1
    78   115   114    1
    79   127   126    1
    80   120   119    2
    81    86    89    1
    82    86    85    1
    83   126   125    1
    84    89    90    1
    85    83    84    1
    86    83    82    1
    87    90    92   ar
    88    90    91   ar
    89    92    94   ar
    90   114   113    1
    91   119   125   am
    92   119   118    1
    93    91    93   ar
    94    94    95   ar
    95    82    81    1
    96    93    95   ar
    97   121   118    1
    98   121   122    1
    99   113   112    1
   100   118   117    1
   101   123   122    1
   102   100   101    1
   103    75    76   ar
   104    75    73   ar
   105   117   110   am
   106   107   105    1
   107   105   104    1
   108   122   124    1
   109    76    74   ar
   110    81    78    1
   111    73    71   ar
   112   112   109    1
   113   110   109    1
   114   110   111    2
   115   101   104    1
   116   101   102    1
   117   104   106    1
   118   109   108    1
   119    78    79    1
   120    78    77    1
   121    79    80    2
   122    74    72   ar
   123   103   102    2
   124    71    72   ar
   125    71    70    1
   126    70    67    1
   127    67    68    1
   128    67    66    1
   129    68    69    2
