@<TRIPOS>MOLECULE
tmp/4a2sA00.pdb
 185 174 0 0 0
SMALL
GASTEIGER

@<TRIPOS>ATOM
      1  N          5.7430  -12.6260  -14.6440 N.3     7  TRP7       -0.1227
      2  CA         6.9940  -12.8060  -15.3600 C.3     7  TRP7        0.1737
      3  C          8.0990  -13.2590  -14.4190 C.2     7  TRP7        0.2595
      4  O          9.0210  -13.9320  -14.8660 O.2     7  TRP7       -0.2718
      5  CB         7.3440  -11.5410  -16.1280 C.3     7  TRP7        0.0564
      6  CG         7.9490  -10.5650  -15.2740 C.ar    7  TRP7        0.0003
      7  CD1        7.3170   -9.6800  -14.4670 C.ar    7  TRP7        0.0946
      8  CD2        9.3460  -10.3730  -15.0890 C.ar    7  TRP7        0.0152
      9  NE1        8.2390   -8.9360  -13.7800 N.ar    7  TRP7       -0.2442
     10  CE2        9.4970   -9.3460  -14.1420 C.ar    7  TRP7        0.0810
     11  CE3       10.4870  -10.9790  -15.6240 C.ar    7  TRP7        0.0012
     12  CZ2       10.7310   -8.8920  -13.7310 C.ar    7  TRP7        0.0191
     13  CZ3       11.7260  -10.5240  -15.2200 C.ar    7  TRP7        0.0001
     14  CH2       11.8410   -9.4910  -14.2780 C.ar    7  TRP7        0.0015
     15  N          7.9790  -12.9260  -13.1410 N.am    8  LEU8       -0.1980
     16  CA         8.9370  -13.3830  -12.1530 C.3     8  LEU8        0.1596
     17  C          8.9430  -14.9180  -12.0760 C.2     8  LEU8        0.2287
     18  O          9.9950  -15.5620  -12.0220 O.2     8  LEU8       -0.2864
     19  CB         8.5660  -12.8040  -10.7950 C.3     8  LEU8        0.0297
     20  CG         9.7140  -12.5180   -9.8450 C.3     8  LEU8        0.0022
     21  CD1       10.9430  -11.9490  -10.5670 C.3     8  LEU8        0.0001
     22  CD2        9.2680  -11.5640   -8.7530 C.3     8  LEU8        0.0001
     23  N         25.6700   -0.7910  -15.7720 N.3    50  TYR50      -0.1241
     24  CA        25.0590   -1.9850  -16.3550 C.3    50  TYR50       0.1605
     25  C         25.2930   -2.1080  -17.8380 C.2    50  TYR50       0.2264
     26  O         25.2600   -1.0960  -18.5830 O.2    50  TYR50      -0.2867
     27  CB        23.5550   -1.9350  -16.2800 C.3    50  TYR50       0.0534
     28  CG        22.9520   -2.4930  -15.0570 C.ar   50  TYR50      -0.0201
     29  CD1       22.7800   -3.8540  -14.8720 C.ar   50  TYR50      -0.0009
     30  CD2       22.4850   -1.6360  -14.0970 C.ar   50  TYR50      -0.0009
     31  CE1       22.1670   -4.3380  -13.6630 C.ar   50  TYR50       0.0417
     32  CE2       21.8720   -2.0710  -12.9760 C.ar   50  TYR50       0.0417
     33  CZ        21.7250   -3.4030  -12.7280 C.ar   50  TYR50       0.1957
     34  OH        21.0930   -3.7210  -11.5440 O.3    50  TYR50      -0.2866
     35  N         23.1450   -4.0980  -20.5710 N.3    52  SER52      -0.1217
     36  CA        21.8950   -4.7570  -20.6830 C.3    52  SER52       0.1889
     37  C         21.4120   -4.4330  -22.0830 C.2    52  SER52       0.2288
     38  O         21.2850   -3.2690  -22.4290 O.2    52  SER52      -0.2866
     39  CB        21.0030   -4.1510  -19.5860 C.3    52  SER52       0.2089
     40  OG        19.7600   -4.7440  -19.5670 O.3    52  SER52      -0.2183
     41  N         15.7040   -4.1520  -21.6710 N.3    55  SER55      -0.1217
     42  CA        15.1810   -4.1880  -20.3150 C.3    55  SER55       0.1889
     43  C         13.6850   -4.1310  -20.4420 C.2    55  SER55       0.2288
     44  O         13.1860   -3.5270  -21.3830 O.2    55  SER55      -0.2866
     45  CB        15.6690   -2.9850  -19.5080 C.3    55  SER55       0.2089
     46  OG        15.1020   -2.9720  -18.2020 O.3    55  SER55      -0.2183
     47  N         23.8710   -8.2050  -17.4440 N.3    82  LYS82      -0.1245
     48  CA        22.6420   -8.9810  -17.5100 C.3    82  LYS82       0.1561
     49  C         22.9130  -10.2480  -18.2780 C.2    82  LYS82       0.2260
     50  O         23.4280  -10.1990  -19.3960 O.2    82  LYS82      -0.2867
     51  CB        21.5520   -8.1950  -18.2230 C.3    82  LYS82       0.0271
     52  CG        21.2170   -6.8720  -17.5720 C.3    82  LYS82       0.0035
     53  CD        20.5380   -7.0380  -16.2430 C.3    82  LYS82       0.0206
     54  CE        19.9470   -5.7120  -15.7410 C.3    82  LYS82       0.1093
     55  NZ        19.0520   -5.9230  -14.5750 N.3    82  LYS82      -0.1314
     56  N         15.9380   -9.8400  -20.9650 N.3    88  PHE88      -0.1241
     57  CA        17.0610   -8.9170  -21.0740 C.3    88  PHE88       0.1605
     58  C         18.0080   -9.2160  -22.2300 C.2    88  PHE88       0.2264
     59  O         18.9810   -8.4920  -22.4210 O.2    88  PHE88      -0.2867
     60  CB        17.8330   -8.9100  -19.7630 C.3    88  PHE88       0.0534
     61  CG        17.0450   -8.3760  -18.6140 C.ar   88  PHE88      -0.0203
     62  CD1       17.0440   -7.0220  -18.3300 C.ar   88  PHE88      -0.0042
     63  CD2       16.2910   -9.2340  -17.8270 C.ar   88  PHE88      -0.0042
     64  CE1       16.3060   -6.5230  -17.2570 C.ar   88  PHE88      -0.0003
     65  CE2       15.5490   -8.7410  -16.7510 C.ar   88  PHE88      -0.0003
     66  CZ        15.5580   -7.3760  -16.4750 C.ar   88  PHE88      -0.0000
     67  N         24.4310  -10.3630  -13.2330 N.3   109  SER109     -0.1202
     68  CA        23.0610  -10.0270  -12.8420 C.3   109  SER109      0.2020
     69  C         22.0880  -10.9340  -13.5840 C.2   109  SER109      0.2619
     70  O         21.9580  -10.8780  -14.7960 O.2   109  SER109     -0.2717
     71  CB        22.7980   -8.5610  -13.1720 C.3   109  SER109      0.2103
     72  OG        21.4970   -8.2270  -12.7490 O.3   109  SER109     -0.2182
     73  N         21.4250  -11.7930  -12.8350 N.am  110  ASP110     -0.1959
     74  CA        20.5210  -12.8030  -13.3690 C.3   110  ASP110      0.1840
     75  C         19.5560  -13.1560  -12.2290 C.2   110  ASP110      0.2622
     76  O         19.5030  -12.4470  -11.2040 O.2   110  ASP110     -0.2715
     77  CB        21.3450  -13.9900  -13.9040 C.3   110  ASP110      0.1450
     78  CG        20.6250  -14.7870  -14.9750 C.2   110  ASP110      0.3671
     79  OD1       19.3670  -14.9040  -14.9500 O.co2 110  ASP110     -0.2456
     80  OD2       21.3300  -15.2540  -15.8960 O.co2 110  ASP110     -0.2456
     81  N         18.7930  -14.2320  -12.4270 N.am  111  PHE111     -0.1974
     82  CA        17.8350  -14.7100  -11.4330 C.3   111  PHE111      0.1639
     83  C         18.3560  -16.0350  -10.9440 C.2   111  PHE111      0.2290
     84  O         18.0440  -17.0870  -11.5070 O.2   111  PHE111     -0.2864
     85  CB        16.4500  -14.8100  -12.0870 C.3   111  PHE111      0.0560
     86  CG        15.9600  -13.4780  -12.5360 C.ar  111  PHE111     -0.0200
     87  CD1       16.3420  -12.9630  -13.7550 C.ar  111  PHE111     -0.0042
     88  CD2       15.1360  -12.7090  -11.7120 C.ar  111  PHE111     -0.0042
     89  CE1       15.9420  -11.7090  -14.1660 C.ar  111  PHE111     -0.0003
     90  CE2       14.7220  -11.4590  -12.1310 C.ar  111  PHE111     -0.0003
     91  CZ        15.1270  -10.9600  -13.3500 C.ar  111  PHE111     -0.0000
     92  N         24.4830  -11.3920   -8.2520 N.3   130  LEU130     -0.1245
     93  CA        23.2880  -10.8510   -7.6100 C.3   130  LEU130      0.1561
     94  C         22.4380  -11.9890   -7.0470 C.2   130  LEU130      0.2260
     95  O         22.2270  -12.9950   -7.7450 O.2   130  LEU130     -0.2867
     96  CB        22.4680  -10.1270   -8.6960 C.3   130  LEU130      0.0270
     97  CG        21.2610   -9.3210   -8.2360 C.3   130  LEU130      0.0019
     98  CD1       21.7630   -8.0100   -7.5780 C.3   130  LEU130      0.0001
     99  CD2       20.3620   -9.0190   -9.4180 C.3   130  LEU130      0.0001
    100  N         18.5240  -12.3750   -5.1150 N.3   132  ILE132     -0.1245
    101  CA        17.2800  -11.5720   -5.0310 C.3   132  ILE132      0.1561
    102  C         16.4040  -12.1640   -3.9240 C.2   132  ILE132      0.2260
    103  O         15.9080  -13.2890   -4.0550 O.2   132  ILE132     -0.2867
    104  CB        16.5400  -11.5500   -6.3650 C.3   132  ILE132      0.0252
    105  CG1       17.4090  -10.9000   -7.4490 C.3   132  ILE132      0.0019
    106  CG2       15.2040  -10.7730   -6.2210 C.3   132  ILE132      0.0019
    107  CD1       16.8880  -11.1700   -8.8720 C.3   132  ILE132      0.0001
    108  N         13.4540  -11.6490   -2.9910 N.3   134  LYS134     -0.1245
    109  CA        12.0680  -11.8910   -3.3170 C.3   134  LYS134      0.1561
    110  C         11.7970  -13.1540   -4.1160 C.2   134  LYS134      0.2260
    111  O         10.6210  -13.5360   -4.2280 O.2   134  LYS134     -0.2867
    112  CB        11.5130  -10.7130   -4.0490 C.3   134  LYS134      0.0271
    113  CG        10.9900   -9.6720   -3.1180 C.3   134  LYS134      0.0035
    114  CD         9.5700   -9.9230   -2.6160 C.3   134  LYS134      0.0206
    115  CE         9.0820   -8.6430   -1.8860 C.3   134  LYS134      0.1093
    116  NZ         9.2770   -8.8370   -0.4240 N.3   134  LYS134     -0.1314
    117  N         19.8130   -8.1960   -3.3350 N.3   158  LEU158     -0.1245
    118  CA        18.8460   -7.1830   -3.7550 C.3   158  LEU158      0.1561
    119  C         17.6230   -7.1540   -2.8340 C.2   158  LEU158      0.2260
    120  O         16.9640   -8.1890   -2.6700 O.2   158  LEU158     -0.2867
    121  CB        18.3770   -7.4520   -5.1760 C.3   158  LEU158      0.0270
    122  CG        17.5620   -6.3900   -5.9070 C.3   158  LEU158      0.0019
    123  CD1       17.6370   -6.6080   -7.4580 C.3   158  LEU158      0.0001
    124  CD2       16.1060   -6.3590   -5.4750 C.3   158  LEU158      0.0001
    125  N         13.9330   -4.9460   -1.9330 N.3   160  ASN160     -0.1240
    126  CA        12.9840   -4.0300   -2.5360 C.3   160  ASN160      0.1653
    127  C         12.0610   -3.3650   -1.5130 C.2   160  ASN160      0.2266
    128  O         11.2850   -2.4720   -1.8700 O.2   160  ASN160     -0.2867
    129  CB        12.1240   -4.7180   -3.5920 C.3   160  ASN160      0.1155
    130  CG        11.6520   -3.7500   -4.6410 C.2   160  ASN160      0.2627
    131  OD1       12.4410   -2.9810   -5.1930 O.2   160  ASN160     -0.2716
    132  ND2       10.3460   -3.7520   -4.9010 N.am  160  ASN160     -0.0877
    133  N         12.1870   -7.6190    2.8290 N.3   164  ASP164     -0.1239
    134  CA        13.3940   -8.1680    2.2150 C.3   164  ASP164      0.1674
    135  C         14.6120   -7.8210    3.0600 C.2   164  ASP164      0.2266
    136  O         15.5130   -8.6380    3.2240 O.2   164  ASP164     -0.2867
    137  CB        13.6500   -7.5490    0.8430 C.3   164  ASP164      0.1410
    138  CG        12.6990   -8.0230   -0.2410 C.2   164  ASP164      0.3668
    139  OD1       11.9120   -8.9680    0.0010 O.co2 164  ASP164     -0.2456
    140  OD2       12.7800   -7.4380   -1.3480 O.co2 164  ASP164     -0.2456
    141  N         16.8380   -1.3000   -4.0610 N.3   179  PHE179     -0.1241
    142  CA        16.0510   -0.8680   -5.2040 C.3   179  PHE179      0.1605
    143  C         14.8550   -0.0250   -4.7100 C.2   179  PHE179      0.2264
    144  O         14.9540    1.2000   -4.6150 O.2   179  PHE179     -0.2867
    145  CB        15.6730   -2.0720   -6.0800 C.3   179  PHE179      0.0534
    146  CG        16.7910   -2.5130   -7.0060 C.ar  179  PHE179     -0.0203
    147  CD1       17.9850   -2.9630   -6.4930 C.ar  179  PHE179     -0.0042
    148  CD2       16.6490   -2.4410   -8.3800 C.ar  179  PHE179     -0.0042
    149  CE1       19.0130   -3.3270   -7.3260 C.ar  179  PHE179     -0.0003
    150  CE2       17.6890   -2.8290   -9.2320 C.ar  179  PHE179     -0.0003
    151  CZ        18.8560   -3.2710   -8.7010 C.ar  179  PHE179     -0.0000
    152  N         11.6940   -0.4630   -6.2670 N.3   181  MET181     -0.1245
    153  CA        11.1340   -0.3830   -7.6240 C.3   181  MET181      0.1570
    154  C          9.6720   -0.7460   -7.6000 C.2   181  MET181      0.2261
    155  O          9.2890   -1.7310   -6.9610 O.2   181  MET181     -0.2867
    156  CB        11.8860   -1.3180   -8.5730 C.3   181  MET181      0.0387
    157  CG        11.3150   -1.3490  -10.0020 C.3   181  MET181      0.0595
    158  SD        11.3050    0.2290  -10.8660 S.3   181  MET181     -0.1393
    159  CE        12.9970    0.7590  -10.5520 C.3   181  MET181      0.0692
    160  N          6.7550   -1.9370  -10.1050 N.3   183  PHE183     -0.1241
    161  CA         6.7560   -2.5870  -11.4130 C.3   183  PHE183      0.1605
    162  C          5.6910   -2.1010  -12.3860 C.2   183  PHE183      0.2264
    163  O          5.8010   -2.3480  -13.5920 O.2   183  PHE183     -0.2867
    164  CB         6.6550   -4.0920  -11.2380 C.3   183  PHE183      0.0534
    165  CG         7.9310   -4.7100  -10.7730 C.ar  183  PHE183     -0.0203
    166  CD1        8.9900   -3.8980  -10.3920 C.ar  183  PHE183     -0.0042
    167  CD2        8.0880   -6.0840  -10.7420 C.ar  183  PHE183     -0.0042
    168  CE1       10.1820   -4.4400   -9.9720 C.ar  183  PHE183     -0.0003
    169  CE2        9.2770   -6.6370  -10.3220 C.ar  183  PHE183     -0.0003
    170  CZ        10.3310   -5.8000   -9.9340 C.ar  183  PHE183     -0.0000
    171  N         20.2160    1.6150   -6.4260 N.3   209  LYS209     -0.1245
    172  CA        19.8030    1.7050   -7.8470 C.3   209  LYS209      0.1561
    173  C         19.3460    3.1300   -8.0940 C.2   209  LYS209      0.2260
    174  O         18.4730    3.6510   -7.3790 O.2   209  LYS209     -0.2867
    175  CB        18.6690    0.7330   -8.1730 C.3   209  LYS209      0.0271
    176  CG        18.1670    0.8320   -9.6090 C.3   209  LYS209      0.0035
    177  CD        19.1620    0.2900  -10.6160 C.3   209  LYS209      0.0206
    178  CE        18.7060    0.5780  -12.0760 C.3   209  LYS209      0.1093
    179  NZ        17.4380   -0.0510  -12.5380 N.3   209  LYS209     -0.1314
    180  N         21.8190    2.0880  -15.2160 N.3   232  SER232     -0.1217
    181  CA        21.5700    1.2790  -16.4020 C.3   232  SER232      0.1889
    182  C         21.2680    2.0760  -17.6780 C.2   232  SER232      0.2288
    183  O         22.1840    2.3810  -18.4360 O.2   232  SER232     -0.2866
    184  CB        20.4560    0.2750  -16.1040 C.3   232  SER232      0.2089
    185  OG        19.2510    0.9370  -15.7410 O.3   232  SER232     -0.2183
@<TRIPOS>BOND
     1    38    37    2
     2    59    58    2
     3    58    57    1
     4    37    36    1
     5    41    42    1
     6    44    43    2
     7    57    56    1
     8    57    60    1
     9    36    35    1
    10    36    39    1
    11    43    42    1
    12    42    45    1
    13    60    61    1
    14    39    40    1
    15    45    46    1
    16    50    49    2
    17    61    62   ar
    18    61    63   ar
    19    26    25    2
    20   183   182    2
    21    62    64   ar
    22    49    48    1
    23    51    52    1
    24    51    48    1
    25    25    24    1
    26    63    65   ar
    27   182   181    1
    28    52    53    1
    29    48    47    1
    30    64    66   ar
    31    65    66   ar
    32   181   184    1
    33   181   180    1
    34    24    27    1
    35    24    23    1
    36    27    28    1
    37    53    54    1
    38     5     2    1
    39     5     6    1
    40   184   185    1
    41    80    78   ar
    42    54    55    1
    43    11    13   ar
    44    11     8   ar
    45     2     1    1
    46     2     3    1
    47     6     8   ar
    48     6     7   ar
    49    13    14   ar
    50     8    10   ar
    51    28    29   ar
    52    28    30   ar
    53    78    79   ar
    54    78    77    1
    55    29    31   ar
    56     4     3    2
    57    70    69    2
    58     7     9   ar
    59     3    15   am
    60    14    12   ar
    61    89    87   ar
    62    89    91   ar
    63    10     9   ar
    64    10    12   ar
    65    30    32   ar
    66    77    74    1
    67    87    86   ar
    68    31    33   ar
    69   163   162    2
    70    69    68    1
    71    69    73   am
    72    74    73    1
    73    74    75    1
    74    91    90   ar
    75    67    68    1
    76    71    68    1
    77    71    72    1
    78    15    16    1
    79    32    33   ar
    80    33    34    1
    81   179   178    1
    82    86    85    1
    83    86    88   ar
    84    81    75   am
    85    81    82    1
    86   162   161    1
    87    75    76    2
    88    16    17    1
    89    16    19    1
    90    90    88   ar
    91    85    82    1
    92   178   177    1
    93    17    18    2
    94    84    83    2
    95    82    83    1
    96   161   164    1
    97   161   160    1
    98   164   165    1
    99   158   159    1
   100   158   157    1
   101    19    20    1
   102   165   167   ar
   103   165   166   ar
   104   167   169   ar
   105   177   176    1
   106    21    20    1
   107   166   168   ar
   108   169   170   ar
   109   157   156    1
   110   168   170   ar
   111    20    22    1
   112   176   175    1
   113    99    97    1
   114   150   151   ar
   115   150   148   ar
   116   107   105    1
   117   151   149   ar
   118    96    97    1
   119    96    93    1
   120   156   153    1
   121   148   146   ar
   122    92    93    1
   123    97    98    1
   124   175   172    1
   125   173   172    1
   126   173   174    2
   127   172   171    1
   128    95    94    2
   129   153   154    1
   130   153   152    1
   131    93    94    1
   132   154   155    2
   133   123   122    1
   134   105   104    1
   135   149   147   ar
   136   146   147   ar
   137   146   145    1
   138   104   106    1
   139   104   101    1
   140   145   142    1
   141   122   124    1
   142   122   121    1
   143   142   143    1
   144   142   141    1
   145   131   130    2
   146   121   118    1
   147   100   101    1
   148   101   102    1
   149   132   130   am
   150   143   144    2
   151   130   129    1
   152   111   110    2
   153   110   109    1
   154   103   102    2
   155   112   109    1
   156   112   113    1
   157   118   117    1
   158   118   119    1
   159   129   126    1
   160   109   108    1
   161   113   114    1
   162   119   120    2
   163   114   115    1
   164   126   125    1
   165   126   127    1
   166   115   116    1
   167   128   127    2
   168   140   138   ar
   169   138   139   ar
   170   138   137    1
   171   137   134    1
   172   134   133    1
   173   134   135    1
   174   135   136    2
