@<TRIPOS>MOLECULE
tmp/4a2zA00.pdb
 168 163 0 0 0
SMALL
GASTEIGER

@<TRIPOS>ATOM
      1  N          3.6220   -3.9670   15.0280 N.3    71  VAL71      -0.1231
      2  CA         4.3030   -2.7700   14.5060 C.3    71  VAL71       0.1692
      3  C          4.9610   -1.8030   15.5380 C.2    71  VAL71       0.2592
      4  O          4.3270   -1.2560   16.4580 O.2    71  VAL71      -0.2718
      5  CB         3.3800   -1.9850   13.5110 C.3    71  VAL71       0.0266
      6  CG1        4.1340   -0.7870   12.9170 C.3    71  VAL71       0.0020
      7  CG2        2.8540   -2.9100   12.3690 C.3    71  VAL71       0.0020
      8  N          6.2670   -1.6400   15.3620 N.am   72  GLU72      -0.1966
      9  CA         7.0690   -0.6470   16.0550 C.3    72  GLU72       0.1733
     10  C          7.4730    0.4640   15.1120 C.2    72  GLU72       0.2616
     11  O          7.5940    0.2700   13.8910 O.2    72  GLU72      -0.2715
     12  CB         8.3090   -1.3000   16.6430 C.3    72  GLU72       0.0429
     13  CG         7.9360   -2.1230   17.8010 C.3    72  GLU72       0.1163
     14  CD         9.0870   -2.8270   18.4700 C.2    72  GLU72       0.3649
     15  OE1       10.2510   -2.5600   18.1220 O.co2  72  GLU72      -0.2457
     16  OE2        8.7980   -3.6610   19.3390 O.co2  72  GLU72      -0.2457
     17  N          7.6570    1.6500   15.6610 N.am   73  ASP73      -0.1971
     18  CA         8.3310    2.6640   14.8840 C.3    73  ASP73       0.1709
     19  C          9.8070    2.2780   14.6810 C.2    73  ASP73       0.2293
     20  O         10.3420    1.4270   15.3670 O.2    73  ASP73      -0.2864
     21  CB         8.2260    3.9860   15.6180 C.3    73  ASP73       0.1436
     22  CG         8.9830    3.9630   16.8850 C.2    73  ASP73       0.3671
     23  OD1        8.6270    3.1140   17.7480 O.co2  73  ASP73      -0.2456
     24  OD2        9.9530    4.7360   16.9930 O.co2  73  ASP73      -0.2456
     25  N          7.6000    3.2180   20.2440 N.3    78  PHE78      -0.1227
     26  CA         6.1560    2.8610   20.2990 C.3    78  PHE78       0.1736
     27  C          5.8350    1.5790   19.5890 C.2    78  PHE78       0.2595
     28  O          6.4520    1.2680   18.5730 O.2    78  PHE78      -0.2718
     29  CB         5.3190    3.9730   19.6810 C.3    78  PHE78       0.0547
     30  CG         5.7650    5.3450   20.1160 C.ar   78  PHE78      -0.0202
     31  CD1        5.5040    5.7790   21.4030 C.ar   78  PHE78      -0.0042
     32  CD2        6.4880    6.1630   19.2470 C.ar   78  PHE78      -0.0042
     33  CE1        5.9380    7.0640   21.8470 C.ar   78  PHE78      -0.0003
     34  CE2        6.9160    7.4300   19.6460 C.ar   78  PHE78      -0.0003
     35  CZ         6.6530    7.8830   20.9570 C.ar   78  PHE78      -0.0000
     36  N          4.9020    0.8250   20.1420 N.am   79  ARG79      -0.1966
     37  CA         4.3980   -0.3750   19.4810 C.3    79  ARG79       0.1729
     38  C          2.8710   -0.3910   19.6350 C.2    79  ARG79       0.2616
     39  O          2.3720    0.0160   20.6670 O.2    79  ARG79      -0.2715
     40  CB         5.0650   -1.6600   20.0370 C.3    79  ARG79       0.0348
     41  CG         4.5550   -3.0050   19.3900 C.3    79  ARG79       0.0492
     42  CD         4.9160   -4.2940   20.2050 C.3    79  ARG79       0.2205
     43  NE         6.3190   -4.2750   20.5350 N.pl3  79  ARG79      -0.0865
     44  CZ         6.8440   -4.1960   21.7620 C.cat  79  ARG79       0.5346
     45  NH1        6.1190   -4.2260   22.8700 N.pl3  79  ARG79       0.1354
     46  NH2        8.1550   -4.0920   21.8530 N.pl3  79  ARG79       0.1354
     47  N          2.1350   -0.8110   18.6130 N.am   80  PHE80      -0.1974
     48  CA         0.6710   -0.8130   18.6880 C.3    80  PHE80       0.1639
     49  C          0.2130   -1.7600   19.7940 C.2    80  PHE80       0.2290
     50  O          0.8470   -2.7920   20.0410 O.2    80  PHE80      -0.2864
     51  CB         0.0230   -1.2450   17.3510 C.3    80  PHE80       0.0560
     52  CG         0.0970   -0.2040   16.2380 C.ar   80  PHE80      -0.0200
     53  CD1       -0.1340    1.1630   16.4800 C.ar   80  PHE80      -0.0042
     54  CD2        0.3290   -0.6130   14.8990 C.ar   80  PHE80      -0.0042
     55  CE1       -0.1110    2.0890   15.4210 C.ar   80  PHE80      -0.0003
     56  CE2        0.3700    0.3190   13.8480 C.ar   80  PHE80      -0.0003
     57  CZ         0.1660    1.6630   14.1070 C.ar   80  PHE80      -0.0000
     58  N          1.5940   -1.1390    4.0020 N.3   194  ALA194     -0.1231
     59  CA         2.7440   -1.3260    4.8890 C.3   194  ALA194      0.1694
     60  C          3.4480   -0.0030    5.1400 C.2   194  ALA194      0.2592
     61  O          3.3340    0.9290    4.3250 O.2   194  ALA194     -0.2718
     62  CB         3.7050   -2.3250    4.3090 C.3   194  ALA194      0.0304
     63  N          4.1660    0.0590    6.2710 N.am  195  GLY195     -0.1957
     64  CA         5.0550    1.1570    6.6010 C.3   195  GLY195      0.1869
     65  C          6.4150    1.0390    5.8860 C.2   195  GLY195      0.2309
     66  O          7.2330    1.9700    5.9630 O.2   195  GLY195     -0.2863
     67  N          2.1600   10.2830    6.6480 N.3   207  TYR207     -0.1241
     68  CA         1.4490   10.4820    7.8990 C.3   207  TYR207      0.1605
     69  C          1.3890   11.9110    8.4010 C.2   207  TYR207      0.2264
     70  O          2.3460   12.6620    8.2600 O.2   207  TYR207     -0.2867
     71  CB         2.0790    9.6080    8.9930 C.3   207  TYR207      0.0534
     72  CG         1.4920    8.2240    8.9920 C.ar  207  TYR207     -0.0201
     73  CD1        0.3160    7.9380    9.6910 C.ar  207  TYR207     -0.0009
     74  CD2        2.1070    7.2060    8.3170 C.ar  207  TYR207     -0.0009
     75  CE1       -0.2300    6.6280    9.6910 C.ar  207  TYR207      0.0417
     76  CE2        1.5670    5.9150    8.3060 C.ar  207  TYR207      0.0417
     77  CZ         0.4020    5.6450    8.9780 C.ar  207  TYR207      0.1957
     78  OH        -0.1280    4.3690    8.9110 O.3   207  TYR207     -0.2866
     79  N         -0.0220   14.2420   11.9510 N.3   209  HIS209     -0.1241
     80  CA        -0.4050   14.1530   13.3730 C.3   209  HIS209      0.1621
     81  C         -0.9050   15.4720   13.9210 C.2   209  HIS209      0.2264
     82  O         -0.3920   16.5270   13.5740 O.2   209  HIS209     -0.2867
     83  CB         0.7920   13.7380   14.2000 C.3   209  HIS209      0.0745
     84  CG         1.5820   12.6550   13.5580 C.ar  209  HIS209      0.0817
     85  ND1        1.1660   11.3290   13.5510 N.ar  209  HIS209     -0.2268
     86  CD2        2.7060   12.7070   12.7960 C.ar  209  HIS209      0.1154
     87  CE1        2.0370   10.6040   12.8680 C.ar  209  HIS209      0.1986
     88  NE2        2.9770   11.4160   12.3950 N.ar  209  HIS209     -0.2212
     89  N          7.2700   11.6340   21.1350 N.3   222  PHE222     -0.1241
     90  CA         6.5180   11.5940   19.9250 C.3   222  PHE222      0.1605
     91  C          6.8660   12.8610   19.1190 C.2   222  PHE222      0.2264
     92  O          7.1650   12.7710   17.9290 O.2   222  PHE222     -0.2867
     93  CB         5.0300   11.5330   20.2380 C.3   222  PHE222      0.0534
     94  CG         4.1860   11.2940   19.0300 C.ar  222  PHE222     -0.0203
     95  CD1        4.0600   10.0130   18.4990 C.ar  222  PHE222     -0.0042
     96  CD2        3.5510   12.3510   18.3850 C.ar  222  PHE222     -0.0042
     97  CE1        3.2940    9.7840   17.3710 C.ar  222  PHE222     -0.0003
     98  CE2        2.7530   12.1200   17.2570 C.ar  222  PHE222     -0.0003
     99  CZ         2.6310   10.8420   16.7530 C.ar  222  PHE222     -0.0000
    100  N         -0.8530    3.0560   21.5460 N.3   320  SER320     -0.1217
    101  CA         0.4800    2.4710   21.4050 C.3   320  SER320      0.1889
    102  C          1.1790    2.4120   22.7530 C.2   320  SER320      0.2288
    103  O          1.1050    3.3820   23.5560 O.2   320  SER320     -0.2866
    104  CB         1.3340    3.2410   20.4180 C.3   320  SER320      0.2089
    105  OG         1.0240    2.8950   19.0850 O.3   320  SER320     -0.2183
    106  N          0.3270    5.7590   24.6180 N.3   331  LEU331     -0.1245
    107  CA        -0.0630    6.8920   23.8030 C.3   331  LEU331      0.1561
    108  C         -1.4700    6.5580   23.3330 C.2   331  LEU331      0.2260
    109  O         -1.6670    5.4880   22.7650 O.2   331  LEU331     -0.2867
    110  CB         0.8810    6.9980   22.6050 C.3   331  LEU331      0.0270
    111  CG         1.0310    8.3130   21.8240 C.3   331  LEU331      0.0019
    112  CD1        2.0330    8.1840   20.7370 C.3   331  LEU331      0.0001
    113  CD2       -0.2440    8.8070   21.2770 C.3   331  LEU331      0.0001
    114  N         -4.0790    7.1630   20.7280 N.3   333  ALA333     -0.1245
    115  CA        -4.1630    7.8290   19.4080 C.3   333  ALA333      0.1562
    116  C         -5.5340    7.6230   18.7410 C.2   333  ALA333      0.2260
    117  O         -6.0780    6.5230   18.7500 O.2   333  ALA333     -0.2867
    118  CB        -3.0350    7.3640   18.5290 C.3   333  ALA333      0.0290
    119  N         -7.5080    7.8310   15.1010 N.3   335  TYR335     -0.1241
    120  CA        -7.1910    7.7530   13.6670 C.3   335  TYR335      0.1605
    121  C         -8.3990    8.1890   12.8670 C.2   335  TYR335      0.2264
    122  O         -9.5030    7.6220   12.9750 O.2   335  TYR335     -0.2867
    123  CB        -6.7910    6.3030   13.2530 C.3   335  TYR335      0.0534
    124  CG        -5.4940    5.9340   13.8530 C.ar  335  TYR335     -0.0201
    125  CD1       -5.3870    5.6150   15.2080 C.ar  335  TYR335     -0.0009
    126  CD2       -4.3440    6.0190   13.1130 C.ar  335  TYR335     -0.0009
    127  CE1       -4.1100    5.3430   15.8060 C.ar  335  TYR335      0.0417
    128  CE2       -3.0820    5.7540   13.6880 C.ar  335  TYR335      0.0417
    129  CZ        -2.9690    5.4270   15.0060 C.ar  335  TYR335      0.1957
    130  OH        -1.6900    5.1680   15.5060 O.3   335  TYR335     -0.2866
    131  N         -4.1850   11.0550   14.3930 N.3   366  ASN366     -0.1240
    132  CA        -3.3540   10.6210   13.2690 C.3   366  ASN366      0.1653
    133  C         -4.1580   10.3790   11.9850 C.2   366  ASN366      0.2266
    134  O         -5.3410   10.0330   12.0400 O.2   366  ASN366     -0.2867
    135  CB        -2.7100    9.2670   13.5910 C.3   366  ASN366      0.1155
    136  CG        -1.5710    9.3820   14.5670 C.2   366  ASN366      0.2627
    137  OD1       -1.0690   10.4840   14.8270 O.2   366  ASN366     -0.2716
    138  ND2       -1.1330    8.2360   15.1120 N.am  366  ASN366     -0.0877
    139  N          7.2200   11.4340   10.0060 N.3   386  ASP386     -0.1225
    140  CA         8.2910   10.8880    9.1750 C.3   386  ASP386      0.1805
    141  C          7.9180    9.5370    8.4930 C.2   386  ASP386      0.2598
    142  O          8.6880    9.0020    7.6830 O.2   386  ASP386     -0.2718
    143  CB         9.5860   10.8020    9.9940 C.3   386  ASP386      0.1424
    144  CG         9.3760    9.9910   11.2120 C.2   386  ASP386      0.3668
    145  OD1        8.5250    9.0580   11.1080 O.co2 386  ASP386     -0.2456
    146  OD2       10.0130   10.2670   12.2590 O.co2 386  ASP386     -0.2456
    147  N          6.7390    9.0040    8.7690 N.am  387  GLY387     -0.1942
    148  CA         6.3410    7.7740    8.1020 C.3   387  GLY387      0.2014
    149  C          5.5490    7.9240    6.8000 C.2   387  GLY387      0.2639
    150  O          4.9740    8.9690    6.5330 O.2   387  GLY387     -0.2714
    151  N          5.5150    6.8520    6.0220 N.am  388  HIS388     -0.1959
    152  CA         4.6550    6.7320    4.8750 C.3   388  HIS388      0.1787
    153  C          3.9190    5.4010    4.9090 C.2   388  HIS388      0.2620
    154  O          4.5170    4.3670    5.2130 O.2   388  HIS388     -0.2715
    155  CB         5.4870    6.7610    3.5910 C.3   388  HIS388      0.0785
    156  CG         6.2310    8.0420    3.3870 C.ar  388  HIS388      0.0821
    157  ND1        5.7880    9.0340    2.5250 N.ar  388  HIS388     -0.2267
    158  CD2        7.3850    8.5000    3.9370 C.ar  388  HIS388      0.1154
    159  CE1        6.6390   10.0440    2.5570 C.ar  388  HIS388      0.1986
    160  NE2        7.6140    9.7460    3.4010 N.ar  388  HIS388     -0.2212
    161  N          2.6390    5.4140    4.5700 N.am  389  LEU389     -0.1977
    162  CA         1.8550    4.2170    4.3420 C.3   389  LEU389      0.1596
    163  C          1.7960    3.9810    2.8080 C.2   389  LEU389      0.2287
    164  O          1.3000    4.8510    2.0450 O.2   389  LEU389     -0.2864
    165  CB         0.4200    4.4160    4.8940 C.3   389  LEU389      0.0297
    166  CG        -0.4880    3.1560    4.8960 C.3   389  LEU389      0.0022
    167  CD1        0.2330    2.0280    5.7350 C.3   389  LEU389      0.0001
    168  CD2       -1.9050    3.3960    5.4210 C.3   389  LEU389      0.0001
@<TRIPOS>BOND
     1   164   163    2
     2   157   159   ar
     3   157   156   ar
     4   159   160   ar
     5   163   162    1
     6   156   155    1
     7   156   158   ar
     8   160   158   ar
     9   155   152    1
    10    58    59    1
    11    62    59    1
    12    61    60    2
    13   162   161    1
    14   162   165    1
    15   161   153   am
    16   152   153    1
    17   152   151    1
    18    59    60    1
    19   165   166    1
    20   166   168    1
    21   166   167    1
    22   153   154    2
    23    60    63   am
    24    65    66    2
    25    65    64    1
    26   151   149   am
    27    63    64    1
    28   150   149    2
    29    67    68    1
    30   149   148    1
    31   142   141    2
    32    68    69    1
    33    68    71    1
    34   148   147    1
    35    70    69    2
    36    76    74   ar
    37    76    77   ar
    38    74    72   ar
    39   141   147   am
    40   141   140    1
    41    78    77    1
    42    77    75   ar
    43    72    71    1
    44    72    73   ar
    45   140   143    1
    46   140   139    1
    47    73    75   ar
    48   143   144    1
    49   145   144   ar
    50   144   146   ar
    51    79    80    1
    52   133   134    2
    53   133   132    1
    54     7     5    1
    55    88    86   ar
    56    88    87   ar
    57    86    84   ar
    58   121   122    2
    59   121   120    1
    60    87    85   ar
    61     6     5    1
    62   126   128   ar
    63   126   124   ar
    64   123   120    1
    65   123   124    1
    66   132   135    1
    67   132   131    1
    68    80    81    1
    69    80    83    1
    70     5     2    1
    71    85    84   ar
    72    84    83    1
    73    82    81    2
    74   135   136    1
    75   120   119    1
    76   128   129   ar
    77    56    57   ar
    78    56    54   ar
    79   124   125   ar
    80    11    10    2
    81    57    55   ar
    82     2     1    1
    83     2     3    1
    84   136   137    2
    85   136   138   am
    86    19    18    1
    87    19    20    2
    88    18    21    1
    89    18    17    1
    90    54    52   ar
    91   129   130    1
    92   129   127   ar
    93    10    17   am
    94    10     9    1
    95   125   127   ar
    96     8     3   am
    97     8     9    1
    98    55    53   ar
    99     3     4    2
   100    21    22    1
   101     9    12    1
   102    52    53   ar
   103    52    51    1
   104    12    13    1
   105    99    98   ar
   106    99    97   ar
   107    22    24   ar
   108    22    23   ar
   109    98    96   ar
   110    51    48    1
   111    97    95   ar
   112    13    14    1
   113    92    91    2
   114    15    14   ar
   115    96    94   ar
   116    14    16   ar
   117    95    94   ar
   118   118   115    1
   119    28    27    2
   120    47    48    1
   121    47    38   am
   122    48    49    1
   123   116   117    2
   124   116   115    1
   125    94    93    1
   126   105   104    1
   127    91    90    1
   128    32    34   ar
   129    32    30   ar
   130    41    40    1
   131    41    42    1
   132   115   114    1
   133    37    38    1
   134    37    40    1
   135    37    36    1
   136    27    36   am
   137    27    26    1
   138    38    39    2
   139    34    35   ar
   140    29    30    1
   141    29    26    1
   142    49    50    2
   143    90    93    1
   144    90    89    1
   145    30    31   ar
   146    42    43    1
   147    25    26    1
   148   104   101    1
   149    43    44    2
   150   112   111    1
   151    35    33   ar
   152   113   111    1
   153    31    33   ar
   154   101   100    1
   155   101   102    1
   156    44    46    1
   157    44    45    1
   158   111   110    1
   159   110   107    1
   160   102   103    2
   161   109   108    2
   162   108   107    1
   163   107   106    1
