@<TRIPOS>MOLECULE
tmp/4a30A00.pdb
 152 146 0 0 0
SMALL
GASTEIGER

@<TRIPOS>ATOM
      1  N         28.2980   -3.9300   15.0480 N.3    71  VAL71      -0.1231
      2  CA        29.1080   -2.8450   14.4240 C.3    71  VAL71       0.1692
      3  C         29.6470   -1.9240   15.5160 C.2    71  VAL71       0.2592
      4  O         28.8770   -1.4430   16.3840 O.2    71  VAL71      -0.2718
      5  CB        28.2340   -2.0240   13.4510 C.3    71  VAL71       0.0266
      6  CG1       28.9840   -0.9380   12.8470 C.3    71  VAL71       0.0020
      7  CG2       27.7090   -2.9880   12.2210 C.3    71  VAL71       0.0020
      8  N         30.9050   -1.6120   15.3760 N.am   72  GLU72      -0.1966
      9  CA        31.5790   -0.5530   16.1730 C.3    72  GLU72       0.1733
     10  C         31.9680    0.5700   15.2530 C.2    72  GLU72       0.2616
     11  O         32.1880    0.3630   14.0440 O.2    72  GLU72      -0.2715
     12  CB        32.8700   -1.1420   16.8380 C.3    72  GLU72       0.0429
     13  CG        32.5390   -2.1210   17.8540 C.3    72  GLU72       0.1163
     14  CD        33.7340   -2.8050   18.4930 C.2    72  GLU72       0.3649
     15  OE1       34.9400   -2.3830   18.3150 O.co2  72  GLU72      -0.2457
     16  OE2       33.4460   -3.8170   19.1470 O.co2  72  GLU72      -0.2457
     17  N         32.2230    1.7220   15.8610 N.am   73  ASP73      -0.1971
     18  CA        32.9170    2.8220   15.1000 C.3    73  ASP73       0.1709
     19  C         34.3680    2.3610   14.8590 C.2    73  ASP73       0.2293
     20  O         34.8830    1.4450   15.4710 O.2    73  ASP73      -0.2864
     21  CB        32.8480    4.1660   15.8110 C.3    73  ASP73       0.1436
     22  CG        33.5940    4.1290   17.0770 C.2    73  ASP73       0.3671
     23  OD1       33.4160    3.2110   17.8450 O.co2  73  ASP73      -0.2456
     24  OD2       34.5670    4.9240   17.2320 O.co2  73  ASP73      -0.2456
     25  N         32.1130    2.9890   20.3970 N.3    78  PHE78      -0.1241
     26  CA        30.6660    2.7210   20.4340 C.3    78  PHE78       0.1605
     27  C         30.3790    1.4350   19.6780 C.2    78  PHE78       0.2264
     28  O         31.0130    1.1380   18.6590 O.2    78  PHE78      -0.2867
     29  CB        29.9410    3.8750   19.6740 C.3    78  PHE78       0.0534
     30  CG        30.2730    5.2910   20.2330 C.ar   78  PHE78      -0.0203
     31  CD1       30.1440    5.6140   21.5550 C.ar   78  PHE78      -0.0042
     32  CD2       30.8670    6.1940   19.3760 C.ar   78  PHE78      -0.0042
     33  CE1       30.4890    6.9410   21.9830 C.ar   78  PHE78      -0.0003
     34  CE2       31.2230    7.4810   19.7930 C.ar   78  PHE78      -0.0003
     35  CZ        31.0460    7.8460   21.1010 C.ar   78  PHE78      -0.0000
     36  N         26.7600   -0.8220   18.4430 N.3    80  PHE80      -0.1241
     37  CA        25.2780   -0.8170   18.5020 C.3    80  PHE80       0.1605
     38  C         24.7860   -1.7690   19.5600 C.2    80  PHE80       0.2264
     39  O         25.3540   -2.9060   19.7140 O.2    80  PHE80      -0.2867
     40  CB        24.6730   -1.2100   17.1390 C.3    80  PHE80       0.0534
     41  CG        24.8320   -0.1940   16.1130 C.ar   80  PHE80      -0.0203
     42  CD1       24.5530    1.1100   16.3670 C.ar   80  PHE80      -0.0042
     43  CD2       25.1560   -0.5990   14.7610 C.ar   80  PHE80      -0.0042
     44  CE1       24.6920    2.0850   15.3140 C.ar   80  PHE80      -0.0003
     45  CE2       25.2500    0.3340   13.7460 C.ar   80  PHE80      -0.0003
     46  CZ        25.0470    1.6700   13.9970 C.ar   80  PHE80      -0.0000
     47  N         28.4850    0.1550    6.1110 N.3   195  GLY195     -0.1225
     48  CA        29.3560    1.3390    6.3340 C.3   195  GLY195      0.1811
     49  C         30.7310    1.1240    5.7790 C.2   195  GLY195      0.2280
     50  O         31.6070    1.9940    6.0500 O.2   195  GLY195     -0.2866
     51  N         26.4590   10.1850    6.6810 N.3   207  TYR207     -0.1241
     52  CA        25.6650   10.3880    7.9200 C.3   207  TYR207      0.1605
     53  C         25.6860   11.8300    8.3580 C.2   207  TYR207      0.2264
     54  O         26.6740   12.5530    8.1790 O.2   207  TYR207     -0.2867
     55  CB        26.2260    9.4960    9.0630 C.3   207  TYR207      0.0534
     56  CG        25.6720    8.1190    9.0460 C.ar  207  TYR207     -0.0201
     57  CD1       26.3370    7.1120    8.3180 C.ar  207  TYR207     -0.0009
     58  CD2       24.5550    7.8320    9.7510 C.ar  207  TYR207     -0.0009
     59  CE1       25.8430    5.7820    8.2520 C.ar  207  TYR207      0.0417
     60  CE2       24.0550    6.4480    9.7170 C.ar  207  TYR207      0.0417
     61  CZ        24.7390    5.5390    9.0080 C.ar  207  TYR207      0.1957
     62  OH        24.1870    4.2560    8.9840 O.3   207  TYR207     -0.2866
     63  N         24.1960   14.2970   11.9100 N.3   209  HIS209     -0.1241
     64  CA        23.9560   14.1690   13.3860 C.3   209  HIS209      0.1621
     65  C         23.5150   15.4650   13.9440 C.2   209  HIS209      0.2264
     66  O         24.0990   16.5300   13.6300 O.2   209  HIS209     -0.2867
     67  CB        25.2090   13.7360   14.1300 C.3   209  HIS209      0.0745
     68  CG        25.9000   12.5790   13.4820 C.ar  209  HIS209      0.0817
     69  ND1       25.4450   11.3010   13.6460 N.ar  209  HIS209     -0.2268
     70  CD2       26.9330   12.5170   12.6060 C.ar  209  HIS209      0.1154
     71  CE1       26.1420   10.4790   12.8940 C.ar  209  HIS209      0.1986
     72  NE2       27.0910   11.1870   12.2760 N.ar  209  HIS209     -0.2212
     73  N         31.7900   11.6200   21.3550 N.3   222  PHE222     -0.1241
     74  CA        31.0320   11.5620   20.0820 C.3   222  PHE222      0.1605
     75  C         31.2320   12.8630   19.3120 C.2   222  PHE222      0.2264
     76  O         31.3860   12.8230   18.1190 O.2   222  PHE222     -0.2867
     77  CB        29.5580   11.2870   20.3730 C.3   222  PHE222      0.0534
     78  CG        28.7160   11.2360   19.1380 C.ar  222  PHE222     -0.0203
     79  CD1       28.1150   12.3890   18.6420 C.ar  222  PHE222     -0.0042
     80  CD2       28.5160   10.0190   18.5310 C.ar  222  PHE222     -0.0042
     81  CE1       27.3050   12.3070   17.5090 C.ar  222  PHE222     -0.0003
     82  CE2       27.7240    9.9240   17.3480 C.ar  222  PHE222     -0.0003
     83  CZ        27.1090   11.0710   16.8890 C.ar  222  PHE222     -0.0000
     84  N         23.6670    2.9020   21.5460 N.3   320  SER320     -0.1217
     85  CA        24.9620    2.2620   21.3600 C.3   320  SER320      0.1889
     86  C         25.6230    2.1850   22.7450 C.2   320  SER320      0.2288
     87  O         25.6640    3.1680   23.5120 O.2   320  SER320     -0.2866
     88  CB        25.8860    3.0620   20.4730 C.3   320  SER320      0.2089
     89  OG        25.3710    2.9310   19.1200 O.3   320  SER320     -0.2183
     90  N         24.6960    5.4750   24.6390 N.3   331  LEU331     -0.1245
     91  CA        24.4200    6.7070   23.8550 C.3   331  LEU331      0.1561
     92  C         23.0230    6.4940   23.2390 C.2   331  LEU331      0.2260
     93  O         22.8440    5.4520   22.5600 O.2   331  LEU331     -0.2867
     94  CB        25.4240    6.8740   22.7700 C.3   331  LEU331      0.0270
     95  CG        25.4050    8.2160   21.9720 C.3   331  LEU331      0.0019
     96  CD1       26.6670    8.2220   21.1030 C.3   331  LEU331      0.0001
     97  CD2       24.2620    8.3770   21.0950 C.3   331  LEU331      0.0001
     98  N         20.4320    7.1090   20.7000 N.3   333  ALA333     -0.1245
     99  CA        20.2460    7.7830   19.3950 C.3   333  ALA333      0.1562
    100  C         18.8920    7.5090   18.8320 C.2   333  ALA333      0.2260
    101  O         18.3660    6.3960   18.8080 O.2   333  ALA333     -0.2867
    102  CB        21.3750    7.2610   18.4640 C.3   333  ALA333      0.0290
    103  N         16.9750    7.8210   15.1380 N.3   335  TYR335     -0.1241
    104  CA        17.2520    7.7880   13.7020 C.3   335  TYR335      0.1605
    105  C         16.0650    8.2170   12.9330 C.2   335  TYR335      0.2264
    106  O         14.9440    7.6960   13.1540 O.2   335  TYR335     -0.2867
    107  CB        17.6640    6.3220   13.2850 C.3   335  TYR335      0.0534
    108  CG        18.9780    5.9470   13.8260 C.ar  335  TYR335     -0.0201
    109  CD1       19.1590    5.5810   15.1980 C.ar  335  TYR335     -0.0009
    110  CD2       20.0830    5.9680   13.0210 C.ar  335  TYR335     -0.0009
    111  CE1       20.4200    5.2660   15.6960 C.ar  335  TYR335      0.0417
    112  CE2       21.3820    5.6290   13.5270 C.ar  335  TYR335      0.0417
    113  CZ        21.5250    5.3440   14.8790 C.ar  335  TYR335      0.1957
    114  OH        22.7770    5.0440   15.3480 O.3   335  TYR335     -0.2866
    115  N         20.2410   10.9590   14.3730 N.3   366  ASN366     -0.1240
    116  CA        21.1060   10.5690   13.2210 C.3   366  ASN366      0.1653
    117  C         20.2710   10.3160   11.9970 C.2   366  ASN366      0.2266
    118  O         19.0700    9.9570   12.0760 O.2   366  ASN366     -0.2867
    119  CB        21.7790    9.2480   13.5660 C.3   366  ASN366      0.1155
    120  CG        22.8200    9.3820   14.6940 C.2   366  ASN366      0.2627
    121  OD1       23.2960   10.4710   14.9940 O.2   366  ASN366     -0.2716
    122  ND2       23.2420    8.2300   15.2870 N.am  366  ASN366     -0.0877
    123  N         31.4670   11.2870   10.1870 N.3   386  ASP386     -0.1225
    124  CA        32.5030   10.6020    9.3940 C.3   386  ASP386      0.1805
    125  C         31.9770    9.2900    8.7130 C.2   386  ASP386      0.2598
    126  O         32.7160    8.7240    7.9140 O.2   386  ASP386     -0.2718
    127  CB        33.7840   10.4130   10.1580 C.3   386  ASP386      0.1424
    128  CG        33.5060    9.7490   11.3720 C.2   386  ASP386      0.3668
    129  OD1       33.1230    8.5990   11.1980 O.co2 386  ASP386     -0.2456
    130  OD2       33.6590   10.3290   12.5140 O.co2 386  ASP386     -0.2456
    131  N         30.7520    8.8760    8.9970 N.am  387  GLY387     -0.1942
    132  CA        30.2320    7.6720    8.3790 C.3   387  GLY387      0.2014
    133  C         29.6440    7.9120    6.9880 C.2   387  GLY387      0.2639
    134  O         29.1250    8.9800    6.6210 O.2   387  GLY387     -0.2714
    135  N         29.6660    6.8470    6.2080 N.am  388  HIS388     -0.1959
    136  CA        28.9960    6.7980    4.8890 C.3   388  HIS388      0.1787
    137  C         28.3300    5.4790    4.7770 C.2   388  HIS388      0.2620
    138  O         29.0080    4.4230    4.8190 O.2   388  HIS388     -0.2715
    139  CB        30.0060    6.8890    3.7620 C.3   388  HIS388      0.0785
    140  CG        30.7820    8.1760    3.8060 C.ar  388  HIS388      0.0821
    141  ND1       30.5000    9.2570    2.9950 N.ar  388  HIS388     -0.2267
    142  CD2       31.8390    8.5290    4.5770 C.ar  388  HIS388      0.1154
    143  CE1       31.2950   10.2680    3.3370 C.ar  388  HIS388      0.1986
    144  NE2       32.1010    9.8680    4.3120 N.ar  388  HIS388     -0.2212
    145  N         27.0350    5.5310    4.5240 N.am  389  LEU389     -0.1977
    146  CA        26.2510    4.2920    4.3190 C.3   389  LEU389      0.1596
    147  C         26.1580    4.0060    2.8030 C.2   389  LEU389      0.2287
    148  O         25.6950    4.8460    1.9950 O.2   389  LEU389     -0.2864
    149  CB        24.8450    4.4330    4.8600 C.3   389  LEU389      0.0297
    150  CG        24.0950    3.0540    4.9800 C.3   389  LEU389      0.0022
    151  CD1       24.8130    2.0300    5.9000 C.3   389  LEU389      0.0001
    152  CD2       22.6440    3.3110    5.3930 C.3   389  LEU389      0.0001
@<TRIPOS>BOND
     1   148   147    2
     2   147   146    1
     3   141   143   ar
     4   141   140   ar
     5   143   144   ar
     6   139   140    1
     7   139   136    1
     8   140   142   ar
     9   144   142   ar
    10   146   145    1
    11   146   149    1
    12   145   137   am
    13   137   138    2
    14   137   136    1
    15   149   150    1
    16   136   135    1
    17   150   152    1
    18   150   151    1
    19    49    50    2
    20    49    48    1
    21    47    48    1
    22   135   133   am
    23   134   133    2
    24    51    52    1
    25   133   132    1
    26   126   125    2
    27    52    53    1
    28    52    55    1
    29    54    53    2
    30    59    57   ar
    31    59    61   ar
    32    57    56   ar
    33   132   131    1
    34   125   131   am
    35   125   124    1
    36    62    61    1
    37    61    60   ar
    38    56    55    1
    39    56    58   ar
    40   124   127    1
    41   124   123    1
    42    60    58   ar
    43   127   128    1
    44   129   128   ar
    45   128   130   ar
    46    63    64    1
    47   117   118    2
    48   117   116    1
    49     7     5    1
    50    72    70   ar
    51    72    71   ar
    52    70    68   ar
    53     6     5    1
    54    71    69   ar
    55   105   106    2
    56   105   104    1
    57   110   112   ar
    58   110   108   ar
    59   116   119    1
    60   116   115    1
    61   107   104    1
    62   107   108    1
    63    64    65    1
    64    64    67    1
    65     5     2    1
    66    68    69   ar
    67    68    67    1
    68   112   113   ar
    69   119   120    1
    70    66    65    2
    71   104   103    1
    72    45    46   ar
    73    45    43   ar
    74   108   109   ar
    75    46    44   ar
    76    11    10    2
    77     2     1    1
    78     2     3    1
    79   120   121    2
    80   120   122   am
    81    43    41   ar
    82    19    18    1
    83    19    20    2
    84   113   114    1
    85   113   111   ar
    86    18    21    1
    87    18    17    1
    88   109   111   ar
    89    10    17   am
    90    10     9    1
    91    44    42   ar
    92     8     3   am
    93     8     9    1
    94     3     4    2
    95    21    22    1
    96    41    42   ar
    97    41    40    1
    98     9    12    1
    99    12    13    1
   100    83    82   ar
   101    83    81   ar
   102    22    24   ar
   103    22    23   ar
   104    40    37    1
   105    82    80   ar
   106    81    79   ar
   107    13    14    1
   108    76    75    2
   109    15    14   ar
   110    36    37    1
   111   102    99    1
   112    14    16   ar
   113    37    38    1
   114    80    78   ar
   115    79    78   ar
   116    28    27    2
   117   101   100    2
   118   100    99    1
   119    89    88    1
   120    78    77    1
   121    75    74    1
   122    32    34   ar
   123    32    30   ar
   124    99    98    1
   125    38    39    2
   126    29    30    1
   127    29    26    1
   128    27    26    1
   129    34    35   ar
   130    74    77    1
   131    74    73    1
   132    30    31   ar
   133    25    26    1
   134    88    85    1
   135    97    95    1
   136    35    33   ar
   137    96    95    1
   138    85    84    1
   139    85    86    1
   140    31    33   ar
   141    95    94    1
   142    93    92    2
   143    86    87    2
   144    94    91    1
   145    92    91    1
   146    91    90    1
