@<TRIPOS>MOLECULE
tmp/4a31A00.pdb
 219 211 0 0 0
SMALL
GASTEIGER

@<TRIPOS>ATOM
      1  N          4.0900   -7.2010   17.5230 N.3    70  TYR70      -0.1227
      2  CA         3.6120   -6.4700   16.3320 C.3    70  TYR70       0.1736
      3  C          4.4510   -5.2010   16.0870 C.2    70  TYR70       0.2595
      4  O          5.5360   -5.0460   16.6590 O.2    70  TYR70      -0.2718
      5  CB         2.0750   -6.2050   16.4190 C.3    70  TYR70       0.0548
      6  CG         1.3920   -5.8690   15.0800 C.ar   70  TYR70      -0.0200
      7  CD1        1.6510   -6.6240   13.9290 C.ar   70  TYR70      -0.0009
      8  CD2        0.4690   -4.8120   14.9760 C.ar   70  TYR70      -0.0009
      9  CE1        1.0390   -6.3510   12.7450 C.ar   70  TYR70       0.0417
     10  CE2       -0.1430   -4.5160   13.7710 C.ar   70  TYR70       0.0417
     11  CZ         0.1640   -5.2930   12.6420 C.ar   70  TYR70       0.1957
     12  OH        -0.4300   -5.0570   11.4060 O.3    70  TYR70      -0.2866
     13  N          3.9750   -4.2920   15.2380 N.am   71  VAL71      -0.1966
     14  CA         4.7880   -3.1520   14.7400 C.3    71  VAL71       0.1727
     15  C          5.4510   -2.2710   15.8350 C.2    71  VAL71       0.2616
     16  O          4.8080   -1.8150   16.7900 O.2    71  VAL71      -0.2715
     17  CB         3.9640   -2.2680   13.7240 C.3    71  VAL71       0.0290
     18  CG1        4.7490   -1.0440   13.2520 C.3    71  VAL71       0.0023
     19  CG2        3.5070   -3.1120   12.5000 C.3    71  VAL71       0.0023
     20  N          6.7550   -2.0380   15.6990 N.am   72  GLU72      -0.1963
     21  CA         7.4410   -1.0190   16.5100 C.3    72  GLU72       0.1733
     22  C          8.0200    0.0100   15.5500 C.2    72  GLU72       0.2616
     23  O          8.2530   -0.3240   14.3960 O.2    72  GLU72      -0.2715
     24  CB         8.6120   -1.6100   17.3160 C.3    72  GLU72       0.0429
     25  CG         8.4900   -3.0760   17.6180 C.3    72  GLU72       0.1163
     26  CD         9.4720   -3.5750   18.6840 C.2    72  GLU72       0.3649
     27  OE1       10.6290   -3.1280   18.7270 O.co2  72  GLU72      -0.2457
     28  OE2        9.0700   -4.4330   19.4760 O.co2  72  GLU72      -0.2457
     29  N          8.2780    1.2360   16.0220 N.am   73  ASP73      -0.1971
     30  CA         9.1130    2.1880   15.2630 C.3    73  ASP73       0.1709
     31  C         10.5320    1.6020   15.1850 C.2    73  ASP73       0.2293
     32  O         10.8320    0.6400   15.8830 O.2    73  ASP73      -0.2864
     33  CB         9.1250    3.5330   15.9780 C.3    73  ASP73       0.1436
     34  CG         9.7980    3.4680   17.3470 C.2    73  ASP73       0.3671
     35  OD1        9.4080    2.6330   18.2200 O.co2  73  ASP73      -0.2456
     36  OD2       10.7380    4.2550   17.5530 O.co2  73  ASP73      -0.2456
     37  N          8.0700    2.5040   20.7300 N.3    78  PHE78      -0.1241
     38  CA         6.6230    2.2670   20.7780 C.3    78  PHE78       0.1605
     39  C          6.3030    0.9800   20.0570 C.2    78  PHE78       0.2264
     40  O          6.9810    0.6390   19.0970 O.2    78  PHE78      -0.2867
     41  CB         5.8330    3.4170   20.1250 C.3    78  PHE78       0.0534
     42  CG         6.3180    4.7960   20.5050 C.ar   78  PHE78      -0.0203
     43  CD1        6.1140    5.2960   21.7690 C.ar   78  PHE78      -0.0042
     44  CD2        6.9800    5.5820   19.5910 C.ar   78  PHE78      -0.0042
     45  CE1        6.5680    6.5570   22.1190 C.ar   78  PHE78      -0.0003
     46  CE2        7.4370    6.8570   19.9350 C.ar   78  PHE78      -0.0003
     47  CZ         7.2390    7.3390   21.1850 C.ar   78  PHE78      -0.0000
     48  N          2.6290   -1.2680   18.8570 N.3    80  PHE80      -0.1241
     49  CA         1.1590   -1.1840   18.8620 C.3    80  PHE80       0.1605
     50  C          0.5880   -2.1180   19.9080 C.2    80  PHE80       0.2264
     51  O          1.1000   -3.2160   20.0860 O.2    80  PHE80      -0.2867
     52  CB         0.5620   -1.5350   17.4990 C.3    80  PHE80       0.0534
     53  CG         0.7670   -0.4660   16.4060 C.ar   80  PHE80      -0.0203
     54  CD1        0.5800    0.9030   16.6660 C.ar   80  PHE80      -0.0042
     55  CD2        1.0810   -0.8600   15.0940 C.ar   80  PHE80      -0.0042
     56  CE1        0.7580    1.8800   15.6170 C.ar   80  PHE80      -0.0003
     57  CE2        1.2630    0.0830   14.0530 C.ar   80  PHE80      -0.0003
     58  CZ         1.0820    1.4640   14.3100 C.ar   80  PHE80      -0.0000
     59  N         -2.9980   -2.8680   20.0840 N.3    82  TYR82      -0.1241
     60  CA        -4.3730   -3.0060   19.6760 C.3    82  TYR82       0.1605
     61  C         -5.1600   -3.7620   20.7450 C.2    82  TYR82       0.2264
     62  O         -4.7530   -4.8720   21.1400 O.2    82  TYR82      -0.2867
     63  CB        -4.4130   -3.8300   18.3950 C.3    82  TYR82       0.0534
     64  CG        -4.0740   -3.0970   17.1100 C.ar   82  TYR82      -0.0201
     65  CD1       -5.0620   -2.4400   16.3690 C.ar   82  TYR82      -0.0009
     66  CD2       -2.7730   -3.1070   16.6000 C.ar   82  TYR82      -0.0009
     67  CE1       -4.7430   -1.7840   15.1270 C.ar   82  TYR82       0.0417
     68  CE2       -2.4540   -2.4690   15.3920 C.ar   82  TYR82       0.0417
     69  CZ        -3.4480   -1.8060   14.6630 C.ar   82  TYR82       0.1957
     70  OH        -3.1160   -1.2200   13.4410 O.3    82  TYR82      -0.2866
     71  N         -5.6570   -7.8170    3.6110 N.3   156  ILE156     -0.1231
     72  CA        -4.6670   -8.3940    4.5360 C.3   156  ILE156      0.1692
     73  C         -4.1560   -7.3800    5.5790 C.2   156  ILE156      0.2592
     74  O         -3.8650   -6.2410    5.2510 O.2   156  ILE156     -0.2718
     75  CB        -3.4810   -9.0380    3.7410 C.3   156  ILE156      0.0266
     76  CG1       -3.9860  -10.1920    2.8630 C.3   156  ILE156      0.0019
     77  CG2       -2.4160   -9.6010    4.6510 C.3   156  ILE156      0.0020
     78  CD1       -4.5020  -11.4220    3.6500 C.3   156  ILE156      0.0001
     79  N         -4.0580   -7.8320    6.8230 N.am  157  ASN157     -0.1974
     80  CA        -3.6160   -7.0230    7.9560 C.3   157  ASN157      0.1688
     81  C         -3.0950   -7.9400    9.0570 C.2   157  ASN157      0.2292
     82  O         -3.3590   -9.1600    9.0400 O.2   157  ASN157     -0.2864
     83  CB        -4.7900   -6.1920    8.5100 C.3   157  ASN157      0.1181
     84  CG        -4.3450   -4.8680    9.1360 C.2   157  ASN157      0.2629
     85  OD1       -3.2110   -4.7140    9.6180 O.2   157  ASN157     -0.2716
     86  ND2       -5.2360   -3.9020    9.1040 N.am  157  ASN157     -0.0877
     87  N         -1.5160   -2.7220    3.1480 N.3   193  THR193     -0.1203
     88  CA        -0.6400   -1.5530    3.3230 C.3   193  THR193      0.1994
     89  C          0.4850   -2.0130    4.2410 C.2   193  THR193      0.2618
     90  O          0.3400   -3.0190    4.9890 O.2   193  THR193     -0.2717
     91  CB        -1.3640   -0.3730    3.9920 C.3   193  THR193      0.1784
     92  OG1       -2.0200   -0.8220    5.1850 O.3   193  THR193     -0.2211
     93  CG2       -2.3970    0.1950    3.0720 C.3   193  THR193      0.0376
     94  N          1.5940   -1.2890    4.1690 N.am  194  ALA194     -0.1965
     95  CA         2.7440   -1.5470    4.9930 C.3   194  ALA194      0.1728
     96  C          3.4890   -0.2310    5.1390 C.2   194  ALA194      0.2616
     97  O          3.4720    0.6260    4.2410 O.2   194  ALA194     -0.2715
     98  CB         3.6320   -2.5890    4.3460 C.3   194  ALA194      0.0334
     99  N          4.1580   -0.0790    6.2670 N.am  195  GLY195     -0.1955
    100  CA         5.0470    1.0680    6.4720 C.3   195  GLY195      0.1869
    101  C          6.3630    0.8610    5.7530 C.2   195  GLY195      0.2309
    102  O          7.0850    1.8200    5.4880 O.2   195  GLY195     -0.2863
    103  N          2.6510    9.9380    6.6840 N.3   207  TYR207     -0.1241
    104  CA         1.9140   10.1180    7.9370 C.3   207  TYR207      0.1605
    105  C          1.9690   11.5760    8.4150 C.2   207  TYR207      0.2264
    106  O          2.9600   12.2850    8.1550 O.2   207  TYR207     -0.2867
    107  CB         2.5020    9.1930    9.0200 C.3   207  TYR207      0.0534
    108  CG         1.8680    7.8350    9.0110 C.ar  207  TYR207     -0.0201
    109  CD1        0.6570    7.6110    9.6690 C.ar  207  TYR207     -0.0009
    110  CD2        2.4400    6.7780    8.2950 C.ar  207  TYR207     -0.0009
    111  CE1        0.0390    6.3670    9.6450 C.ar  207  TYR207      0.0417
    112  CE2        1.8300    5.5120    8.2660 C.ar  207  TYR207      0.0417
    113  CZ         0.6300    5.3220    8.9500 C.ar  207  TYR207      0.1957
    114  OH         0.0140    4.0910    8.9390 O.3   207  TYR207     -0.2866
    115  N          0.6470   14.0800   12.0020 N.3   209  HIS209     -0.1241
    116  CA         0.3670   13.9780   13.4430 C.3   209  HIS209      0.1621
    117  C         -0.1050   15.3230   13.9790 C.2   209  HIS209      0.2264
    118  O          0.4700   16.3680   13.6290 O.2   209  HIS209     -0.2867
    119  CB         1.6230   13.5370   14.1770 C.3   209  HIS209      0.0745
    120  CG         2.3040   12.3780   13.5110 C.ar  209  HIS209      0.0817
    121  ND1        1.8370   11.0810   13.6150 N.ar  209  HIS209     -0.2268
    122  CD2        3.3720   12.3300   12.6760 C.ar  209  HIS209      0.1154
    123  CE1        2.6140   10.2800   12.9060 C.ar  209  HIS209      0.1986
    124  NE2        3.5530   11.0120   12.3290 N.ar  209  HIS209     -0.2212
    125  N          8.1420   10.9780   21.3510 N.3   222  PHE222     -0.1241
    126  CA         7.4140   10.8730   20.0990 C.3   222  PHE222      0.1605
    127  C          7.6900   12.1740   19.3320 C.2   222  PHE222      0.2264
    128  O          7.8830   12.1640   18.1240 O.2   222  PHE222     -0.2867
    129  CB         5.9130   10.7080   20.3930 C.3   222  PHE222      0.0534
    130  CG         5.0370   10.7460   19.1730 C.ar  222  PHE222     -0.0203
    131  CD1        4.5410   11.9580   18.6910 C.ar  222  PHE222     -0.0042
    132  CD2        4.7140    9.5680   18.4930 C.ar  222  PHE222     -0.0042
    133  CE1        3.7300   12.0080   17.5700 C.ar  222  PHE222     -0.0003
    134  CE2        3.8900    9.6060   17.3520 C.ar  222  PHE222     -0.0003
    135  CZ         3.4000   10.8290   16.8960 C.ar  222  PHE222     -0.0000
    136  N         -0.3060    2.5530   21.8900 N.3   320  SER320     -0.1217
    137  CA         0.9750    1.8770   21.7500 C.3   320  SER320      0.1889
    138  C          1.5930    1.8250   23.1100 C.2   320  SER320      0.2288
    139  O          1.4720    2.7750   23.8720 O.2   320  SER320     -0.2866
    140  CB         1.9340    2.6150   20.7960 C.3   320  SER320      0.2089
    141  OG         1.5120    2.5390   19.4370 O.3   320  SER320     -0.2183
    142  N          0.8050    5.2630   24.9270 N.3   331  LEU331     -0.1245
    143  CA         0.5430    6.4380   24.1180 C.3   331  LEU331      0.1561
    144  C         -0.8050    6.1740   23.4720 C.2   331  LEU331      0.2260
    145  O         -0.9490    5.1660   22.7280 O.2   331  LEU331     -0.2867
    146  CB         1.6210    6.6040   23.0370 C.3   331  LEU331      0.0270
    147  CG         1.6230    7.8880   22.1660 C.3   331  LEU331      0.0019
    148  CD1        2.9410    8.0540   21.3840 C.3   331  LEU331      0.0001
    149  CD2        0.4160    8.0480   21.2240 C.3   331  LEU331      0.0001
    150  N         -3.2750    7.0190   20.6960 N.3   333  ALA333     -0.1245
    151  CA        -3.4530    7.7020   19.4150 C.3   333  ALA333      0.1562
    152  C         -4.8910    7.5490   18.8590 C.2   333  ALA333      0.2260
    153  O         -5.4750    6.4510   18.8730 O.2   333  ALA333     -0.2867
    154  CB        -2.3920    7.2080   18.3980 C.3   333  ALA333      0.0290
    155  N         -6.9470    7.8440   15.3170 N.3   335  TYR335     -0.1241
    156  CA        -6.7040    7.8020   13.8760 C.3   335  TYR335      0.1605
    157  C         -7.9300    8.2750   13.1190 C.2   335  TYR335      0.2264
    158  O         -9.0450    7.7880   13.3400 O.2   335  TYR335     -0.2867
    159  CB        -6.3680    6.3760   13.4430 C.3   335  TYR335      0.0534
    160  CG        -4.9250    6.0040   13.6510 C.ar  335  TYR335     -0.0201
    161  CD1       -4.4160    5.7410   14.9280 C.ar  335  TYR335     -0.0009
    162  CD2       -4.0690    5.9430   12.5720 C.ar  335  TYR335     -0.0009
    163  CE1       -3.0600    5.3940   15.1060 C.ar  335  TYR335      0.0417
    164  CE2       -2.7490    5.6070   12.7260 C.ar  335  TYR335      0.0417
    165  CZ        -2.2370    5.3430   13.9900 C.ar  335  TYR335      0.1957
    166  OH        -0.8920    5.0030   14.0760 O.3   335  TYR335     -0.2866
    167  N         -2.4190   12.0850   20.6910 N.3   364  VAL364     -0.1245
    168  CA        -2.1230   12.5420   19.3420 C.3   364  VAL364      0.1561
    169  C         -3.2330   12.1080   18.3710 C.2   364  VAL364      0.2260
    170  O         -3.9390   11.1200   18.6040 O.2   364  VAL364     -0.2867
    171  CB        -0.7070   12.0300   18.8660 C.3   364  VAL364      0.0252
    172  CG1       -0.6920   10.4820   18.7490 C.3   364  VAL364      0.0019
    173  CG2       -0.2500   12.6930   17.5420 C.3   364  VAL364      0.0019
    174  N         -3.5860   10.9830   14.4370 N.3   366  ASN366     -0.1240
    175  CA        -2.7880   10.4620   13.3360 C.3   366  ASN366      0.1653
    176  C         -3.6500   10.2690   12.0890 C.2   366  ASN366      0.2266
    177  O         -4.8260    9.9200   12.1870 O.2   366  ASN366     -0.2867
    178  CB        -2.1900    9.0950   13.7490 C.3   366  ASN366      0.1155
    179  CG        -0.9170    9.2220   14.6040 C.2   366  ASN366      0.2627
    180  OD1       -0.4510   10.3270   14.9100 O.2   366  ASN366     -0.2716
    181  ND2       -0.3480    8.0800   14.9860 N.am  366  ASN366     -0.0877
    182  N          7.1980    8.6120    8.8330 N.3   387  GLY387     -0.1210
    183  CA         6.5750    7.4010    8.3380 C.3   387  GLY387      0.1956
    184  C          5.8150    7.6300    7.0510 C.2   387  GLY387      0.2612
    185  O          5.3040    8.7500    6.8000 O.2   387  GLY387     -0.2717
    186  N          5.7450    6.5670    6.2480 N.am  388  HIS388     -0.1961
    187  CA         4.9210    6.5340    5.0440 C.3   388  HIS388      0.1787
    188  C          4.0310    5.3060    5.0800 C.2   388  HIS388      0.2620
    189  O          4.4610    4.2500    5.5260 O.2   388  HIS388     -0.2715
    190  CB         5.7970    6.4960    3.7800 C.3   388  HIS388      0.0785
    191  CG         6.7630    7.6420    3.6850 C.ar  388  HIS388      0.0821
    192  ND1        6.5180    8.7630    2.9160 N.ar  388  HIS388     -0.2267
    193  CD2        7.9730    7.8400    4.2620 C.ar  388  HIS388      0.1154
    194  CE1        7.5320    9.6040    3.0260 C.ar  388  HIS388      0.1986
    195  NE2        8.4310    9.0660    3.8330 N.ar  388  HIS388     -0.2212
    196  N          2.7820    5.4590    4.6500 N.am  389  LEU389     -0.1977
    197  CA         1.9360    4.3070    4.3610 C.3   389  LEU389      0.1596
    198  C          1.9350    4.0060    2.8550 C.2   389  LEU389      0.2287
    199  O          1.6330    4.8630    2.0510 O.2   389  LEU389     -0.2864
    200  CB         0.5190    4.5080    4.8930 C.3   389  LEU389      0.0297
    201  CG        -0.3380    3.2360    4.8920 C.3   389  LEU389      0.0022
    202  CD1        0.1910    2.1680    5.9020 C.3   389  LEU389      0.0001
    203  CD2       -1.8360    3.5360    5.1250 C.3   389  LEU389      0.0001
    204  N         -7.1000    1.7990    6.1780 N.3   410  MET410     -0.1230
    205  CA        -6.7650    0.5000    6.7050 C.3   410  MET410      0.1702
    206  C         -6.5360    0.5890    8.2070 C.2   410  MET410      0.2592
    207  O         -6.0770    1.6250    8.6960 O.2   410  MET410     -0.2718
    208  CB        -5.6180   -0.1530    5.9340 C.3   410  MET410      0.0401
    209  CG        -6.1200   -0.7520    4.6080 C.3   410  MET410      0.0596
    210  SD        -5.2610   -2.2440    4.0250 S.3   410  MET410     -0.1393
    211  CE        -5.6620   -3.3950    5.3490 C.3   410  MET410      0.0692
    212  N         -6.9340   -0.4510    8.9420 N.am  411  LEU411     -0.1980
    213  CA        -6.9390   -0.3770   10.4190 C.3   411  LEU411      0.1596
    214  C         -5.5890   -0.7030   11.0170 C.2   411  LEU411      0.2287
    215  O         -4.7870   -1.3930   10.3820 O.2   411  LEU411     -0.2864
    216  CB        -8.0190   -1.2820   11.0300 C.3   411  LEU411      0.0297
    217  CG        -9.4260   -0.8820   10.6090 C.3   411  LEU411      0.0022
    218  CD1      -10.4160   -1.8160   11.2480 C.3   411  LEU411      0.0001
    219  CD2       -9.7550    0.5750   10.9580 C.3   411  LEU411      0.0001
@<TRIPOS>BOND
     1   199   198    2
     2   198   197    1
     3    76    78    1
     4    76    75    1
     5   192   194   ar
     6   192   191   ar
     7   194   195   ar
     8    93    91    1
     9    87    88    1
    10    88    91    1
    11    88    89    1
    12    71    72    1
    13   191   190    1
    14   191   193   ar
    15    75    72    1
    16    75    77    1
    17   190   187    1
    18   195   193   ar
    19    91    92    1
    20   210   209    1
    21   210   211    1
    22    94    89   am
    23    94    95    1
    24    97    96    2
    25    89    90    2
    26    98    95    1
    27   197   196    1
    28   197   200    1
    29    72    73    1
    30   209   208    1
    31   196   188   am
    32   201   200    1
    33   201   203    1
    34   201   202    1
    35    95    96    1
    36   187   188    1
    37   187   186    1
    38   188   189    2
    39    96    99   am
    40    74    73    2
    41   102   101    2
    42    73    79   am
    43   101   100    1
    44   208   205    1
    45   204   205    1
    46   186   184   am
    47    99   100    1
    48   103   104    1
    49   205   206    1
    50   185   184    2
    51    79    80    1
    52   184   183    1
    53   104   105    1
    54   104   107    1
    55    80    83    1
    56    80    81    1
    57   106   105    2
    58   206   207    2
    59   206   212   am
    60   112   110   ar
    61   112   113   ar
    62   110   108   ar
    63   183   182    1
    64    83    84    1
    65   114   113    1
    66   212   213    1
    67   113   111   ar
    68   108   107    1
    69   108   109   ar
    70    82    81    2
    71    86    84   am
    72    84    85    2
    73   111   109   ar
    74   215   214    2
    75   213   214    1
    76   213   216    1
    77   217   219    1
    78   217   216    1
    79   217   218    1
    80    12    11    1
    81   115   116    1
    82   176   177    2
    83   176   175    1
    84   124   122   ar
    85   124   123   ar
    86    19    17    1
    87   162   164   ar
    88   162   160   ar
    89    11     9   ar
    90    11    10   ar
    91   122   120   ar
    92   164   165   ar
    93     9     7   ar
    94   123   121   ar
    95   157   158    2
    96   157   156    1
    97    18    17    1
    98   175   178    1
    99   175   174    1
   100    70    69    1
   101   159   160    1
   102   159   156    1
   103   116   117    1
   104   116   119    1
   105   120   121   ar
   106   120   119    1
   107   118   117    2
   108   160   161   ar
   109    17    14    1
   110   178   179    1
   111    10     8   ar
   112   156   155    1
   113     7     6   ar
   114   165   166    1
   115   165   163   ar
   116    57    58   ar
   117    57    55   ar
   118    58    56   ar
   119    23    22    2
   120   179   180    2
   121   179   181   am
   122    69    67   ar
   123    69    68   ar
   124    14    13    1
   125    14    15    1
   126   161   163   ar
   127     8     6   ar
   128     6     5    1
   129    55    53   ar
   130    67    65   ar
   131    31    30    1
   132    31    32    2
   133    13     3   am
   134    30    33    1
   135    30    29    1
   136    68    66   ar
   137    22    29   am
   138    22    21    1
   139    56    54   ar
   140    20    15   am
   141    20    21    1
   142    15    16    2
   143    33    34    1
   144     3     2    1
   145     3     4    2
   146     2     5    1
   147     2     1    1
   148    65    64   ar
   149    53    54   ar
   150    53    52    1
   151    21    24    1
   152    66    64   ar
   153   135   134   ar
   154   135   133   ar
   155    64    63    1
   156    24    25    1
   157    34    36   ar
   158    34    35   ar
   159   134   132   ar
   160    52    49    1
   161   173   171    1
   162   133   131   ar
   163    25    26    1
   164   128   127    2
   165   169   170    2
   166   169   168    1
   167    63    60    1
   168   154   151    1
   169   132   130   ar
   170    26    27   ar
   171    26    28   ar
   172   131   130   ar
   173   172   171    1
   174    48    49    1
   175   152   153    2
   176   152   151    1
   177    49    50    1
   178   171   168    1
   179    40    39    2
   180   130   129    1
   181   127   126    1
   182   168   167    1
   183   151   150    1
   184   141   140    1
   185    44    46   ar
   186    44    42   ar
   187    60    59    1
   188    60    61    1
   189    50    51    2
   190    46    47   ar
   191    39    38    1
   192   126   129    1
   193   126   125    1
   194    41    42    1
   195    41    38    1
   196    42    43   ar
   197    37    38    1
   198    61    62    2
   199   140   137    1
   200    47    45   ar
   201   149   147    1
   202   148   147    1
   203   137   136    1
   204   137   138    1
   205    43    45   ar
   206   147   146    1
   207   145   144    2
   208   146   143    1
   209   138   139    2
   210   144   143    1
   211   143   142    1
