@<TRIPOS>MOLECULE
tmp/4a32A00.pdb
 231 224 0 0 0
SMALL
GASTEIGER

@<TRIPOS>ATOM
      1  N          4.2170   -6.5730   17.4390 N.3    70  TYR70      -0.1227
      2  CA         3.7300   -5.9280   16.2260 C.3    70  TYR70       0.1736
      3  C          4.5630   -4.6690   15.8820 C.2    70  TYR70       0.2595
      4  O          5.6620   -4.4790   16.4080 O.2    70  TYR70      -0.2718
      5  CB         2.2130   -5.6680   16.3070 C.3    70  TYR70       0.0548
      6  CG         1.5070   -5.4470   14.9690 C.ar   70  TYR70      -0.0200
      7  CD1        1.7550   -6.2850   13.8630 C.ar   70  TYR70      -0.0009
      8  CD2        0.5510   -4.4150   14.8250 C.ar   70  TYR70      -0.0009
      9  CE1        1.0870   -6.0790   12.6380 C.ar   70  TYR70       0.0417
     10  CE2       -0.1130   -4.1920   13.6110 C.ar   70  TYR70       0.0417
     11  CZ         0.1480   -5.0170   12.5200 C.ar   70  TYR70       0.1957
     12  OH        -0.5260   -4.7930   11.3130 O.3    70  TYR70      -0.2866
     13  N          4.0520   -3.8300   14.9900 N.am   71  VAL71      -0.1966
     14  CA         4.8010   -2.6750   14.4580 C.3    71  VAL71       0.1727
     15  C          5.3470   -1.7240   15.5420 C.2    71  VAL71       0.2616
     16  O          4.6400   -1.3320   16.4590 O.2    71  VAL71      -0.2715
     17  CB         3.9550   -1.9000   13.3940 C.3    71  VAL71       0.0290
     18  CG1        4.7260   -0.6900   12.8290 C.3    71  VAL71       0.0023
     19  CG2        3.5290   -2.8300   12.2620 C.3    71  VAL71       0.0023
     20  N          6.6340   -1.3970   15.4330 N.am   72  GLU72      -0.1963
     21  CA         7.2520   -0.3810   16.2690 C.3    72  GLU72       0.1733
     22  C          7.6650    0.7850   15.3830 C.2    72  GLU72       0.2616
     23  O          7.7710    0.6220   14.1750 O.2    72  GLU72      -0.2715
     24  CB         8.4770   -0.9610   16.9990 C.3    72  GLU72       0.0429
     25  CG         8.1280   -2.0880   17.9560 C.3    72  GLU72       0.1163
     26  CD         9.3450   -2.7670   18.5760 C.2    72  GLU72       0.3649
     27  OE1       10.4910   -2.3010   18.3700 O.co2  72  GLU72      -0.2457
     28  OE2        9.1460   -3.7710   19.2960 O.co2  72  GLU72      -0.2457
     29  N          7.8920    1.9530   15.9800 N.am   73  ASP73      -0.1971
     30  CA         8.6090    3.0270   15.2980 C.3    73  ASP73       0.1709
     31  C         10.0660    2.6180   15.0730 C.2    73  ASP73       0.2293
     32  O         10.5610    1.6760   15.6960 O.2    73  ASP73      -0.2864
     33  CB         8.5790    4.3170   16.1220 C.3    73  ASP73       0.1436
     34  CG         9.3800    4.1970   17.3950 C.2    73  ASP73       0.3671
     35  OD1        9.0670    3.2790   18.1860 O.co2  73  ASP73      -0.2456
     36  OD2       10.3250    4.9880   17.6150 O.co2  73  ASP73      -0.2456
     37  N          7.8490    3.3290   20.5840 N.3    78  PHE78      -0.1227
     38  CA         6.4180    2.9810   20.5750 C.3    78  PHE78       0.1736
     39  C          6.1290    1.6490   19.8520 C.2    78  PHE78       0.2595
     40  O          6.8150    1.3030   18.8820 O.2    78  PHE78      -0.2718
     41  CB         5.5970    4.1150   19.9400 C.3    78  PHE78       0.0547
     42  CG         6.0040    5.5020   20.3880 C.ar   78  PHE78      -0.0202
     43  CD1        5.6740    5.9580   21.6530 C.ar   78  PHE78      -0.0042
     44  CD2        6.7190    6.3490   19.5260 C.ar   78  PHE78      -0.0042
     45  CE1        6.0420    7.2530   22.0720 C.ar   78  PHE78      -0.0003
     46  CE2        7.0920    7.6270   19.9230 C.ar   78  PHE78      -0.0003
     47  CZ         6.7520    8.0850   21.2080 C.ar   78  PHE78      -0.0000
     48  N          5.1400    0.9000   20.3510 N.am   79  ARG79      -0.1966
     49  CA         4.6440   -0.3060   19.6860 C.3    79  ARG79       0.1729
     50  C          3.1150   -0.2870   19.7740 C.2    79  ARG79       0.2616
     51  O          2.5610    0.0550   20.8110 O.2    79  ARG79      -0.2715
     52  CB         5.2100   -1.5930   20.3060 C.3    79  ARG79       0.0348
     53  CG         4.7890   -2.9240   19.5780 C.3    79  ARG79       0.0492
     54  CD         5.2280   -4.2020   20.3500 C.3    79  ARG79       0.2205
     55  NE         6.6080   -4.0790   20.7540 N.pl3  79  ARG79      -0.0865
     56  CZ         7.0720   -4.0160   22.0020 C.cat  79  ARG79       0.5346
     57  NH1        6.2950   -4.1600   23.0640 N.pl3  79  ARG79       0.1354
     58  NH2        8.3630   -3.8270   22.1670 N.pl3  79  ARG79       0.1354
     59  N          2.4370   -0.6400   18.6900 N.am   80  PHE80      -0.1974
     60  CA         0.9620   -0.6400   18.7150 C.3    80  PHE80       0.1639
     61  C          0.4050   -1.5820   19.7760 C.2    80  PHE80       0.2290
     62  O          0.9660   -2.6540   20.0370 O.2    80  PHE80      -0.2864
     63  CB         0.3610   -0.9620   17.3430 C.3    80  PHE80       0.0560
     64  CG         0.6140    0.0980   16.3080 C.ar   80  PHE80      -0.0200
     65  CD1        0.1610    1.4070   16.4990 C.ar   80  PHE80      -0.0042
     66  CD2        1.2930   -0.2100   15.1250 C.ar   80  PHE80      -0.0042
     67  CE1        0.3980    2.4050   15.5440 C.ar   80  PHE80      -0.0003
     68  CE2        1.5310    0.7880   14.1440 C.ar   80  PHE80      -0.0003
     69  CZ         1.0710    2.0940   14.3550 C.ar   80  PHE80      -0.0000
     70  N         -3.1380   -2.6630   19.9130 N.3    82  TYR82      -0.1241
     71  CA        -4.5420   -2.8620   19.5380 C.3    82  TYR82       0.1605
     72  C         -5.2610   -3.6450   20.6350 C.2    82  TYR82       0.2264
     73  O         -4.7390   -4.6740   21.0650 O.2    82  TYR82      -0.2867
     74  CB        -4.6560   -3.6640   18.2370 C.3    82  TYR82       0.0534
     75  CG        -4.2520   -2.9450   16.9660 C.ar   82  TYR82      -0.0201
     76  CD1       -2.9040   -2.8520   16.5650 C.ar   82  TYR82      -0.0009
     77  CD2       -5.2220   -2.3970   16.1360 C.ar   82  TYR82      -0.0009
     78  CE1       -2.5490   -2.1990   15.3710 C.ar   82  TYR82       0.0417
     79  CE2       -4.8910   -1.7660   14.9280 C.ar   82  TYR82       0.0417
     80  CZ        -3.5730   -1.6620   14.5540 C.ar   82  TYR82       0.1957
     81  OH        -3.2980   -1.0340   13.3540 O.3    82  TYR82      -0.2866
     82  N         -4.2070   -7.8020    6.6970 N.3   157  ASN157     -0.1240
     83  CA        -3.7300   -6.9840    7.8040 C.3   157  ASN157      0.1653
     84  C         -3.0980   -7.8810    8.8770 C.2   157  ASN157      0.2266
     85  O         -3.2300   -9.1240    8.8390 O.2   157  ASN157     -0.2867
     86  CB        -4.8940   -6.1580    8.3840 C.3   157  ASN157      0.1155
     87  CG        -4.4690   -4.7770    8.8830 C.2   157  ASN157      0.2627
     88  OD1       -3.3260   -4.5530    9.2850 O.2   157  ASN157     -0.2716
     89  ND2       -5.4140   -3.8350    8.8590 N.am  157  ASN157     -0.0877
     90  N         -1.4700   -2.7320    2.9890 N.3   193  THR193     -0.1203
     91  CA        -0.5860   -1.5940    3.2040 C.3   193  THR193      0.1994
     92  C          0.5590   -2.0060    4.1100 C.2   193  THR193      0.2618
     93  O          0.4820   -3.0100    4.8190 O.2   193  THR193     -0.2717
     94  CB        -1.2940   -0.4030    3.8870 C.3   193  THR193      0.1784
     95  OG1       -1.8000   -0.8070    5.1730 O.3   193  THR193     -0.2211
     96  CG2       -2.3890    0.1660    3.0070 C.3   193  THR193      0.0376
     97  N          1.6120   -1.2060    4.0800 N.am  194  ALA194     -0.1965
     98  CA         2.8020   -1.4290    4.8810 C.3   194  ALA194      0.1728
     99  C          3.5130   -0.0890    5.0210 C.2   194  ALA194      0.2616
    100  O          3.3880    0.7910    4.1500 O.2   194  ALA194     -0.2715
    101  CB         3.6960   -2.4080    4.2060 C.3   194  ALA194      0.0334
    102  N          4.2510    0.0750    6.1130 N.am  195  GLY195     -0.1955
    103  CA         5.1320    1.2310    6.2460 C.3   195  GLY195      0.1869
    104  C          6.4250    0.9890    5.4800 C.2   195  GLY195      0.2309
    105  O          7.1580    1.9200    5.1570 O.2   195  GLY195     -0.2863
    106  N          2.1550   10.2820    6.7340 N.3   207  TYR207     -0.1241
    107  CA         1.3490   10.4160    7.9370 C.3   207  TYR207      0.1605
    108  C          1.3250   11.8480    8.4490 C.2   207  TYR207      0.2264
    109  O          2.2830   12.5860    8.2760 O.2   207  TYR207     -0.2867
    110  CB         1.8920    9.5100    9.0350 C.3   207  TYR207      0.0534
    111  CG         1.2340    8.1690    9.0610 C.ar  207  TYR207     -0.0201
    112  CD1        0.0090    7.9890    9.6780 C.ar  207  TYR207     -0.0009
    113  CD2        1.8370    7.0650    8.4560 C.ar  207  TYR207     -0.0009
    114  CE1       -0.6090    6.7540    9.6890 C.ar  207  TYR207      0.0417
    115  CE2        1.2290    5.8290    8.4670 C.ar  207  TYR207      0.0417
    116  CZ         0.0080    5.6810    9.0780 C.ar  207  TYR207      0.1957
    117  OH        -0.6080    4.4380    9.0800 O.3   207  TYR207     -0.2866
    118  N         -0.0930   14.3200   11.9640 N.3   209  HIS209     -0.1241
    119  CA        -0.4440   14.2330   13.3920 C.3   209  HIS209      0.1621
    120  C         -0.9270   15.5750   13.9170 C.2   209  HIS209      0.2264
    121  O         -0.4030   16.6080   13.5150 O.2   209  HIS209     -0.2867
    122  CB         0.7800   13.7780   14.1870 C.3   209  HIS209      0.0745
    123  CG         1.4940   12.6350   13.5410 C.ar  209  HIS209      0.0817
    124  ND1        1.0560   11.3330   13.6520 N.ar  209  HIS209     -0.2268
    125  CD2        2.5660   12.6040   12.7140 C.ar  209  HIS209      0.1154
    126  CE1        1.8510   10.5420   12.9530 C.ar  209  HIS209      0.1986
    127  NE2        2.7710   11.2900   12.3670 N.ar  209  HIS209     -0.2212
    128  N          7.2090   11.8300   21.4760 N.3   222  PHE222     -0.1241
    129  CA         6.5170   11.7440   20.2090 C.3   222  PHE222      0.1605
    130  C          6.7840   13.0580   19.4760 C.2   222  PHE222      0.2264
    131  O          7.0390   13.0750   18.2780 O.2   222  PHE222     -0.2867
    132  CB         5.0160   11.5470   20.4500 C.3   222  PHE222      0.0534
    133  CG         4.2010   11.4330   19.1910 C.ar  222  PHE222     -0.0203
    134  CD1        3.6730   12.5700   18.5750 C.ar  222  PHE222     -0.0042
    135  CD2        3.9510   10.1860   18.6180 C.ar  222  PHE222     -0.0042
    136  CE1        2.9080   12.4590   17.4040 C.ar  222  PHE222     -0.0003
    137  CE2        3.1910   10.0740   17.4550 C.ar  222  PHE222     -0.0003
    138  CZ         2.6650   11.2160   16.8520 C.ar  222  PHE222     -0.0000
    139  N         -6.3370    3.4490   18.6220 N.3   318  ILE318     -0.1245
    140  CA        -5.2750    2.4790   18.7780 C.3   318  ILE318      0.1561
    141  C         -4.2650    3.0680   19.7200 C.2   318  ILE318      0.2260
    142  O         -3.5340    3.9860   19.3420 O.2   318  ILE318     -0.2867
    143  CB        -4.5380    2.1150   17.4620 C.3   318  ILE318      0.0252
    144  CG1       -5.5180    1.7650   16.3380 C.3   318  ILE318      0.0019
    145  CG2       -3.5480    0.9610   17.7230 C.3   318  ILE318      0.0019
    146  CD1       -4.8430    1.7070   14.9380 C.3   318  ILE318      0.0001
    147  N         -0.7280    3.0940   21.7650 N.3   320  SER320     -0.1217
    148  CA         0.6000    2.5390   21.5680 C.3   320  SER320      0.1889
    149  C          1.2510    2.4530   22.9280 C.2   320  SER320      0.2288
    150  O          1.1370    3.3790   23.7440 O.2   320  SER320     -0.2866
    151  CB         1.4600    3.3840   20.6230 C.3   320  SER320      0.2089
    152  OG         1.0180    3.2880   19.2710 O.3   320  SER320     -0.2183
    153  N          0.3180    5.7320   24.8210 N.3   331  LEU331     -0.1245
    154  CA        -0.0790    6.8620   23.9910 C.3   331  LEU331      0.1561
    155  C         -1.4900    6.5130   23.5220 C.2   331  LEU331      0.2260
    156  O         -1.7010    5.4350   22.9690 O.2   331  LEU331     -0.2867
    157  CB         0.8550    7.0210   22.7870 C.3   331  LEU331      0.0270
    158  CG         0.9860    8.3620   22.0250 C.3   331  LEU331      0.0019
    159  CD1        1.9700    8.2600   20.8840 C.3   331  LEU331      0.0001
    160  CD2       -0.2950    8.9320   21.5050 C.3   331  LEU331      0.0001
    161  N         -4.0960    7.2660   20.9350 N.3   333  ALA333     -0.1245
    162  CA        -4.2050    7.9160   19.6170 C.3   333  ALA333      0.1562
    163  C         -5.5530    7.6530   18.9430 C.2   333  ALA333      0.2260
    164  O         -6.0310    6.5140   18.9060 O.2   333  ALA333     -0.2867
    165  CB        -3.0400    7.4750   18.7010 C.3   333  ALA333      0.0290
    166  N         -7.5350    7.9530   15.2350 N.3   335  TYR335     -0.1241
    167  CA        -7.2170    7.8980   13.8070 C.3   335  TYR335      0.1605
    168  C         -8.4290    8.3130   12.9850 C.2   335  TYR335      0.2264
    169  O         -9.5230    7.7770   13.1730 O.2   335  TYR335     -0.2867
    170  CB        -6.8050    6.4670   13.4090 C.3   335  TYR335      0.0534
    171  CG        -5.4760    6.0600   13.9930 C.ar  335  TYR335     -0.0201
    172  CD1       -5.3470    5.8300   15.3590 C.ar  335  TYR335     -0.0009
    173  CD2       -4.3520    5.9250   13.1890 C.ar  335  TYR335     -0.0009
    174  CE1       -4.1320    5.4850   15.9210 C.ar  335  TYR335      0.0417
    175  CE2       -3.1090    5.5710   13.7440 C.ar  335  TYR335      0.0417
    176  CZ        -3.0190    5.3540   15.1240 C.ar  335  TYR335      0.1957
    177  OH        -1.8150    5.0100   15.7210 O.3   335  TYR335     -0.2866
    178  N         -4.3080   11.1150   14.3400 N.3   366  ASN366     -0.1240
    179  CA        -3.4730   10.6840   13.2170 C.3   366  ASN366      0.1653
    180  C         -4.2680   10.4450   11.9450 C.2   366  ASN366      0.2266
    181  O         -5.4430   10.0660   11.9960 O.2   366  ASN366     -0.2867
    182  CB        -2.7730    9.3580   13.5450 C.3   366  ASN366      0.1155
    183  CG        -1.8130    9.4730   14.6970 C.2   366  ASN366      0.2627
    184  OD1       -1.2550   10.5380   14.9420 O.2   366  ASN366     -0.2716
    185  ND2       -1.5940    8.3600   15.4110 N.am  366  ASN366     -0.0877
    186  N          7.0810   11.1960   10.3040 N.3   386  ASP386     -0.1225
    187  CA         8.0880   10.3220    9.6720 C.3   386  ASP386      0.1805
    188  C          7.5050    9.2240    8.7910 C.2   386  ASP386      0.2598
    189  O          8.1550    8.7520    7.8530 O.2   386  ASP386     -0.2718
    190  CB         8.9250    9.6320   10.7550 C.3   386  ASP386      0.1424
    191  CG         9.7260   10.6060   11.5710 C.2   386  ASP386      0.3668
    192  OD1       10.3200   11.5360   10.9590 O.co2 386  ASP386     -0.2456
    193  OD2        9.7580   10.4410   12.8200 O.co2 386  ASP386     -0.2456
    194  N          6.2980    8.7900    9.1160 N.am  387  GLY387     -0.1942
    195  CA         5.7490    7.5950    8.4970 C.3   387  GLY387      0.2014
    196  C          5.2490    7.8040    7.0820 C.2   387  GLY387      0.2639
    197  O          4.7480    8.8760    6.7320 O.2   387  GLY387     -0.2714
    198  N          5.3850    6.7620    6.2750 N.am  388  HIS388     -0.1959
    199  CA         4.7930    6.7320    4.9530 C.3   388  HIS388      0.1787
    200  C          4.0250    5.4330    4.8060 C.2   388  HIS388      0.2620
    201  O          4.6120    4.3390    4.9090 O.2   388  HIS388     -0.2715
    202  CB         5.8720    6.8080    3.8850 C.3   388  HIS388      0.0785
    203  CG         6.6380    8.0910    3.8990 C.ar  388  HIS388      0.0821
    204  ND1        6.4380    9.0880    2.9640 N.ar  388  HIS388     -0.2267
    205  CD2        7.5950    8.5470    4.7420 C.ar  388  HIS388      0.1154
    206  CE1        7.2440   10.1000    3.2280 C.ar  388  HIS388      0.1986
    207  NE2        7.9500    9.8020    4.3070 N.ar  388  HIS388     -0.2212
    208  N          2.7190    5.5410    4.5830 N.am  389  LEU389     -0.1977
    209  CA         1.9130    4.3560    4.3410 C.3   389  LEU389      0.1596
    210  C          1.8460    4.0600    2.8300 C.2   389  LEU389      0.2287
    211  O          1.4510    4.9250    2.0390 O.2   389  LEU389     -0.2864
    212  CB         0.5240    4.5070    4.9530 C.3   389  LEU389      0.0297
    213  CG        -0.3350    3.2390    4.8850 C.3   389  LEU389      0.0022
    214  CD1        0.2990    2.1390    5.7460 C.3   389  LEU389      0.0001
    215  CD2       -1.7960    3.5050    5.2720 C.3   389  LEU389      0.0001
    216  N         -7.2790    1.6920    6.0580 N.3   410  MET410     -0.1230
    217  CA        -6.8960    0.3930    6.6390 C.3   410  MET410      0.1702
    218  C         -6.7550    0.5200    8.1510 C.2   410  MET410      0.2592
    219  O         -6.2010    1.4990    8.6520 O.2   410  MET410     -0.2718
    220  CB        -5.5810   -0.1150    6.0510 C.3   410  MET410      0.0401
    221  CG        -5.5900   -0.3010    4.5360 C.3   410  MET410      0.0596
    222  SD        -5.5610   -2.0120    3.9290 S.3   410  MET410     -0.1393
    223  CE        -5.3970   -2.9670    5.4410 C.3   410  MET410      0.0692
    224  N         -7.2630   -0.4740    8.8710 N.am  411  LEU411     -0.1980
    225  CA        -7.2350   -0.4620   10.3310 C.3   411  LEU411      0.1596
    226  C         -5.8640   -0.8760   10.8800 C.2   411  LEU411      0.2287
    227  O         -5.1870   -1.7260   10.2880 O.2   411  LEU411     -0.2864
    228  CB        -8.3760   -1.3310   10.8840 C.3   411  LEU411      0.0297
    229  CG        -9.7740   -0.8980   10.4080 C.3   411  LEU411      0.0022
    230  CD1      -10.8310   -1.8400   10.9400 C.3   411  LEU411      0.0001
    231  CD2      -10.1220    0.5430   10.7780 C.3   411  LEU411      0.0001
@<TRIPOS>BOND
     1   211   210    2
     2   210   209    1
     3   204   206   ar
     4   204   203   ar
     5    90    91    1
     6    96    94    1
     7    91    94    1
     8    91    92    1
     9   206   207   ar
    10   202   203    1
    11   202   199    1
    12    94    95    1
    13   203   205   ar
    14   222   221    1
    15   222   223    1
    16    97    92   am
    17    97    98    1
    18    92    93    2
    19   100    99    2
    20   101    98    1
    21   207   205   ar
    22   209   208    1
    23   209   212    1
    24   221   220    1
    25   208   200   am
    26   200   201    2
    27   200   199    1
    28    98    99    1
    29   213   212    1
    30   213   215    1
    31   213   214    1
    32   199   198    1
    33    99   102   am
    34   105   104    2
    35   104   103    1
    36   220   217    1
    37   216   217    1
    38   102   103    1
    39   198   196   am
    40   217   218    1
    41    82    83    1
    42   197   196    2
    43   106   107    1
    44   196   195    1
    45    83    86    1
    46    83    84    1
    47   189   188    2
    48   107   108    1
    49   107   110    1
    50   218   219    2
    51   218   224   am
    52   109   108    2
    53    86    87    1
    54   113   115   ar
    55   113   111   ar
    56   115   116   ar
    57   195   194    1
    58   188   194   am
    59   188   187    1
    60    85    84    2
    61    89    87   am
    62   224   225    1
    63    87    88    2
    64   110   111    1
    65   111   112   ar
    66   116   117    1
    67   116   114   ar
    68   187   186    1
    69   187   190    1
    70   112   114   ar
    71   227   226    2
    72   225   226    1
    73   225   228    1
    74   229   231    1
    75   229   228    1
    76   229   230    1
    77   190   191    1
    78   192   191   ar
    79    12    11    1
    80   191   193   ar
    81   180   181    2
    82   180   179    1
    83   118   119    1
    84    19    17    1
    85   127   125   ar
    86   127   126   ar
    87    11     9   ar
    88    11    10   ar
    89     9     7   ar
    90   125   123   ar
    91    18    17    1
    92   126   124   ar
    93   168   169    2
    94   168   167    1
    95   173   175   ar
    96   173   171   ar
    97   179   182    1
    98   179   178    1
    99    81    80    1
   100   119   120    1
   101   119   122    1
   102    17    14    1
   103   170   167    1
   104   170   171    1
   105   121   120    2
   106   123   124   ar
   107   123   122    1
   108   182   183    1
   109    10     8   ar
   110   175   176   ar
   111   167   166    1
   112     7     6   ar
   113   171   172   ar
   114    68    69   ar
   115    68    66   ar
   116    23    22    2
   117    69    67   ar
   118    14    13    1
   119    14    15    1
   120    80    79   ar
   121    80    78   ar
   122   183   184    2
   123   183   185   am
   124     8     6   ar
   125    79    77   ar
   126   146   144    1
   127     6     5    1
   128    13     3   am
   129    31    30    1
   130    31    32    2
   131   176   177    1
   132   176   174   ar
   133    66    64   ar
   134    30    29    1
   135    30    33    1
   136   172   174   ar
   137    78    76   ar
   138    22    29   am
   139    22    21    1
   140    20    15   am
   141    20    21    1
   142    15    16    2
   143    67    65   ar
   144     3     2    1
   145     3     4    2
   146    33    34    1
   147    77    75   ar
   148     2     5    1
   149     2     1    1
   150    21    24    1
   151    64    65   ar
   152    64    63    1
   153   144   143    1
   154    76    75   ar
   155   138   136   ar
   156   138   137   ar
   157    75    74    1
   158    24    25    1
   159    63    60    1
   160    34    36   ar
   161    34    35   ar
   162   136   134   ar
   163   137   135   ar
   164   143   145    1
   165   143   140    1
   166    25    26    1
   167    74    71    1
   168   131   130    2
   169    27    26   ar
   170   134   133   ar
   171    26    28   ar
   172   135   133   ar
   173   139   140    1
   174    59    60    1
   175    59    50   am
   176   165   162    1
   177    60    61    1
   178   140   141    1
   179    40    39    2
   180   164   163    2
   181   163   162    1
   182   133   132    1
   183   152   151    1
   184   142   141    2
   185   130   129    1
   186    44    46   ar
   187    44    42   ar
   188    71    70    1
   189    71    72    1
   190    53    52    1
   191    53    54    1
   192   162   161    1
   193    49    50    1
   194    49    52    1
   195    49    48    1
   196    50    51    2
   197    61    62    2
   198    39    48   am
   199    39    38    1
   200    46    47   ar
   201    41    42    1
   202    41    38    1
   203   129   132    1
   204   129   128    1
   205    54    55    1
   206    42    43   ar
   207    38    37    1
   208   151   148    1
   209    72    73    2
   210    55    56    2
   211   159   158    1
   212    47    45   ar
   213   160   158    1
   214   148   147    1
   215   148   149    1
   216    43    45   ar
   217    56    58    1
   218    56    57    1
   219   158   157    1
   220   157   154    1
   221   149   150    2
   222   156   155    2
   223   155   154    1
   224   154   153    1
