@<TRIPOS>MOLECULE
tmp/4a33A00.pdb
 236 227 0 0 0
SMALL
GASTEIGER

@<TRIPOS>ATOM
      1  N          4.0530   -6.7090   17.3420 N.3    70  TYR70      -0.1227
      2  CA         3.5120   -6.0550   16.1780 C.3    70  TYR70       0.1736
      3  C          4.3280   -4.8060   15.8380 C.2    70  TYR70       0.2595
      4  O          5.4800   -4.6870   16.2870 O.2    70  TYR70      -0.2718
      5  CB         2.0010   -5.8160   16.2960 C.3    70  TYR70       0.0548
      6  CG         1.2880   -5.5920   14.9470 C.ar   70  TYR70      -0.0200
      7  CD1        1.6080   -6.3780   13.8130 C.ar   70  TYR70      -0.0009
      8  CD2        0.3180   -4.5890   14.8070 C.ar   70  TYR70      -0.0009
      9  CE1        0.9680   -6.1620   12.5840 C.ar   70  TYR70       0.0417
     10  CE2       -0.3210   -4.3530   13.5790 C.ar   70  TYR70       0.0417
     11  CZ        -0.0080   -5.1380   12.4700 C.ar   70  TYR70       0.1957
     12  OH        -0.6400   -4.8980   11.2540 O.3    70  TYR70      -0.2866
     13  N          3.7860   -3.9060   15.0160 N.am   71  VAL71      -0.1966
     14  CA         4.5900   -2.7810   14.4850 C.3    71  VAL71       0.1727
     15  C          5.2310   -1.8460   15.5510 C.2    71  VAL71       0.2616
     16  O          4.5630   -1.3720   16.4680 O.2    71  VAL71      -0.2715
     17  CB         3.8100   -1.9420   13.4080 C.3    71  VAL71       0.0290
     18  CG1        4.6780   -0.8010   12.8540 C.3    71  VAL71       0.0023
     19  CG2        3.2990   -2.8280   12.2630 C.3    71  VAL71       0.0023
     20  N          6.5430   -1.6320   15.4150 N.am   72  GLU72      -0.1963
     21  CA         7.2890   -0.6400   16.2150 C.3    72  GLU72       0.1733
     22  C          7.8200    0.4740   15.3350 C.2    72  GLU72       0.2616
     23  O          8.3150    0.2150   14.2230 O.2    72  GLU72      -0.2715
     24  CB         8.5020   -1.2720   16.9140 C.3    72  GLU72       0.0429
     25  CG         8.2290   -2.5390   17.6520 C.3    72  GLU72       0.1163
     26  CD         9.3210   -2.9090   18.6150 C.2    72  GLU72       0.3649
     27  OE1       10.4350   -2.4070   18.4850 O.co2  72  GLU72      -0.2457
     28  OE2        9.0730   -3.6900   19.5380 O.co2  72  GLU72      -0.2457
     29  N          7.7860    1.7060   15.8320 N.am   73  ASP73      -0.1957
     30  CA         8.5760    2.7570   15.1930 C.3    73  ASP73       0.1840
     31  C         10.0410    2.2720   15.0500 C.2    73  ASP73       0.2622
     32  O         10.4380    1.2910   15.6760 O.2    73  ASP73      -0.2715
     33  CB         8.5350    4.0230   16.0280 C.3    73  ASP73       0.1450
     34  CG         9.5320    3.9830   17.1490 C.2    73  ASP73       0.3671
     35  OD1        9.3940    3.1080   18.0210 O.co2  73  ASP73      -0.2456
     36  OD2       10.4750    4.7750   17.1510 O.co2  73  ASP73      -0.2456
     37  N         10.8490    2.9680   14.2520 N.am   74  ASP74      -0.1971
     38  CA        12.2580    2.5570   14.0040 C.3    74  ASP74       0.1709
     39  C         13.1750    2.7440   15.2140 C.2    74  ASP74       0.2293
     40  O         14.2560    2.1170   15.3040 O.2    74  ASP74      -0.2864
     41  CB        12.8640    3.4010   12.8910 C.3    74  ASP74       0.1436
     42  CG        11.8510    3.8080   11.8430 C.2    74  ASP74       0.3671
     43  OD1       11.3800    2.9260   11.0890 O.co2  74  ASP74      -0.2456
     44  OD2       11.5430    5.0160   11.7670 O.co2  74  ASP74      -0.2456
     45  N          7.8530    3.2070   20.4460 N.3    78  PHE78      -0.1241
     46  CA         6.4060    2.8380   20.4560 C.3    78  PHE78       0.1605
     47  C          6.0800    1.5360   19.7150 C.2    78  PHE78       0.2264
     48  O          6.7230    1.1930   18.7170 O.2    78  PHE78      -0.2867
     49  CB         5.5410    3.9710   19.8650 C.3    78  PHE78       0.0534
     50  CG         6.0410    5.3690   20.1990 C.ar   78  PHE78      -0.0203
     51  CD1        5.6690    5.9830   21.3710 C.ar   78  PHE78      -0.0042
     52  CD2        6.8970    6.0590   19.3130 C.ar   78  PHE78      -0.0042
     53  CE1        6.1180    7.2880   21.6850 C.ar   78  PHE78      -0.0003
     54  CE2        7.3440    7.3560   19.5970 C.ar   78  PHE78      -0.0003
     55  CZ         6.9570    7.9690   20.7980 C.ar   78  PHE78      -0.0000
     56  N          2.4210   -0.7590   18.5910 N.3    80  PHE80      -0.1241
     57  CA         0.9640   -0.7830   18.5670 C.3    80  PHE80       0.1605
     58  C          0.4140   -1.6870   19.6710 C.2    80  PHE80       0.2264
     59  O          0.9740   -2.7660   19.9450 O.2    80  PHE80      -0.2867
     60  CB         0.4560   -1.2510   17.2010 C.3    80  PHE80       0.0534
     61  CG         0.4120   -0.1600   16.1380 C.ar   80  PHE80      -0.0203
     62  CD1       -0.0250    1.1290   16.4420 C.ar   80  PHE80      -0.0042
     63  CD2        0.7460   -0.4610   14.7960 C.ar   80  PHE80      -0.0042
     64  CE1       -0.0770    2.1220   15.4300 C.ar   80  PHE80      -0.0003
     65  CE2        0.6980    0.5190   13.7870 C.ar   80  PHE80      -0.0003
     66  CZ         0.2820    1.8070   14.0970 C.ar   80  PHE80      -0.0000
     67  N         -3.1150   -2.7030   19.8800 N.3    82  TYR82      -0.1241
     68  CA        -4.5050   -2.9440   19.5080 C.3    82  TYR82       0.1605
     69  C         -5.2530   -3.6980   20.6280 C.2    82  TYR82       0.2264
     70  O         -4.8470   -4.7790   21.0440 O.2    82  TYR82      -0.2867
     71  CB        -4.5490   -3.7760   18.2190 C.3    82  TYR82       0.0534
     72  CG        -4.1760   -3.0600   16.9530 C.ar   82  TYR82      -0.0201
     73  CD1       -2.8560   -3.0140   16.4970 C.ar   82  TYR82      -0.0009
     74  CD2       -5.1380   -2.4420   16.1960 C.ar   82  TYR82      -0.0009
     75  CE1       -2.5310   -2.3780   15.3360 C.ar   82  TYR82       0.0417
     76  CE2       -4.8270   -1.8030   15.0200 C.ar   82  TYR82       0.0417
     77  CZ        -3.5340   -1.7650   14.5910 C.ar   82  TYR82       0.1957
     78  OH        -3.2690   -1.1170   13.3980 O.3    82  TYR82      -0.2866
     79  N         -5.5700   -7.8780    3.3930 N.3   156  ILE156     -0.1231
     80  CA        -4.5880   -8.4820    4.2940 C.3   156  ILE156      0.1692
     81  C         -4.0460   -7.4860    5.3360 C.2   156  ILE156      0.2592
     82  O         -3.7550   -6.3090    5.0360 O.2   156  ILE156     -0.2718
     83  CB        -3.4350   -9.1920    3.5310 C.3   156  ILE156      0.0266
     84  CG1       -3.9690  -10.3830    2.7200 C.3   156  ILE156      0.0019
     85  CG2       -2.3230   -9.6550    4.5050 C.3   156  ILE156      0.0020
     86  CD1       -3.9670  -11.6980    3.4640 C.3   156  ILE156      0.0001
     87  N         -3.9200   -7.9820    6.5630 N.am  157  ASN157     -0.1960
     88  CA        -3.5080   -7.1470    7.6720 C.3   157  ASN157      0.1819
     89  C         -2.9360   -8.0080    8.7930 C.2   157  ASN157      0.2621
     90  O         -3.0180   -9.2350    8.7330 O.2   157  ASN157     -0.2715
     91  CB        -4.6970   -6.2750    8.1550 C.3   157  ASN157      0.1195
     92  CG        -4.2390   -4.9270    8.7870 C.2   157  ASN157      0.2630
     93  OD1       -3.0570   -4.7460    9.1420 O.2   157  ASN157     -0.2716
     94  ND2       -5.1850   -3.9910    8.9400 N.am  157  ASN157     -0.0877
     95  N         -2.3690   -7.3540    9.8040 N.am  158  PHE158     -0.1974
     96  CA        -1.9650   -7.9960   11.0570 C.3   158  PHE158      0.1639
     97  C         -0.9040   -9.1170   10.9240 C.2   158  PHE158      0.2290
     98  O         -0.7940   -9.9750   11.7960 O.2   158  PHE158     -0.2864
     99  CB        -3.2020   -8.4290   11.8590 C.3   158  PHE158      0.0560
    100  CG        -4.0780   -7.2740   12.3080 C.ar  158  PHE158     -0.0200
    101  CD1       -3.6280   -6.3610   13.2550 C.ar  158  PHE158     -0.0042
    102  CD2       -5.3430   -7.0900   11.7800 C.ar  158  PHE158     -0.0042
    103  CE1       -4.4250   -5.2880   13.6780 C.ar  158  PHE158     -0.0003
    104  CE2       -6.1570   -6.0140   12.2090 C.ar  158  PHE158     -0.0003
    105  CZ        -5.6940   -5.1170   13.1620 C.ar  158  PHE158     -0.0000
    106  N         -1.4630   -2.6380    2.9720 N.3   193  THR193     -0.1203
    107  CA        -0.5960   -1.5230    3.2670 C.3   193  THR193      0.1994
    108  C          0.5430   -1.9770    4.1930 C.2   193  THR193      0.2618
    109  O          0.4660   -3.0100    4.8900 O.2   193  THR193     -0.2717
    110  CB        -1.3940   -0.3150    3.8570 C.3   193  THR193      0.1784
    111  OG1       -2.2100   -0.7080    4.9910 O.3   193  THR193     -0.2211
    112  CG2       -2.2550    0.3380    2.7850 C.3   193  THR193      0.0376
    113  N          1.6110   -1.1890    4.2100 N.am  194  ALA194     -0.1965
    114  CA         2.7980   -1.5180    4.9720 C.3   194  ALA194      0.1728
    115  C          3.5480   -0.2070    5.1250 C.2   194  ALA194      0.2616
    116  O          3.3950    0.7300    4.2900 O.2   194  ALA194     -0.2715
    117  CB         3.6130   -2.5130    4.2270 C.3   194  ALA194      0.0334
    118  N          4.3110   -0.1050    6.2140 N.am  195  GLY195     -0.1955
    119  CA         5.1720    1.0470    6.4140 C.3   195  GLY195      0.1869
    120  C          6.4760    0.8860    5.6310 C.2   195  GLY195      0.2309
    121  O          7.1890    1.8750    5.3870 O.2   195  GLY195     -0.2863
    122  N          2.5340   10.4290    6.5770 N.3   207  TYR207     -0.1241
    123  CA         1.7280   10.3880    7.7850 C.3   207  TYR207      0.1605
    124  C          1.5870   11.7880    8.3340 C.2   207  TYR207      0.2264
    125  O          2.4800   12.6030    8.1170 O.2   207  TYR207     -0.2867
    126  CB         2.3900    9.4720    8.8050 C.3   207  TYR207      0.0534
    127  CG         1.6630    8.1740    8.9260 C.ar  207  TYR207     -0.0201
    128  CD1        0.4880    8.0960    9.7150 C.ar  207  TYR207     -0.0009
    129  CD2        2.1090    7.0260    8.2700 C.ar  207  TYR207     -0.0009
    130  CE1       -0.2350    6.8970    9.8380 C.ar  207  TYR207      0.0417
    131  CE2        1.4100    5.8380    8.3700 C.ar  207  TYR207      0.0417
    132  CZ         0.2280    5.7820    9.1530 C.ar  207  TYR207      0.1957
    133  OH        -0.5070    4.6180    9.2750 O.3   207  TYR207     -0.2866
    134  N          0.2240   14.2170   11.9410 N.3   209  HIS209     -0.1241
    135  CA        -0.1450   14.1880   13.3660 C.3   209  HIS209      0.1621
    136  C         -0.6240   15.5280   13.8870 C.2   209  HIS209      0.2264
    137  O         -0.1490   16.5800   13.4580 O.2   209  HIS209     -0.2867
    138  CB         1.0050   13.6770   14.2270 C.3   209  HIS209      0.0745
    139  CG         1.9210   12.7560   13.4940 C.ar  209  HIS209      0.0817
    140  ND1        1.6750   11.3950   13.3730 N.ar  209  HIS209     -0.2268
    141  CD2        3.0540   13.0020   12.7900 C.ar  209  HIS209      0.1154
    142  CE1        2.6390   10.8420   12.6550 C.ar  209  HIS209      0.1986
    143  NE2        3.4810   11.7950   12.2800 N.ar  209  HIS209     -0.2212
    144  N          7.5190   11.6690   21.5230 N.3   222  PHE222     -0.1241
    145  CA         6.8120   11.5980   20.2630 C.3   222  PHE222      0.1605
    146  C          7.1440   12.8530   19.4800 C.2   222  PHE222      0.2264
    147  O          7.3750   12.8040   18.2860 O.2   222  PHE222     -0.2867
    148  CB         5.3200   11.5100   20.4980 C.3   222  PHE222      0.0534
    149  CG         4.5190   11.4640   19.2430 C.ar  222  PHE222     -0.0203
    150  CD1        4.3040   10.2470   18.5840 C.ar  222  PHE222     -0.0042
    151  CD2        3.9650   12.6380   18.7060 C.ar  222  PHE222     -0.0042
    152  CE1        3.5460   10.1860   17.4320 C.ar  222  PHE222     -0.0003
    153  CE2        3.2110   12.6000   17.5450 C.ar  222  PHE222     -0.0003
    154  CZ         2.9930   11.3760   16.9030 C.ar  222  PHE222     -0.0000
    155  N         -0.5530    3.0410   21.6320 N.3   320  SER320     -0.1217
    156  CA         0.7690    2.4390   21.5160 C.3   320  SER320      0.1889
    157  C          1.4170    2.4010   22.8710 C.2   320  SER320      0.2288
    158  O          1.3770    3.3940   23.6230 O.2   320  SER320     -0.2866
    159  CB         1.6860    3.2190   20.5940 C.3   320  SER320      0.2089
    160  OG         1.2350    3.1630   19.2670 O.3   320  SER320     -0.2183
    161  N          0.4700    5.6700   24.7140 N.3   331  LEU331     -0.1245
    162  CA         0.1110    6.7970   23.8430 C.3   331  LEU331      0.1561
    163  C         -1.3080    6.5440   23.3610 C.2   331  LEU331      0.2260
    164  O         -1.5790    5.4690   22.8340 O.2   331  LEU331     -0.2867
    165  CB         1.0520    6.8530   22.6390 C.3   331  LEU331      0.0270
    166  CG         1.3400    8.2110   21.9480 C.3   331  LEU331      0.0019
    167  CD1        2.3090    8.0350   20.7920 C.3   331  LEU331      0.0001
    168  CD2        0.1240    8.9720   21.4950 C.3   331  LEU331      0.0001
    169  N         -3.9760    7.2580   20.8480 N.3   333  ALA333     -0.1245
    170  CA        -4.0310    7.8850   19.5200 C.3   333  ALA333      0.1562
    171  C         -5.3830    7.6970   18.8050 C.2   333  ALA333      0.2260
    172  O         -5.9440    6.5900   18.7910 O.2   333  ALA333     -0.2867
    173  CB        -2.8480    7.3990   18.6530 C.3   333  ALA333      0.0290
    174  N         -7.2820    7.9180   15.1470 N.3   335  TYR335     -0.1241
    175  CA        -7.0450    7.8430   13.6930 C.3   335  TYR335      0.1605
    176  C         -8.2860    8.2630   12.9220 C.2   335  TYR335      0.2264
    177  O         -9.3730    7.7070   13.1020 O.2   335  TYR335     -0.2867
    178  CB        -6.5990    6.4210   13.2620 C.3   335  TYR335      0.0534
    179  CG        -5.2840    6.0530   13.8320 C.ar  335  TYR335     -0.0201
    180  CD1       -5.1410    5.8050   15.2110 C.ar  335  TYR335     -0.0009
    181  CD2       -4.1550    6.0270   13.0380 C.ar  335  TYR335     -0.0009
    182  CE1       -3.8900    5.4930   15.7940 C.ar  335  TYR335      0.0417
    183  CE2       -2.8710    5.7160   13.6010 C.ar  335  TYR335      0.0417
    184  CZ        -2.7570    5.4450   14.9750 C.ar  335  TYR335      0.1957
    185  OH        -1.5040    5.1340   15.5170 O.3   335  TYR335     -0.2866
    186  N         -3.3060   12.5200   20.5660 N.3   364  VAL364     -0.1245
    187  CA        -2.8710   12.8250   19.2030 C.3   364  VAL364      0.1561
    188  C         -3.8900   12.2690   18.2160 C.2   364  VAL364      0.2260
    189  O         -4.5790   11.2750   18.4910 O.2   364  VAL364     -0.2867
    190  CB        -1.3990   12.2960   18.8860 C.3   364  VAL364      0.0252
    191  CG1       -1.3210   10.7890   18.8430 C.3   364  VAL364      0.0019
    192  CG2       -0.8780   12.8500   17.5660 C.3   364  VAL364      0.0019
    193  N         -4.0050   11.0420   14.2570 N.3   366  ASN366     -0.1240
    194  CA        -3.1200   10.5870   13.2060 C.3   366  ASN366      0.1653
    195  C         -3.8950   10.3770   11.9170 C.2   366  ASN366      0.2266
    196  O         -5.0870   10.1310   11.9600 O.2   366  ASN366     -0.2867
    197  CB        -2.5010    9.2570   13.6090 C.3   366  ASN366      0.1155
    198  CG        -1.5250    9.3790   14.7390 C.2   366  ASN366      0.2627
    199  OD1       -0.9710   10.4480   14.9720 O.2   366  ASN366     -0.2716
    200  ND2       -1.2620    8.2580   15.4360 N.am  366  ASN366     -0.0877
    201  N          7.5670   11.2410    9.9060 N.3   386  ASP386     -0.1225
    202  CA         8.5630   10.6430    9.0200 C.3   386  ASP386      0.1805
    203  C          8.0990    9.3200    8.3520 C.2   386  ASP386      0.2598
    204  O          8.7450    8.7820    7.4480 O.2   386  ASP386     -0.2718
    205  CB         9.9330   10.5610    9.7400 C.3   386  ASP386      0.1424
    206  CG         9.8090    9.9900   11.1200 C.2   386  ASP386      0.3668
    207  OD1        8.9690    9.0700   11.2890 O.co2 386  ASP386     -0.2456
    208  OD2       10.5410   10.4550   12.0300 O.co2 386  ASP386     -0.2456
    209  N          6.9550    8.8040    8.7690 N.am  387  GLY387     -0.1957
    210  CA         6.3780    7.6450    8.0350 C.3   387  GLY387      0.1869
    211  C          6.0690    7.8220    6.5270 C.2   387  GLY387      0.2309
    212  O          5.9920    8.9370    5.9910 O.2   387  GLY387     -0.2863
    213  N          3.0550    5.5600    4.5590 N.3   389  LEU389     -0.1245
    214  CA         2.2160    4.4040    4.3380 C.3   389  LEU389      0.1561
    215  C          2.0900    4.1070    2.8220 C.2   389  LEU389      0.2260
    216  O          1.6670    4.9970    2.0260 O.2   389  LEU389     -0.2867
    217  CB         0.8450    4.5970    4.9750 C.3   389  LEU389      0.0270
    218  CG         0.1120    3.2350    4.9580 C.3   389  LEU389      0.0019
    219  CD1        0.8360    2.1720    5.8160 C.3   389  LEU389      0.0001
    220  CD2       -1.3430    3.3360    5.3480 C.3   389  LEU389      0.0001
    221  N         -7.1650    1.6070    6.0500 N.3   410  MET410     -0.1230
    222  CA        -6.8340    0.2660    6.5680 C.3   410  MET410      0.1702
    223  C         -6.5110    0.3850    8.0370 C.2   410  MET410      0.2592
    224  O         -5.7380    1.2480    8.4190 O.2   410  MET410     -0.2718
    225  CB        -5.6530   -0.3720    5.8310 C.3   410  MET410      0.0401
    226  CG        -5.8340   -0.5260    4.3330 C.3   410  MET410      0.0596
    227  SD        -5.8260   -2.2380    3.8260 S.3   410  MET410     -0.1393
    228  CE        -4.2180   -2.7560    4.3310 C.3   410  MET410      0.0692
    229  N         -7.1360   -0.4720    8.8420 N.am  411  LEU411     -0.1980
    230  CA        -7.0650   -0.4320   10.2970 C.3   411  LEU411      0.1596
    231  C         -5.7260   -0.8810   10.8800 C.2   411  LEU411      0.2287
    232  O         -4.9870   -1.7030   10.3280 O.2   411  LEU411     -0.2864
    233  CB        -8.1750   -1.2920   10.8950 C.3   411  LEU411      0.0297
    234  CG        -9.5650   -1.0130   10.3810 C.3   411  LEU411      0.0022
    235  CD1      -10.5200   -1.9610   11.0690 C.3   411  LEU411      0.0001
    236  CD2       -9.8800    0.4050   10.6990 C.3   411  LEU411      0.0001
@<TRIPOS>BOND
     1   216   215    2
     2    84    86    1
     3    84    83    1
     4   112   110    1
     5   215   214    1
     6   106   107    1
     7   107   110    1
     8   107   108    1
     9    79    80    1
    10    83    80    1
    11    83    85    1
    12   227   228    1
    13   227   226    1
    14   110   111    1
    15   108   113   am
    16   108   109    2
    17   113   114    1
    18   117   114    1
    19   116   115    2
    20    80    81    1
    21   226   225    1
    22   214   213    1
    23   214   217    1
    24   218   217    1
    25   218   220    1
    26   218   219    1
    27   114   115    1
    28    82    81    2
    29   115   118   am
    30    81    87   am
    31   121   120    2
    32   120   119    1
    33   225   222    1
    34   212   211    2
    35   221   222    1
    36   118   119    1
    37   211   210    1
    38    87    88    1
    39   222   223    1
    40   122   123    1
    41   204   203    2
    42    88    91    1
    43    88    89    1
    44   123   124    1
    45   123   126    1
    46   210   209    1
    47   223   224    2
    48   223   229   am
    49   125   124    2
    50    91    92    1
    51   129   131   ar
    52   129   127   ar
    53   203   209   am
    54   203   202    1
    55   131   132   ar
    56    90    89    2
    57    92    94   am
    58    92    93    2
    59    89    95   am
    60   126   127    1
    61   229   230    1
    62   127   128   ar
    63   202   205    1
    64   202   201    1
    65   132   133    1
    66   132   130   ar
    67   128   130   ar
    68   205   206    1
    69    95    96    1
    70   230   231    1
    71   230   233    1
    72   232   231    2
    73   234   236    1
    74   234   233    1
    75   234   235    1
    76    97    96    1
    77    97    98    2
    78    96    99    1
    79    43    42   ar
    80   206   207   ar
    81   206   208   ar
    82    12    11    1
    83    44    42   ar
    84   102   104   ar
    85   102   100   ar
    86    42    41    1
    87    99   100    1
    88   195   196    2
    89   195   194    1
    90   134   135    1
    91   104   105   ar
    92    19    17    1
    93   143   142   ar
    94   143   141   ar
    95   100   101   ar
    96    11     9   ar
    97    11    10   ar
    98     9     7   ar
    99   142   140   ar
   100   141   139   ar
   101    18    17    1
   102    41    38    1
   103   176   177    2
   104   176   175    1
   105   181   183   ar
   106   181   179   ar
   107   105   103   ar
   108   194   197    1
   109   194   193    1
   110   101   103   ar
   111   178   175    1
   112   178   179    1
   113   135   136    1
   114   135   138    1
   115   140   139   ar
   116    78    77    1
   117    17    14    1
   118   137   136    2
   119   139   138    1
   120    10     8   ar
   121   183   184   ar
   122   197   198    1
   123   175   174    1
   124    65    66   ar
   125    65    63   ar
   126     7     6   ar
   127   179   180   ar
   128    38    37    1
   129    38    39    1
   130    66    64   ar
   131    23    22    2
   132    37    31   am
   133    14    13    1
   134    14    15    1
   135    77    76   ar
   136    77    75   ar
   137   198   199    2
   138   198   200   am
   139    63    61   ar
   140     8     6   ar
   141     6     5    1
   142   184   185    1
   143   184   182   ar
   144    13     3   am
   145    76    74   ar
   146    31    30    1
   147    31    32    2
   148    30    29    1
   149    30    33    1
   150   180   182   ar
   151    39    40    2
   152    22    29   am
   153    22    21    1
   154    75    73   ar
   155    20    15   am
   156    20    21    1
   157    64    62   ar
   158    15    16    2
   159     3     2    1
   160     3     4    2
   161    33    34    1
   162    61    62   ar
   163    61    60    1
   164     2     5    1
   165     2     1    1
   166    74    72   ar
   167    21    24    1
   168    73    72   ar
   169   154   152   ar
   170   154   153   ar
   171    24    25    1
   172    72    71    1
   173    34    36   ar
   174    34    35   ar
   175    60    57    1
   176   152   150   ar
   177   153   151   ar
   178   192   190    1
   179    25    26    1
   180   188   189    2
   181   188   187    1
   182    71    68    1
   183   147   146    2
   184    27    26   ar
   185    57    56    1
   186    57    58    1
   187   150   149   ar
   188    26    28   ar
   189   173   170    1
   190   151   149   ar
   191    48    47    2
   192   172   171    2
   193   171   170    1
   194   191   190    1
   195   190   187    1
   196   187   186    1
   197   149   148    1
   198   160   159    1
   199    52    54   ar
   200    52    50   ar
   201   146   145    1
   202    68    67    1
   203    68    69    1
   204   170   169    1
   205    54    55   ar
   206    58    59    2
   207    47    46    1
   208    49    50    1
   209    49    46    1
   210    50    51   ar
   211   145   148    1
   212   145   144    1
   213    45    46    1
   214   159   156    1
   215    69    70    2
   216   167   166    1
   217    55    53   ar
   218    51    53   ar
   219   168   166    1
   220   156   155    1
   221   156   157    1
   222   166   165    1
   223   165   162    1
   224   164   163    2
   225   157   158    2
   226   163   162    1
   227   162   161    1
