@<TRIPOS>MOLECULE
tmp/4a34I00.pdb
 102 98 0 0 0
SMALL
GASTEIGER

@<TRIPOS>ATOM
      1  N         11.9980   -0.0720   -3.9480 N.3    29  ASP29      -0.1239
      2  CA        12.6390    0.8690   -4.8570 C.3    29  ASP29       0.1674
      3  C         13.4100    1.9460   -4.0980 C.2    29  ASP29       0.2266
      4  O         13.2550    2.0910   -2.8890 O.2    29  ASP29      -0.2867
      5  CB        11.6400    1.4600   -5.8710 C.3    29  ASP29       0.1410
      6  CG        10.5930    2.3950   -5.2420 C.2    29  ASP29       0.3668
      7  OD1       10.8980    3.1620   -4.2940 O.co2  29  ASP29      -0.2456
      8  OD2        9.4470    2.3800   -5.7410 O.co2  29  ASP29      -0.2456
      9  N         13.2810    5.0170   -3.5460 N.3    31  ASN31      -0.1225
     10  CA        12.5700    6.0170   -2.7570 C.3    31  ASN31       0.1785
     11  C         11.8630    5.4220   -1.5450 C.2    31  ASN31       0.2597
     12  O         11.3560    6.1540   -0.6910 O.2    31  ASN31      -0.2718
     13  CB        11.5570    6.7510   -3.6360 C.3    31  ASN31       0.1169
     14  CG        12.2140    7.6900   -4.6240 C.2    31  ASN31       0.2627
     15  OD1       12.6140    8.8050   -4.2720 O.2    31  ASN31      -0.2716
     16  ND2       12.3200    7.2490   -5.8750 N.am   31  ASN31      -0.0877
     17  N         11.8310    4.0950   -1.4730 N.am   32  TYR32      -0.1963
     18  CA        11.0890    3.3920   -0.4290 C.3    32  TYR32       0.1756
     19  C         11.7280    3.5570    0.9680 C.2    32  TYR32       0.2461
     20  O         12.9420    3.7400    1.0690 O.2    32  TYR32      -0.2730
     21  CB        10.9240    1.9120   -0.8100 C.3    32  TYR32       0.0574
     22  CG         9.9340    1.1960    0.0650 C.ar   32  TYR32      -0.0198
     23  CD1        8.5600    1.3130   -0.1620 C.ar   32  TYR32      -0.0009
     24  CD2       10.3670    0.4360    1.1550 C.ar   32  TYR32      -0.0009
     25  CE1        7.6520    0.6870    0.6660 C.ar   32  TYR32       0.0417
     26  CE2        9.4630   -0.1910    1.9920 C.ar   32  TYR32       0.0417
     27  CZ         8.1120   -0.0670    1.7440 C.ar   32  TYR32       0.1957
     28  OH         7.2260   -0.7000    2.5770 O.3    32  TYR32      -0.2866
     29  N         10.9130    3.5300    2.0490 N.am   33  PRO33      -0.2727
     30  CA        11.4860    3.5440    3.4060 C.3    33  PRO33       0.1402
     31  C         12.0040    2.1760    3.8730 C.2    33  PRO33       0.2269
     32  O         11.5920    1.6760    4.9230 O.2    33  PRO33      -0.2865
     33  CB        10.3110    4.0060    4.2750 C.3    33  PRO33       0.0296
     34  CG         9.1030    3.6230    3.5000 C.3    33  PRO33       0.0237
     35  CD         9.4620    3.7930    2.0710 C.3    33  PRO33       0.0939
     36  N          2.2820   -1.5130   -5.1770 N.3    73  MET73      -0.1245
     37  CA         1.8070   -0.3760   -4.4050 C.3    73  MET73       0.1570
     38  C          1.0170    0.5330   -5.3260 C.2    73  MET73       0.2261
     39  O          1.5770    1.0970   -6.2660 O.2    73  MET73      -0.2867
     40  CB         2.9760    0.3900   -3.7810 C.3    73  MET73       0.0387
     41  CG         2.5700    1.6880   -3.0770 C.3    73  MET73       0.0595
     42  SD         3.9620    2.6770   -2.4920 S.3    73  MET73      -0.1393
     43  CE         4.4590    1.7440   -1.0430 C.3    73  MET73       0.0692
     44  N         -0.8570   10.8400   -9.6620 N.3    79  ASP79      -0.1239
     45  CA         0.3640   10.1940  -10.1200 C.3    79  ASP79       0.1674
     46  C         -0.0070    9.2850  -11.2720 C.2    79  ASP79       0.2266
     47  O         -1.1620    8.8800  -11.4080 O.2    79  ASP79      -0.2867
     48  CB         1.0110    9.3630   -9.0160 C.3    79  ASP79       0.1410
     49  CG         1.4540   10.1970   -7.8360 C.2    79  ASP79       0.3668
     50  OD1        1.6120   11.4290   -7.9740 O.co2  79  ASP79      -0.2456
     51  OD2        1.6480    9.6080   -6.7590 O.co2  79  ASP79      -0.2456
     52  N         -0.6420    2.7300   -0.3260 N.3   107  ARG107     -0.1245
     53  CA         0.6760    3.0710    0.2270 C.3   107  ARG107      0.1563
     54  C          0.7800    2.6550    1.6960 C.2   107  ARG107      0.2260
     55  O          1.7180    1.9520    2.0940 O.2   107  ARG107     -0.2867
     56  CB         0.9730    4.5700    0.0740 C.3   107  ARG107      0.0307
     57  CG         2.4550    4.8840   -0.1610 C.3   107  ARG107      0.0489
     58  CD         2.7000    6.3150   -0.6660 C.3   107  ARG107      0.2205
     59  NE         3.3860    7.1340    0.3360 N.pl3 107  ARG107     -0.0865
     60  CZ         2.8290    8.1430    1.0060 C.cat 107  ARG107      0.5346
     61  NH1        1.5610    8.4800    0.7760 N.pl3 107  ARG107      0.1354
     62  NH2        3.5440    8.8230    1.9080 N.pl3 107  ARG107      0.1354
     63  N          3.0890   -0.5060    3.4430 N.3   111  TYR111     -0.1241
     64  CA         4.0940   -0.2670    4.4810 C.3   111  TYR111      0.1605
     65  C          3.9760   -1.3050    5.5870 C.2   111  TYR111      0.2264
     66  O          4.9540   -1.9730    5.9340 O.2   111  TYR111     -0.2867
     67  CB         3.9590    1.1420    5.0740 C.3   111  TYR111      0.0534
     68  CG         4.3910    2.2940    4.1690 C.ar  111  TYR111     -0.0201
     69  CD1        5.1690    2.0780    3.0200 C.ar  111  TYR111     -0.0009
     70  CD2        4.0560    3.6120    4.4920 C.ar  111  TYR111     -0.0009
     71  CE1        5.5750    3.1490    2.2040 C.ar  111  TYR111      0.0417
     72  CE2        4.4600    4.6910    3.6780 C.ar  111  TYR111      0.0417
     73  CZ         5.2160    4.4510    2.5380 C.ar  111  TYR111      0.1957
     74  OH         5.6100    5.5120    1.7430 O.3   111  TYR111     -0.2866
     75  N          9.0510    5.0960  -10.0490 N.3   128  LEU128     -0.1231
     76  CA         8.1040    5.2650   -8.9400 C.3   128  LEU128      0.1693
     77  C          7.1200    4.1060   -8.8130 C.2   128  LEU128      0.2592
     78  O          6.7840    3.4550   -9.8010 O.2   128  LEU128     -0.2718
     79  CB         7.3240    6.5790   -9.0600 C.3   128  LEU128      0.0284
     80  CG         8.0270    7.9390   -9.0480 C.3   128  LEU128      0.0019
     81  CD1        9.2060    7.9650   -8.0780 C.3   128  LEU128      0.0001
     82  CD2        8.4630    8.3430  -10.4610 C.3   128  LEU128      0.0001
     83  N          6.6620    3.8690   -7.5830 N.am  129  TYR129     -0.1976
     84  CA         5.6530    2.8560   -7.2790 C.3   129  TYR129      0.1639
     85  C          6.0590    1.5010   -7.8580 C.2   129  TYR129      0.2290
     86  O          5.2640    0.8170   -8.5140 O.2   129  TYR129     -0.2864
     87  CB         4.2750    3.3090   -7.7800 C.3   129  TYR129      0.0560
     88  CG         3.7400    4.5440   -7.0800 C.ar  129  TYR129     -0.0198
     89  CD1        3.0440    4.4360   -5.8740 C.ar  129  TYR129     -0.0009
     90  CD2        3.9270    5.8220   -7.6200 C.ar  129  TYR129     -0.0009
     91  CE1        2.5510    5.5540   -5.2220 C.ar  129  TYR129      0.0417
     92  CE2        3.4350    6.9570   -6.9710 C.ar  129  TYR129      0.0417
     93  CZ         2.7410    6.8080   -5.7690 C.ar  129  TYR129      0.1957
     94  OH         2.2340    7.9100   -5.1030 O.3   129  TYR129     -0.2866
     95  N          7.6910   -1.0220   -6.1270 N.3   131  ASN131     -0.1240
     96  CA         7.9010   -1.9690   -5.0610 C.3   131  ASN131      0.1653
     97  C          7.0760   -3.2260   -5.2930 C.2   131  ASN131      0.2266
     98  O          5.9650   -3.1430   -5.7950 O.2   131  ASN131     -0.2867
     99  CB         7.5080   -1.3040   -3.7450 C.3   131  ASN131      0.1155
    100  CG         8.2630   -0.0120   -3.5000 C.2   131  ASN131      0.2627
    101  OD1        9.4300   -0.0350   -3.1210 O.2   131  ASN131     -0.2716
    102  ND2        7.6000    1.1220   -3.7090 N.am  131  ASN131     -0.0877
@<TRIPOS>BOND
     1    47    46    2
     2    46    45    1
     3    82    80    1
     4    45    44    1
     5    45    48    1
     6    75    76    1
     7    78    77    2
     8    79    80    1
     9    79    76    1
    10    80    81    1
    11    48    49    1
    12    76    77    1
    13    77    83   am
    14    86    85    2
    15    50    49   ar
    16    85    84    1
    17    49    51   ar
    18    87    84    1
    19    87    88    1
    20    90    88   ar
    21    90    92   ar
    22    83    84    1
    23    88    89   ar
    24    92    93   ar
    25    39    38    2
    26    95    96    1
    27    16    14   am
    28    89    91   ar
    29     5     6    1
    30     5     2    1
    31    98    97    2
    32    93    91   ar
    33    93    94    1
    34     8     6   ar
    35    38    37    1
    36    97    96    1
    37     6     7   ar
    38    36    37    1
    39    96    99    1
    40     2     3    1
    41     2     1    1
    42    14    15    2
    43    14    13    1
    44    37    40    1
    45     3     4    2
    46    40    41    1
    47    99   100    1
    48   102   100   am
    49    13    10    1
    50     9    10    1
    51   100   101    2
    52    41    42    1
    53    10    11    1
    54    42    43    1
    55    11    17   am
    56    11    12    2
    57    17    18    1
    58    21    18    1
    59    21    22    1
    60    58    57    1
    61    58    59    1
    62    18    19    1
    63    52    53    1
    64    23    22   ar
    65    23    25   ar
    66    57    56    1
    67    22    24   ar
    68    56    53    1
    69    53    54    1
    70    59    60    2
    71    25    27   ar
    72    61    60    1
    73    19    20    2
    74    19    29   am
    75    60    62    1
    76    24    26   ar
    77    54    55    2
    78    74    73    1
    79    27    26   ar
    80    27    28    1
    81    29    35    1
    82    29    30    1
    83    35    34    1
    84    71    73   ar
    85    71    69   ar
    86    73    72   ar
    87    69    68   ar
    88    30    31    1
    89    30    33    1
    90    63    64    1
    91    34    33    1
    92    72    70   ar
    93    31    32    2
    94    68    70   ar
    95    68    67    1
    96    64    67    1
    97    64    65    1
    98    65    66    2
