@<TRIPOS>MOLECULE
tmp/4a36B00.pdb
 169 158 0 0 0
SMALL
GASTEIGER

@<TRIPOS>ATOM
      1  N        -94.6010   -1.5470    9.7450 N.3     1  THR1       -0.1203
      2  CA       -95.5300   -0.4070    9.4620 C.3     1  THR1        0.1994
      3  C        -96.4150   -0.0770   10.6620 C.2     1  THR1        0.2618
      4  O        -96.4700   -0.8430   11.6200 O.2     1  THR1       -0.2717
      5  CB       -96.4530   -0.7040    8.2680 C.3     1  THR1        0.1784
      6  OG1      -97.4770   -1.6320    8.6580 O.3     1  THR1       -0.2211
      7  CG2      -95.6510   -1.2640    7.0940 C.3     1  THR1        0.0376
      8  N        -97.1170    1.0570   10.5910 N.am    2  LYS2       -0.1965
      9  CA       -97.9290    1.5540   11.7100 C.3     2  LYS2        0.1728
     10  C        -99.2640    0.8300   11.7430 C.2     2  LYS2        0.2616
     11  O       -100.2620    1.3500   11.2570 O.2     2  LYS2       -0.2715
     12  CB       -98.1560    3.0710   11.5990 C.3     2  LYS2        0.0311
     13  CG       -96.9040    3.9190   11.7950 C.3     2  LYS2        0.0038
     14  CD       -97.0380    5.2950   11.1500 C.3     2  LYS2        0.0206
     15  CE       -95.9440    6.2650   11.5970 C.3     2  LYS2        0.1093
     16  NZ       -96.1380    7.6230   11.0090 N.3     2  LYS2       -0.1314
     17  N        -99.2630   -0.3750   12.3070 N.am    3  LYS3       -0.1977
     18  CA      -100.4680   -1.2040   12.4280 C.3     3  LYS3        0.1596
     19  C       -101.1000   -1.0010   13.7890 C.2     3  LYS3        0.2287
     20  O       -100.3970   -0.9720   14.7910 O.2     3  LYS3       -0.2864
     21  CB      -100.1160   -2.6840   12.2670 C.3     3  LYS3        0.0298
     22  CG      -101.3180   -3.6160   12.2940 C.3     3  LYS3        0.0038
     23  CD      -100.9280   -5.0390   11.9290 C.3     3  LYS3        0.0206
     24  CE      -102.0160   -5.7060   11.1090 C.3     3  LYS3        0.1093
     25  NZ      -101.6320   -7.0830   10.6930 N.3     3  LYS3       -0.1314
     26  N       -102.2220   -1.0370   17.3110 N.3     5  ARG5       -0.1245
     27  CA      -101.7770   -1.8150   18.4580 C.3     5  ARG5        0.1563
     28  C       -102.9920   -2.3240   19.2090 C.2     5  ARG5        0.2260
     29  O       -104.1120   -1.8310   19.0170 O.2     5  ARG5       -0.2867
     30  CB      -100.9100   -0.9730   19.3800 C.3     5  ARG5        0.0307
     31  CG       -99.5980   -0.5720   18.7390 C.3     5  ARG5        0.0489
     32  CD       -98.7940    0.3980   19.5850 C.3     5  ARG5        0.2205
     33  NE       -97.5400    0.7090   18.9110 N.pl3   5  ARG5       -0.0865
     34  CZ       -97.1130    1.9310   18.6260 C.cat   5  ARG5        0.5346
     35  NH1      -97.8180    3.0040   18.9590 N.pl3   5  ARG5        0.1354
     36  NH2      -95.9540    2.0840   18.0000 N.pl3   5  ARG5        0.1354
     37  N       -104.4900    0.0290   21.6320 N.3     8  GLN8       -0.1245
     38  CA      -105.1270    1.1110   20.8770 C.3     8  GLN8        0.1566
     39  C       -106.5300    0.6840   20.4460 C.2     8  GLN8        0.2260
     40  O       -107.4820    1.4610   20.5510 O.2     8  GLN8       -0.2867
     41  CB      -104.2840    1.5430   19.6670 C.3     8  GLN8        0.0367
     42  CG      -103.0490    2.3450   20.0590 C.3     8  GLN8        0.0905
     43  CD      -102.2620    2.9100   18.8750 C.2     8  GLN8        0.2608
     44  OE1     -101.7460    2.1770   18.0330 O.2     8  GLN8       -0.2717
     45  NE2     -102.1420    4.2220   18.8320 N.am    8  GLN8       -0.0878
     46  N        -98.4350    9.6770   27.8650 N.3    27  THR27      -0.1203
     47  CA       -97.9180   10.5830   26.8660 C.3    27  THR27       0.1994
     48  C        -97.1000    9.7820   25.8710 C.2    27  THR27       0.2618
     49  O        -96.0710    9.2010   26.2240 O.2    27  THR27      -0.2717
     50  CB       -97.0900   11.7470   27.4650 C.3    27  THR27       0.1784
     51  OG1      -96.3750   12.4000   26.4070 O.3    27  THR27      -0.2211
     52  CG2      -96.1110   11.2840   28.5450 C.3    27  THR27       0.0376
     53  N        -97.6130    9.7130   24.6440 N.am   28  GLY28      -0.1942
     54  CA       -96.9000    9.0990   23.5200 C.3    28  GLY28       0.2014
     55  C        -97.4910    7.7980   23.0140 C.2    28  GLY28       0.2640
     56  O        -97.0780    7.2780   21.9710 O.2    28  GLY28      -0.2714
     57  N        -98.4690    7.2790   23.7410 N.am   29  SER29      -0.1935
     58  CA       -99.0340    5.9780   23.4360 C.3    29  SER29       0.2055
     59  C        -99.7760    5.9100   22.1190 C.2    29  SER29       0.2644
     60  O       -100.1050    4.8190   21.6700 O.2    29  SER29      -0.2714
     61  CB       -99.9730    5.5390   24.5550 C.3    29  SER29       0.2130
     62  OG      -100.8940    6.5660   24.8990 O.3    29  SER29      -0.2179
     63  N       -100.0590    7.0600   21.5130 N.am   30  GLY30      -0.1939
     64  CA      -100.7620    7.0980   20.2240 C.3    30  GLY30       0.2014
     65  C       -102.2650    7.2840   20.3500 C.2    30  GLY30       0.2639
     66  O       -103.0680    6.6480   19.6450 O.2    30  GLY30      -0.2714
     67  N       -102.6450    8.1680   21.2580 N.am   31  LYS31      -0.1963
     68  CA      -104.0460    8.4790   21.4600 C.3    31  LYS31       0.1728
     69  C       -104.6540    9.0220   20.1480 C.2    31  LYS31       0.2617
     70  O       -105.8120    8.7330   19.8180 O.2    31  LYS31      -0.2715
     71  CB      -104.1940    9.4900   22.6050 C.3    31  LYS31       0.0311
     72  CG      -103.7650    8.9980   23.9800 C.3    31  LYS31       0.0038
     73  CD      -103.6320   10.1760   24.9320 C.3    31  LYS31       0.0206
     74  CE      -102.2250   10.7650   24.9630 C.3    31  LYS31       0.1093
     75  NZ      -102.1880   12.2200   24.6150 N.3    31  LYS31      -0.1314
     76  N       -103.8530    9.7910   19.4010 N.am   32  THR32      -0.1937
     77  CA      -104.2970   10.4000   18.1400 C.3    32  THR32       0.2028
     78  C       -104.7770    9.3450   17.1370 C.2    32  THR32       0.2642
     79  O       -105.7340    9.5730   16.3930 O.2    32  THR32      -0.2714
     80  CB      -103.1840   11.2600   17.4970 C.3    32  THR32       0.1808
     81  OG1     -102.6720   12.1880   18.4660 O.3    32  THR32      -0.2208
     82  CG2     -103.7270   12.0250   16.3060 C.3    32  THR32       0.0379
     83  N       -104.1090    8.1940   17.1320 N.am   33  PHE33      -0.1973
     84  CA      -104.5040    7.0810   16.2650 C.3    33  PHE33       0.1639
     85  C       -105.8260    6.4620   16.7290 C.2    33  PHE33       0.2290
     86  O       -106.7280    6.1970   15.9310 O.2    33  PHE33      -0.2864
     87  CB      -103.3840    6.0260   16.2180 C.3    33  PHE33       0.0560
     88  CG      -103.5700    4.9590   15.1670 C.ar   33  PHE33      -0.0200
     89  CD1     -104.3850    5.1470   14.0550 C.ar   33  PHE33      -0.0042
     90  CD2     -102.9190    3.7530   15.2950 C.ar   33  PHE33      -0.0042
     91  CE1     -104.5440    4.1590   13.0980 C.ar   33  PHE33      -0.0003
     92  CE2     -103.0720    2.7580   14.3390 C.ar   33  PHE33      -0.0003
     93  CZ      -103.8910    2.9590   13.2410 C.ar   33  PHE33      -0.0000
     94  N       -101.8170   17.8970   14.0780 N.3    67  GLN67      -0.1245
     95  CA      -102.9330   16.9600   14.0380 C.3    67  GLN67       0.1566
     96  C       -103.7360   17.1520   12.7550 C.2    67  GLN67       0.2260
     97  O       -104.1730   16.1840   12.1540 O.2    67  GLN67      -0.2867
     98  CB      -103.8330   17.0780   15.2820 C.3    67  GLN67       0.0367
     99  CG      -103.1400   16.9930   16.6560 C.3    67  GLN67       0.0905
    100  CD      -102.2490   15.7720   16.8780 C.2    67  GLN67       0.2608
    101  OE1     -101.1900   15.6400   16.2520 O.2    67  GLN67      -0.2717
    102  NE2     -102.6470   14.9010   17.8170 N.am   67  GLN67      -0.0878
    103  N       -108.2580   17.3710   21.9260 N.3   133  ASP133     -0.1225
    104  CA      -106.8870   16.8890   22.2020 C.3   133  ASP133      0.1805
    105  C       -106.3550   17.6770   23.3930 C.2   133  ASP133      0.2597
    106  O       -106.5810   18.8890   23.5180 O.2   133  ASP133     -0.2718
    107  CB      -105.9340   16.9680   20.9810 C.3   133  ASP133      0.1424
    108  CG      -104.7700   15.9350   21.0480 C.2   133  ASP133      0.3668
    109  OD1     -105.0380   14.7200   21.1970 O.co2 133  ASP133     -0.2456
    110  OD2     -103.5830   16.3300   20.9270 O.co2 133  ASP133     -0.2456
    111  N       -105.6650   16.9550   24.2700 N.am  134  GLU134     -0.1979
    112  CA      -105.2250   17.4790   25.5470 C.3   134  GLU134      0.1602
    113  C       -106.4670   18.0720   26.2060 C.2   134  GLU134      0.2287
    114  O       -106.5230   19.2430   26.5410 O.2   134  GLU134     -0.2864
    115  CB      -104.0620   18.4760   25.3700 C.3   134  GLU134      0.0415
    116  CG      -102.9740   18.0310   24.3720 C.3   134  GLU134      0.1163
    117  CD      -102.2470   16.7170   24.7190 C.2   134  GLU134      0.3649
    118  OE1     -101.2090   16.7820   25.4130 O.co2 134  GLU134     -0.2457
    119  OE2     -102.6700   15.6240   24.2570 O.co2 134  GLU134     -0.2457
    120  N        -98.7680   17.8920   23.4470 N.3   434  GLY434     -0.1225
    121  CA       -99.2750   17.2060   22.2560 C.3   434  GLY434      0.1811
    122  C        -98.3520   17.0270   21.0640 C.2   434  GLY434      0.2280
    123  O        -98.6480   16.2370   20.1840 O.2   434  GLY434     -0.2866
    124  N        -95.2580   16.1210   18.5340 N.3   436  ASP436     -0.1239
    125  CA       -94.6280   14.8160   18.2910 C.3   436  ASP436      0.1674
    126  C        -93.3100   14.9130   17.4950 C.2   436  ASP436      0.2266
    127  O        -93.3200   14.8620   16.2620 O.2   436  ASP436     -0.2867
    128  CB       -95.6590   13.9440   17.5530 C.3   436  ASP436      0.1410
    129  CG       -95.1750   12.5240   17.2650 C.2   436  ASP436      0.3668
    130  OD1      -94.3360   11.9650   18.0200 O.co2 436  ASP436     -0.2456
    131  OD2      -95.6820   11.9600   16.2740 O.co2 436  ASP436     -0.2456
    132  N        -90.5760   12.8050   16.6850 N.3   438  VAL438     -0.1245
    133  CA       -90.2770   11.3840   16.8310 C.3   438  VAL438      0.1561
    134  C        -88.8290   11.1970   17.2550 C.2   438  VAL438      0.2260
    135  O        -88.5420   10.5250   18.2460 O.2   438  VAL438     -0.2867
    136  CB       -90.5600   10.5990   15.5380 C.3   438  VAL438      0.0252
    137  CG1      -90.0620    9.1670   15.6640 C.3   438  VAL438      0.0019
    138  CG2      -92.0530   10.6130   15.2240 C.3   438  VAL438      0.0019
    139  N        -96.5720   16.3620   30.7650 N.3   457  GLN457     -0.1245
    140  CA       -96.6900   16.5920   29.3270 C.3   457  GLN457      0.1566
    141  C        -95.3700   17.0250   28.7310 C.2   457  GLN457      0.2260
    142  O        -95.0920   16.7310   27.5710 O.2   457  GLN457     -0.2867
    143  CB       -97.7680   17.6440   29.0280 C.3   457  GLN457      0.0367
    144  CG       -99.1900   17.1690   29.2980 C.3   457  GLN457      0.0905
    145  CD       -99.6900   16.1450   28.2830 C.2   457  GLN457      0.2608
    146  OE1      -99.0140   15.8480   27.2870 O.2   457  GLN457     -0.2717
    147  NE2     -100.8880   15.5980   28.5280 N.am  457  GLN457     -0.0878
    148  N        -92.5620   15.0580   25.7420 N.3   461  ARG461     -0.1245
    149  CA       -92.0850   15.5370   24.4510 C.3   461  ARG461      0.1563
    150  C        -90.9340   14.6750   23.9660 C.2   461  ARG461      0.2260
    151  O        -90.7000   14.5760   22.7640 O.2   461  ARG461     -0.2867
    152  CB       -91.6360   16.9960   24.5110 C.3   461  ARG461      0.0307
    153  CG       -92.7440   18.0040   24.7770 C.3   461  ARG461      0.0489
    154  CD       -94.0280   17.7110   24.0080 C.3   461  ARG461      0.2205
    155  NE       -95.0450   17.0530   24.8290 N.pl3 461  ARG461     -0.0865
    156  CZ       -95.9080   16.1370   24.3920 C.cat 461  ARG461      0.5346
    157  NH1      -95.8810   15.7130   23.1320 N.pl3 461  ARG461      0.1354
    158  NH2      -96.8010   15.6140   25.2290 N.pl3 461  ARG461      0.1354
    159  N        -89.6710   11.3860   22.9400 N.3   463  ARG463     -0.1245
    160  CA       -90.2500   10.1630   22.4010 C.3   463  ARG463      0.1563
    161  C        -89.1510    9.1310   22.1030 C.2   463  ARG463      0.2260
    162  O        -88.0100    9.2490   22.5610 O.2   463  ARG463     -0.2867
    163  CB       -91.0470   10.4960   21.1170 C.3   463  ARG463      0.0307
    164  CG       -92.5590   10.6220   21.2860 C.3   463  ARG463      0.0489
    165  CD       -92.9960   12.0590   21.5290 C.3   463  ARG463      0.2205
    166  NE       -94.2510   12.1300   22.2780 N.pl3 463  ARG463     -0.0865
    167  CZ       -95.4690   12.1620   21.7460 C.cat 463  ARG463      0.5346
    168  NH1      -95.6420   12.1300   20.4340 N.pl3 463  ARG463      0.1354
    169  NH2      -96.5330   12.2280   22.5380 N.pl3 463  ARG463      0.1354
@<TRIPOS>BOND
     1     7     5    1
     2     5     6    1
     3     5     2    1
     4     2     1    1
     5     2     3    1
     6     8     3   am
     7     8     9    1
     8     3     4    2
     9    25    24    1
    10    16    15    1
    11    24    23    1
    12    14    15    1
    13    14    13    1
    14    11    10    2
    15    12     9    1
    16    12    13    1
    17     9    10    1
    18    10    17   am
    19    23    22    1
    20    97    96    2
    21    21    22    1
    22    21    18    1
    23    17    18    1
    24    18    19    1
    25    96    95    1
    26    91    93   ar
    27    91    89   ar
    28    93    92   ar
    29    19    20    2
    30    95    94    1
    31    95    98    1
    32    89    88   ar
    33    92    90   ar
    34    88    90   ar
    35    88    87    1
    36   138   136    1
    37    98    99    1
    38   136   137    1
    39   136   133    1
    40    86    85    2
    41    87    84    1
    42   101   100    2
    43   127   126    2
    44    84    85    1
    45    84    83    1
    46   131   129   ar
    47    82    80    1
    48    79    78    2
    49    99   100    1
    50   132   133    1
    51   133   134    1
    52   100   102   am
    53    83    78   am
    54    78    77    1
    55   134   135    2
    56   129   128    1
    57   129   130   ar
    58    26    27    1
    59   126   125    1
    60    80    77    1
    61    80    81    1
    62   128   125    1
    63    36    34    1
    64    44    43    2
    65    77    76    1
    66   125   124    1
    67    27    28    1
    68    27    30    1
    69    34    33    2
    70    34    35    1
    71    31    30    1
    72    31    32    1
    73    45    43   am
    74    43    42    1
    75    33    32    1
    76    29    28    2
    77    76    69   am
    78    66    65    2
    79    41    42    1
    80    41    38    1
    81    70    69    2
    82    69    68    1
    83   123   122    2
    84    64    65    1
    85    64    63    1
    86    65    67   am
    87   168   167    1
    88    39    40    2
    89    39    38    1
    90    38    37    1
    91   110   108   ar
    92   107   108    1
    93   107   104    1
    94   108   109   ar
    95   122   121    1
    96   163   164    1
    97   163   160    1
    98    67    68    1
    99   164   165    1
   100    68    71    1
   101    63    59   am
   102   165   166    1
   103    60    59    2
   104   167   166    2
   105   167   169    1
   106   103   104    1
   107    56    55    2
   108   161   160    1
   109   161   162    2
   110    59    58    1
   111   104   105    1
   112   121   120    1
   113   160   159    1
   114    71    72    1
   115   151   150    2
   116    55    54    1
   117    55    57   am
   118   157   156    1
   119   105   106    2
   120   105   111   am
   121    58    57    1
   122    58    61    1
   123    54    53    1
   124   150   149    1
   125    72    73    1
   126   154   153    1
   127   154   155    1
   128   119   117   ar
   129   111   112    1
   130   116   117    1
   131   116   115    1
   132   156   155    2
   133   156   158    1
   134   149   152    1
   135   149   148    1
   136   152   153    1
   137    61    62    1
   138    75    74    1
   139    53    48   am
   140   117   118   ar
   141    73    74    1
   142   115   112    1
   143   112   113    1
   144    48    49    2
   145    48    47    1
   146   113   114    2
   147    51    50    1
   148    47    50    1
   149    47    46    1
   150   146   145    2
   151    50    52    1
   152   142   141    2
   153   145   147   am
   154   145   144    1
   155   141   140    1
   156   143   144    1
   157   143   140    1
   158   140   139    1
