@<TRIPOS>MOLECULE
tmp/4a38A00.pdb
 121 114 0 0 0
SMALL
GASTEIGER

@<TRIPOS>ATOM
      1  N         -9.9260   -5.3850    9.0360 N.3   167  HIS167     -0.1241
      2  CA        -9.6480   -4.8560   10.3670 C.3   167  HIS167      0.1621
      3  C        -10.4760   -3.5700   10.4870 C.2   167  HIS167      0.2264
      4  O        -10.1700   -2.5460    9.8590 O.2   167  HIS167     -0.2867
      5  CB        -8.1380   -4.6000   10.5160 C.3   167  HIS167      0.0745
      6  CG        -7.3320   -5.8660   10.5550 C.ar  167  HIS167      0.0817
      7  ND1       -6.0220   -5.9360   10.1310 N.ar  167  HIS167     -0.2268
      8  CD2       -7.6620   -7.1190   10.9570 C.ar  167  HIS167      0.1154
      9  CE1       -5.5840   -7.1770   10.2640 C.ar  167  HIS167      0.1986
     10  NE2       -6.5580   -7.9110   10.7660 N.ar  167  HIS167     -0.2212
     11  N         -9.1810    0.2130   10.7490 N.3   170  GLU170     -0.1245
     12  CA        -8.4120    0.7680    9.6400 C.3   170  GLU170      0.1567
     13  C         -9.2790    1.4490    8.5650 C.2   170  GLU170      0.2260
     14  O         -9.2800    1.0650    7.3900 O.2   170  GLU170     -0.2867
     15  CB        -7.5400   -0.3520    9.0450 C.3   170  GLU170      0.0388
     16  CG        -6.3830   -0.7860    9.9850 C.3   170  GLU170      0.1160
     17  CD        -5.7840   -2.1500    9.6360 C.2   170  GLU170      0.3649
     18  OE1       -5.9060   -2.6060    8.4680 O.co2 170  GLU170     -0.2457
     19  OE2       -5.1800   -2.7800   10.5400 O.co2 170  GLU170     -0.2457
     20  N         -9.6080   -4.4960   15.7760 N.3   218  ARG218     -0.1245
     21  CA        -9.1230   -5.6990   15.1130 C.3   218  ARG218      0.1563
     22  C        -10.0440   -6.8400   14.6970 C.2   218  ARG218      0.2260
     23  O         -9.8590   -7.4390   13.6310 O.2   218  ARG218     -0.2867
     24  CB        -8.0290   -6.2840   16.0100 C.3   218  ARG218      0.0307
     25  CG        -7.1390   -7.3260   15.3760 C.3   218  ARG218      0.0489
     26  CD        -6.0970   -6.6610   14.4990 C.3   218  ARG218      0.2205
     27  NE        -5.2620   -7.6600   13.8580 N.pl3 218  ARG218     -0.0865
     28  CZ        -4.3280   -7.3820   12.9590 C.cat 218  ARG218      0.5346
     29  NH1       -4.1080   -6.1200   12.5960 N.pl3 218  ARG218      0.1354
     30  NH2       -3.6360   -8.3690   12.4010 N.pl3 218  ARG218      0.1354
     31  N         -8.1780  -11.5040    9.1920 N.3   227  ASN227     -0.1225
     32  CA        -6.9980  -11.7470    8.3920 C.3   227  ASN227      0.1785
     33  C         -6.0800  -12.8040    8.9860 C.2   227  ASN227      0.2597
     34  O         -4.8550  -12.7570    8.8240 O.2   227  ASN227     -0.2718
     35  CB        -6.2270  -10.4520    8.1480 C.3   227  ASN227      0.1169
     36  CG        -5.4580  -10.4990    6.8490 C.2   227  ASN227      0.2627
     37  OD1       -5.8380  -11.2120    5.9220 O.2   227  ASN227     -0.2716
     38  ND2       -4.3920   -9.7360    6.7660 N.am  227  ASN227     -0.0877
     39  N         -6.6980  -13.7550    9.6790 N.am  228  ARG228     -0.1979
     40  CA        -6.0190  -14.8850   10.2870 C.3   228  ARG228      0.1597
     41  C         -6.9500  -16.0800   10.0760 C.2   228  ARG228      0.2287
     42  O         -6.6960  -17.1740   10.5740 O.2   228  ARG228     -0.2864
     43  CB        -5.8100  -14.6620   11.7950 C.3   228  ARG228      0.0334
     44  CG        -4.7540  -13.6290   12.1640 C.3   228  ARG228      0.0492
     45  CD        -3.3500  -14.0460   11.7270 C.3   228  ARG228      0.2205
     46  NE        -2.3620  -13.0430   12.1140 N.pl3 228  ARG228     -0.0865
     47  CZ        -2.2370  -11.8450   11.5480 C.cat 228  ARG228      0.5346
     48  NH1       -3.0330  -11.4800   10.5510 N.pl3 228  ARG228      0.1354
     49  NH2       -1.3140  -11.0030   11.9860 N.pl3 228  ARG228      0.1354
     50  N         -5.2580   -2.3420    3.8680 N.3   260  HIS260     -0.1226
     51  CA        -5.1780   -2.1650    5.3140 C.3   260  HIS260      0.1752
     52  C         -4.6060   -0.7960    5.6860 C.2   260  HIS260      0.2597
     53  O         -4.3430    0.0470    4.8270 O.2   260  HIS260     -0.2718
     54  CB        -4.2800   -3.2400    5.9470 C.3   260  HIS260      0.0759
     55  CG        -4.7800   -4.6430    5.7900 C.ar  260  HIS260      0.0818
     56  ND1       -5.2100   -5.3980    6.8620 N.ar  260  HIS260     -0.2268
     57  CD2       -4.8620   -5.4520    4.7080 C.ar  260  HIS260      0.1154
     58  CE1       -5.5340   -6.6100    6.4440 C.ar  260  HIS260      0.1986
     59  NE2       -5.3320   -6.6670    5.1420 N.ar  260  HIS260     -0.2212
     60  N         -4.4190   -0.6080    6.9890 N.am  261  GLY261     -0.1942
     61  CA        -3.8540    0.6200    7.5170 C.3   261  GLY261      0.2014
     62  C         -2.8720    0.2200    8.5970 C.2   261  GLY261      0.2639
     63  O         -3.1530   -0.6950    9.3770 O.2   261  GLY261     -0.2714
     64  N         -1.7130    0.8690    8.6520 N.am  262  ASP262     -0.1957
     65  CA        -0.7230    0.5250    9.6750 C.3   262  ASP262      0.1840
     66  C         -0.5450    1.6620   10.6780 C.2   262  ASP262      0.2621
     67  O         -0.2820    2.7980   10.2990 O.2   262  ASP262     -0.2715
     68  CB         0.6340    0.1990    9.0390 C.3   262  ASP262      0.1450
     69  CG         1.6570   -0.2500   10.0710 C.2   262  ASP262      0.3671
     70  OD1        1.5820   -1.4110   10.5270 O.co2 262  ASP262     -0.2456
     71  OD2        2.5180    0.5590   10.4500 O.co2 262  ASP262     -0.2456
     72  N         -0.6630    1.3340   11.9640 N.am  263  GLU263     -0.1977
     73  CA        -0.5440    2.3050   13.0530 C.3   263  GLU263      0.1602
     74  C          0.8480    2.9290   13.2180 C.2   263  GLU263      0.2287
     75  O          0.9860    4.1410   13.4150 O.2   263  GLU263     -0.2864
     76  CB        -0.9610    1.6320   14.3780 C.3   263  GLU263      0.0415
     77  CG        -2.4190    1.1110   14.4120 C.3   263  GLU263      0.1163
     78  CD        -2.6100   -0.2690   13.7810 C.2   263  GLU263      0.3649
     79  OE1       -1.7100   -0.7510   13.0520 O.co2 263  GLU263     -0.2457
     80  OE2       -3.6870   -0.8700   14.0110 O.co2 263  GLU263     -0.2457
     81  N          3.1150   -5.0070    1.0990 N.3   271  ALA271     -0.1245
     82  CA         3.7650   -6.2500    1.4800 C.3   271  ALA271      0.1562
     83  C          3.3910   -7.2730    0.4170 C.2   271  ALA271      0.2260
     84  O          2.2540   -7.2810   -0.0600 O.2   271  ALA271     -0.2867
     85  CB         3.2750   -6.7060    2.8510 C.3   271  ALA271      0.0290
     86  N          7.1800   -3.7350    6.2740 N.3   306  TYR306     -0.1241
     87  CA         7.3830   -4.8240    7.2250 C.3   306  TYR306      0.1605
     88  C          8.6000   -5.6520    6.8170 C.2   306  TYR306      0.2264
     89  O          8.9540   -5.7020    5.6340 O.2   306  TYR306     -0.2867
     90  CB         6.1660   -5.7510    7.2570 C.3   306  TYR306      0.0534
     91  CG         4.8540   -5.1040    7.6460 C.ar  306  TYR306     -0.0201
     92  CD1        4.7670   -4.2660    8.7580 C.ar  306  TYR306     -0.0009
     93  CD2        3.6840   -5.3840    6.9310 C.ar  306  TYR306     -0.0009
     94  CE1        3.5440   -3.7200    9.1550 C.ar  306  TYR306      0.0417
     95  CE2        2.4540   -4.8430    7.3170 C.ar  306  TYR306      0.0417
     96  CZ         2.3910   -4.0140    8.4310 C.ar  306  TYR306      0.1957
     97  OH         1.1750   -3.4870    8.8210 O.3   306  TYR306     -0.2866
     98  N         -3.1880  -15.6410    6.3240 N.3   318  LEU318     -0.1245
     99  CA        -3.2930  -14.2690    5.8140 C.3   318  LEU318      0.1561
    100  C         -3.9210  -14.2570    4.4220 C.2   318  LEU318      0.2260
    101  O         -3.6210  -15.1120    3.5870 O.2   318  LEU318     -0.2867
    102  CB        -1.9090  -13.6240    5.7100 C.3   318  LEU318      0.0270
    103  CG        -1.1980  -13.3080    7.0200 C.3   318  LEU318      0.0019
    104  CD1       -1.3750  -14.4380    8.0370 C.3   318  LEU318      0.0001
    105  CD2        0.2080  -13.0490    6.6850 C.3   318  LEU318      0.0001
    106  N         -0.7050   -6.7090    0.1770 N.3   333  THR333     -0.1218
    107  CA        -1.4670   -6.1240    1.2690 C.3   333  THR333      0.1862
    108  C         -1.0110   -4.6700    1.1470 C.2   333  THR333      0.2287
    109  O          0.1840   -4.3780    1.2250 O.2   333  THR333     -0.2866
    110  CB        -1.0860   -6.6830    2.6560 C.3   333  THR333      0.1770
    111  OG1       -1.3330   -8.0910    2.7060 O.3   333  THR333     -0.2211
    112  CG2       -1.8900   -6.0190    3.7040 C.3   333  THR333      0.0375
    113  N         -0.7570   -0.8970    2.4990 N.3   335  GLU335     -0.1245
    114  CA        -0.7710   -0.2540    3.7990 C.3   335  GLU335      0.1567
    115  C         -0.7140    1.2600    3.7450 C.2   335  GLU335      0.2260
    116  O          0.1990    1.8370    3.1640 O.2   335  GLU335     -0.2867
    117  CB         0.4010   -0.7590    4.6420 C.3   335  GLU335      0.0388
    118  CG         0.4000   -2.2460    4.9280 C.3   335  GLU335      0.1160
    119  CD        -0.4660   -2.6060    6.0950 C.2   335  GLU335      0.3649
    120  OE1       -1.1150   -1.7020    6.6660 O.co2 335  GLU335     -0.2457
    121  OE2       -0.4930   -3.7980    6.4460 O.co2 335  GLU335     -0.2457
@<TRIPOS>BOND
     1    84    83    2
     2   106   107    1
     3    83    82    1
     4    81    82    1
     5   108   109    2
     6   108   107    1
     7   107   110    1
     8    82    85    1
     9   113   114    1
    10   110   111    1
    11   110   112    1
    12   116   115    2
    13   101   100    2
    14   115   114    1
    15   114   117    1
    16    50    51    1
    17   100    99    1
    18   117   118    1
    19    57    59   ar
    20    57    55   ar
    21    53    52    2
    22   118   119    1
    23    59    58   ar
    24    51    52    1
    25    51    54    1
    26    89    88    2
    27    52    60   am
    28   102    99    1
    29   102   103    1
    30    55    54    1
    31    55    56   ar
    32    99    98    1
    33    37    36    2
    34   119   121   ar
    35   119   120   ar
    36    86    87    1
    37    58    56   ar
    38   105   103    1
    39    38    36   am
    40    88    87    1
    41    36    35    1
    42    93    95   ar
    43    93    91   ar
    44    60    61    1
    45   103   104    1
    46    87    90    1
    47    90    91    1
    48    95    96   ar
    49    14    13    2
    50    61    62    1
    51    91    92   ar
    52    35    32    1
    53    32    33    1
    54    32    31    1
    55    96    97    1
    56    96    94   ar
    57    18    17   ar
    58    13    12    1
    59    62    64   am
    60    62    63    2
    61    64    65    1
    62    92    94   ar
    63    34    33    2
    64    33    39   am
    65     1     2    1
    66    68    65    1
    67    68    69    1
    68    15    12    1
    69    15    16    1
    70    17    16    1
    71    17    19   ar
    72    12    11    1
    73    65    66    1
    74    39    40    1
    75     4     3    2
    76    69    71   ar
    77    69    70   ar
    78    41    40    1
    79    41    42    2
    80     7     9   ar
    81     7     6   ar
    82     9    10   ar
    83    40    43    1
    84    67    66    2
    85     2     3    1
    86     2     5    1
    87     5     6    1
    88    48    47    1
    89     6     8   ar
    90    66    72   am
    91    10     8   ar
    92    47    49    1
    93    47    46    2
    94    45    46    1
    95    45    44    1
    96    43    44    1
    97    72    73    1
    98    30    28    1
    99    29    28    1
   100    28    27    2
   101    79    78   ar
   102    73    74    1
   103    73    76    1
   104    74    75    2
   105    23    22    2
   106    78    80   ar
   107    78    77    1
   108    27    26    1
   109    76    77    1
   110    26    25    1
   111    22    21    1
   112    21    20    1
   113    21    24    1
   114    25    24    1
