@<TRIPOS>MOLECULE
tmp/4a39A00.pdb
 147 139 0 0 0
SMALL
GASTEIGER

@<TRIPOS>ATOM
      1  N         -2.9780   -1.6090   19.7420 N.3    64  TYR64      -0.1241
      2  CA        -1.6780   -1.1630   19.2570 C.3    64  TYR64       0.1605
      3  C         -1.3070    0.1350   19.9650 C.2    64  TYR64       0.2264
      4  O         -1.1490    1.1860   19.3390 O.2    64  TYR64      -0.2867
      5  CB        -1.7540   -0.9660   17.7400 C.3    64  TYR64       0.0534
      6  CG        -2.3260   -2.1790   17.0380 C.ar   64  TYR64      -0.0201
      7  CD1       -1.6270   -3.3850   17.0130 C.ar   64  TYR64      -0.0009
      8  CD2       -3.5900   -2.1400   16.4520 C.ar   64  TYR64      -0.0009
      9  CE1       -2.1760   -4.5300   16.4250 C.ar   64  TYR64       0.0417
     10  CE2       -4.1480   -3.2770   15.8620 C.ar   64  TYR64       0.0417
     11  CZ        -3.4340   -4.4670   15.8550 C.ar   64  TYR64       0.1957
     12  OH        -3.9810   -5.6010   15.2890 O.3    64  TYR64      -0.2866
     13  N        -10.8450   -5.3200    8.3100 N.3   167  HIS167     -0.1241
     14  CA       -10.7680   -4.8250    9.6840 C.3   167  HIS167      0.1621
     15  C        -11.5630   -3.5220    9.6430 C.2   167  HIS167      0.2264
     16  O        -11.1440   -2.5460    9.0200 O.2   167  HIS167     -0.2867
     17  CB        -9.3050   -4.5990   10.0660 C.3   167  HIS167      0.0745
     18  CG        -8.5150   -5.8690   10.1380 C.ar  167  HIS167      0.0817
     19  ND1       -7.2730   -6.0120    9.5590 N.ar  167  HIS167     -0.2268
     20  CD2       -8.7990   -7.0610   10.7140 C.ar  167  HIS167      0.1154
     21  CE1       -6.8260   -7.2360    9.7730 C.ar  167  HIS167      0.1986
     22  NE2       -7.7330   -7.8940   10.4710 N.ar  167  HIS167     -0.2212
     23  N        -10.2540    0.2850    9.8560 N.3   170  GLU170     -0.1245
     24  CA        -9.3440    0.8040    8.8350 C.3   170  GLU170      0.1567
     25  C        -10.1010    1.4790    7.6990 C.2   170  GLU170      0.2260
     26  O        -10.0370    1.0660    6.5420 O.2   170  GLU170     -0.2867
     27  CB        -8.4540   -0.3460    8.3400 C.3   170  GLU170      0.0388
     28  CG        -7.4660   -0.8020    9.4210 C.3   170  GLU170      0.1160
     29  CD        -6.8990   -2.1930    9.1980 C.2   170  GLU170      0.3649
     30  OE1       -6.8060   -2.6280    8.0290 O.co2 170  GLU170     -0.2457
     31  OE2       -6.5300   -2.8450   10.2040 O.co2 170  GLU170     -0.2457
     32  N        -11.2060   -4.3180   14.9150 N.3   218  ARG218     -0.1245
     33  CA       -10.6470   -5.5370   14.3550 C.3   218  ARG218      0.1563
     34  C        -11.5180   -6.6960   13.8860 C.2   218  ARG218      0.2260
     35  O        -11.2160   -7.3280   12.8680 O.2   218  ARG218     -0.2867
     36  CB        -9.6700   -6.0810   15.3970 C.3   218  ARG218      0.0307
     37  CG        -8.7360   -7.1610   14.9230 C.3   218  ARG218      0.0489
     38  CD        -7.6020   -6.5530   14.1470 C.3   218  ARG218      0.2205
     39  NE        -6.7340   -7.5880   13.6090 N.pl3 218  ARG218     -0.0865
     40  CZ        -5.7330   -7.3630   12.7680 C.cat 218  ARG218      0.5346
     41  NH1       -5.4610   -6.1250   12.3640 N.pl3 218  ARG218      0.1354
     42  NH2       -5.0190   -8.3830   12.3140 N.pl3 218  ARG218      0.1354
     43  N         -9.1800  -11.4450    8.7420 N.3   227  ASN227     -0.1225
     44  CA        -7.9400  -11.7220    8.0430 C.3   227  ASN227      0.1785
     45  C         -7.0970  -12.8240    8.6700 C.2   227  ASN227      0.2597
     46  O         -5.8850  -12.8960    8.4540 O.2   227  ASN227     -0.2718
     47  CB        -7.1080  -10.4570    7.8470 C.3   227  ASN227      0.1169
     48  CG        -6.2250  -10.5580    6.6230 C.2   227  ASN227      0.2627
     49  OD1       -6.6310  -11.1330    5.6100 O.2   227  ASN227     -0.2716
     50  ND2       -5.0260  -10.0070    6.7000 N.am  227  ASN227     -0.0877
     51  N         -7.7530  -13.6760    9.4520 N.am  228  ARG228     -0.1979
     52  CA        -7.1110  -14.8360   10.0610 C.3   228  ARG228      0.1597
     53  C         -8.0490  -16.0180    9.8010 C.2   228  ARG228      0.2287
     54  O         -7.8720  -17.0980   10.3620 O.2   228  ARG228     -0.2864
     55  CB        -6.9350  -14.6510   11.5730 C.3   228  ARG228      0.0334
     56  CG        -5.9530  -13.5600   11.9700 C.3   228  ARG228      0.0492
     57  CD        -4.5300  -13.9060   11.5680 C.3   228  ARG228      0.2205
     58  NE        -3.5990  -12.8700   12.0070 N.pl3 228  ARG228     -0.0865
     59  CZ        -3.4900  -11.6740   11.4350 C.cat 228  ARG228      0.5346
     60  NH1       -4.2450  -11.3600   10.3890 N.pl3 228  ARG228      0.1354
     61  NH2       -2.6430  -10.7770   11.9260 N.pl3 228  ARG228      0.1354
     62  N         -5.7750   -2.3920    3.5030 N.3   260  HIS260     -0.1226
     63  CA        -5.7340   -2.2150    4.9590 C.3   260  HIS260      0.1752
     64  C         -5.1390   -0.8670    5.3780 C.2   260  HIS260      0.2597
     65  O         -4.7540   -0.0450    4.5510 O.2   260  HIS260     -0.2718
     66  CB        -4.8540   -3.2970    5.6000 C.3   260  HIS260      0.0759
     67  CG        -5.4090   -4.6860    5.5190 C.ar  260  HIS260      0.0818
     68  ND1       -5.9140   -5.3460    6.6190 N.ar  260  HIS260     -0.2268
     69  CD2       -5.4900   -5.5600    4.4880 C.ar  260  HIS260      0.1154
     70  CE1       -6.2800   -6.5660    6.2700 C.ar  260  HIS260      0.1986
     71  NE2       -6.0330   -6.7220    4.9820 N.ar  260  HIS260     -0.2212
     72  N         -5.0550   -0.6790    6.6920 N.am  261  GLY261     -0.1942
     73  CA        -4.4730    0.5260    7.2550 C.3   261  GLY261      0.2014
     74  C         -3.6110    0.1170    8.4350 C.2   261  GLY261      0.2639
     75  O         -3.9780   -0.7930    9.1800 O.2   261  GLY261     -0.2714
     76  N         -2.4590    0.7650    8.6040 N.am  262  ASP262     -0.1957
     77  CA        -1.5680    0.4430    9.7130 C.3   262  ASP262      0.1840
     78  C         -1.4830    1.6190   10.6740 C.2   262  ASP262      0.2621
     79  O         -1.1990    2.7450   10.2750 O.2   262  ASP262     -0.2715
     80  CB        -0.1640    0.1010    9.2140 C.3   262  ASP262      0.1450
     81  CG         0.7380   -0.4020   10.3300 C.2   262  ASP262      0.3671
     82  OD1        0.6010   -1.5760   10.7300 O.co2 262  ASP262     -0.2456
     83  OD2        1.5700    0.3880   10.8230 O.co2 262  ASP262     -0.2456
     84  N         -1.7220    1.3310   11.9490 N.am  263  GLU263     -0.1977
     85  CA        -1.7150    2.3370   13.0020 C.3   263  GLU263      0.1602
     86  C         -0.3480    2.9360   13.3100 C.2   263  GLU263      0.2287
     87  O         -0.2170    4.1470   13.5120 O.2   263  GLU263     -0.2864
     88  CB        -2.2930    1.7280   14.2940 C.3   263  GLU263      0.0415
     89  CG        -3.7490    1.2500   14.1830 C.3   263  GLU263      0.1163
     90  CD        -3.8940   -0.2000   13.7270 C.2   263  GLU263      0.3649
     91  OE1       -2.9490   -0.7610   13.1350 O.co2 263  GLU263     -0.2457
     92  OE2       -4.9760   -0.7800   13.9520 O.co2 263  GLU263     -0.2457
     93  N          2.7480   -5.2740    1.5860 N.3   271  ALA271     -0.1245
     94  CA         3.3600   -6.4900    2.1180 C.3   271  ALA271      0.1562
     95  C          3.0700   -7.6140    1.1240 C.2   271  ALA271      0.2260
     96  O          1.9090   -7.8590    0.7900 O.2   271  ALA271     -0.2867
     97  CB         2.7690   -6.8270    3.4830 C.3   271  ALA271      0.0290
     98  N          6.3770   -3.9280    6.9030 N.3   306  TYR306     -0.1241
     99  CA         6.5560   -5.0750    7.7820 C.3   306  TYR306      0.1605
    100  C          7.7980   -5.8550    7.3770 C.2   306  TYR306      0.2264
    101  O          8.2200   -5.8210    6.2160 O.2   306  TYR306     -0.2867
    102  CB         5.3430   -6.0130    7.7150 C.3   306  TYR306      0.0534
    103  CG         4.0230   -5.3620    8.0580 C.ar  306  TYR306     -0.0201
    104  CD1        3.9120   -4.4900    9.1410 C.ar  306  TYR306     -0.0009
    105  CD2        2.8810   -5.6260    7.3040 C.ar  306  TYR306     -0.0009
    106  CE1        2.6950   -3.8920    9.4600 C.ar  306  TYR306      0.0417
    107  CE2        1.6590   -5.0360    7.6160 C.ar  306  TYR306      0.0417
    108  CZ         1.5740   -4.1700    8.6930 C.ar  306  TYR306      0.1957
    109  OH         0.3730   -3.5760    8.9970 O.3   306  TYR306     -0.2866
    110  N         -3.8650  -15.4770    6.3910 N.3   318  LEU318     -0.1245
    111  CA        -4.0530  -14.1220    5.8650 C.3   318  LEU318      0.1561
    112  C         -4.4740  -14.1910    4.4040 C.2   318  LEU318      0.2260
    113  O         -3.9700  -15.0160    3.6470 O.2   318  LEU318     -0.2867
    114  CB        -2.7580  -13.3130    5.9620 C.3   318  LEU318      0.0270
    115  CG        -2.3380  -12.7940    7.3400 C.3   318  LEU318      0.0019
    116  CD1       -2.1360  -13.9480    8.3120 C.3   318  LEU318      0.0001
    117  CD2       -1.0500  -11.9920    7.1820 C.3   318  LEU318      0.0001
    118  N         -3.8930  -12.1960    1.7630 N.3   320  CYS320     -0.1221
    119  CA        -2.8400  -11.9870    0.7730 C.3   320  CYS320      0.1808
    120  C         -2.1050  -13.2810    0.4590 C.2   320  CYS320      0.2601
    121  O         -1.9920  -13.6850   -0.6970 O.2   320  CYS320     -0.2717
    122  CB        -1.8390  -10.9420    1.2710 C.3   320  CYS320      0.0970
    123  SG        -0.5030  -10.6130    0.1130 S.3   320  CYS320     -0.0800
    124  N         -1.6120  -13.9370    1.4980 N.am  321  ASN321     -0.1974
    125  CA        -0.8780  -15.1780    1.3260 C.3   321  ASN321      0.1688
    126  C         -1.7280  -16.3370    0.8170 C.2   321  ASN321      0.2292
    127  O         -1.3120  -17.0670   -0.0860 O.2   321  ASN321     -0.2864
    128  CB        -0.2060  -15.5340    2.6440 C.3   321  ASN321      0.1181
    129  CG         0.8560  -14.5250    3.0260 C.2   321  ASN321      0.2629
    130  OD1        1.9730  -14.5600    2.5090 O.2   321  ASN321     -0.2716
    131  ND2        0.5060  -13.5980    3.9100 N.am  321  ASN321     -0.0877
    132  N         -0.8650   -6.9090    0.4000 N.3   333  THR333     -0.1218
    133  CA        -1.7050   -6.3380    1.4320 C.3   333  THR333      0.1862
    134  C         -1.2480   -4.8880    1.2840 C.2   333  THR333      0.2287
    135  O         -0.0570   -4.6130    1.4320 O.2   333  THR333     -0.2866
    136  CB        -1.3280   -6.8260    2.8430 C.3   333  THR333      0.1770
    137  OG1       -1.6230   -8.2260    2.9630 O.3   333  THR333     -0.2211
    138  CG2       -2.1130   -6.0560    3.8870 C.3   333  THR333      0.0375
    139  N         -1.0800   -1.1520    2.6150 N.3   335  GLU335     -0.1245
    140  CA        -1.1920   -0.4980    3.9130 C.3   335  GLU335      0.1567
    141  C         -1.0500    1.0170    3.8690 C.2   335  GLU335      0.2260
    142  O         -0.0180    1.5410    3.4580 O.2   335  GLU335     -0.2867
    143  CB        -0.1320   -1.0580    4.8610 C.3   335  GLU335      0.0388
    144  CG        -0.2460   -2.5450    5.1680 C.3   335  GLU335      0.1160
    145  CD        -1.3840   -2.8700    6.1080 C.2   335  GLU335      0.3649
    146  OE1       -1.9360   -1.9380    6.7330 O.co2 335  GLU335     -0.2457
    147  OE2       -1.7210   -4.0670    6.2330 O.co2 335  GLU335     -0.2457
@<TRIPOS>BOND
     1   121   120    2
     2   127   126    2
     3   123   122    1
     4   132   133    1
     5   120   119    1
     6   120   124   am
     7   119   122    1
     8   119   118    1
     9    96    95    2
    10   126   125    1
    11    95    94    1
    12   134   135    2
    13   134   133    1
    14   125   124    1
    15   125   128    1
    16   133   136    1
    17    93    94    1
    18    94    97    1
    19   130   129    2
    20   139   140    1
    21   128   129    1
    22   136   137    1
    23   136   138    1
    24   129   131   am
    25   142   141    2
    26    62    63    1
    27   113   112    2
    28   141   140    1
    29   140   143    1
    30   112   111    1
    31    69    71   ar
    32    69    67   ar
    33    65    64    2
    34   143   144    1
    35    63    64    1
    36    63    66    1
    37    71    70   ar
    38   144   145    1
    39    64    72   am
    40    67    66    1
    41    67    68   ar
    42    49    48    2
    43   111   114    1
    44   111   110    1
    45   114   115    1
    46   145   147   ar
    47   145   146   ar
    48   101   100    2
    49    70    68   ar
    50    26    25    2
    51    48    50   am
    52    48    47    1
    53    72    73    1
    54    98    99    1
    55   117   115    1
    56    73    74    1
    57   105   107   ar
    58   105   103   ar
    59   115   116    1
    60   100    99    1
    61   107   108   ar
    62    25    24    1
    63   102    99    1
    64   102   103    1
    65    47    44    1
    66    30    29   ar
    67    44    45    1
    68    44    43    1
    69   103   104   ar
    70    13    14    1
    71    27    24    1
    72    27    28    1
    73    74    76   am
    74    74    75    2
    75    46    45    2
    76    76    77    1
    77    45    51   am
    78   108   109    1
    79   108   106   ar
    80    24    23    1
    81    16    15    2
    82   104   106   ar
    83    29    28    1
    84    29    31   ar
    85    80    77    1
    86    80    81    1
    87    51    52    1
    88    19    21   ar
    89    19    18   ar
    90    15    14    1
    91    14    17    1
    92    77    78    1
    93    21    22   ar
    94    53    52    1
    95    53    54    2
    96    52    55    1
    97    17    18    1
    98    18    20   ar
    99    79    78    2
   100    81    82   ar
   101    81    83   ar
   102    60    59    1
   103    22    20   ar
   104    78    84   am
   105    59    61    1
   106    59    58    2
   107    57    56    1
   108    57    58    1
   109    55    56    1
   110    84    85    1
   111    42    40    1
   112    41    40    1
   113    40    39    2
   114    35    34    2
   115    85    86    1
   116    85    88    1
   117    91    90   ar
   118    86    87    2
   119    39    38    1
   120    90    92   ar
   121    90    89    1
   122    34    33    1
   123    38    37    1
   124    89    88    1
   125    33    32    1
   126    33    36    1
   127    37    36    1
   128    12    11    1
   129    11    10   ar
   130    11     9   ar
   131    10     8   ar
   132     9     7   ar
   133     8     6   ar
   134     7     6   ar
   135     6     5    1
   136     5     2    1
   137     2     1    1
   138     2     3    1
   139     4     3    2
