@<TRIPOS>MOLECULE
tmp/4a3hA00.pdb
 185 180 0 0 0
SMALL
GASTEIGER

@<TRIPOS>ATOM
      1  N         62.0130   49.2090   28.4200 N.3    32  HIS32      -0.1241
      2  CA        61.3110   49.0630   29.6950 C.3    32  HIS32       0.1621
      3  C         59.8410   48.9100   29.2950 C.2    32  HIS32       0.2264
      4  O         59.5640   48.5990   28.1180 O.2    32  HIS32      -0.2867
      5  CB        61.6360   50.2310   30.5900 C.3    32  HIS32       0.0745
      6  CG        61.2390   50.1700   32.0240 C.ar   32  HIS32       0.0817
      7  ND1       59.9400   50.1400   32.4800 N.ar   32  HIS32      -0.2268
      8  CD2       62.0470   50.1170   33.1100 C.ar   32  HIS32       0.1154
      9  CE1       59.9750   50.0950   33.8190 C.ar   32  HIS32       0.1986
     10  NE2       61.2420   50.0650   34.2180 N.ar   32  HIS32      -0.2212
     11  N         54.9650   52.9530   29.5140 N.3    36  TRP36      -0.1241
     12  CA        55.5990   53.9980   30.2850 C.3    36  TRP36       0.1605
     13  C         56.7310   54.7100   29.5800 C.2    36  TRP36       0.2264
     14  O         56.9490   55.9080   29.8400 O.2    36  TRP36      -0.2867
     15  CB        56.2240   53.3610   31.5390 C.3    36  TRP36       0.0550
     16  CG        55.2540   52.7740   32.5080 C.ar   36  TRP36       0.0003
     17  CD1       54.0770   53.3140   32.9450 C.ar   36  TRP36       0.0946
     18  CD2       55.4010   51.5120   33.1870 C.ar   36  TRP36       0.0152
     19  NE1       53.4900   52.4640   33.8710 N.ar   36  TRP36      -0.2442
     20  CE2       54.2870   51.3620   34.0330 C.ar   36  TRP36       0.0810
     21  CE3       56.3700   50.5100   33.1840 C.ar   36  TRP36       0.0012
     22  CZ2       54.1040   50.2480   34.8560 C.ar   36  TRP36       0.0191
     23  CZ3       56.2090   49.4180   34.0010 C.ar   36  TRP36       0.0001
     24  CH2       55.0790   49.2880   34.8320 C.ar   36  TRP36       0.0015
     25  N         54.2390   44.9380   28.5480 N.3    63  TYR63      -0.1241
     26  CA        53.5550   44.5220   29.7550 C.3    63  TYR63       0.1605
     27  C         52.0790   44.2970   29.3970 C.2    63  TYR63       0.2264
     28  O         51.4720   45.0370   28.6340 O.2    63  TYR63      -0.2867
     29  CB        53.5960   45.5780   30.8330 C.3    63  TYR63       0.0534
     30  CG        54.7870   45.7070   31.7270 C.ar   63  TYR63      -0.0201
     31  CD1       56.0260   46.1350   31.2700 C.ar   63  TYR63      -0.0009
     32  CD2       54.6510   45.4220   33.0970 C.ar   63  TYR63      -0.0009
     33  CE1       57.0970   46.2870   32.1250 C.ar   63  TYR63       0.0417
     34  CE2       55.7310   45.5780   33.9490 C.ar   63  TYR63       0.0417
     35  CZ        56.9360   46.0130   33.4660 C.ar   63  TYR63       0.1957
     36  OH        58.0000   46.1930   34.3260 O.3    63  TYR63      -0.2866
     37  N         49.6900   46.0970   34.7320 N.3    66  SER66      -0.1217
     38  CA        50.3490   47.3450   35.1010 C.3    66  SER66       0.1889
     39  C         50.1120   48.4760   34.1130 C.2    66  SER66       0.2288
     40  O         51.0140   49.2520   33.7940 O.2    66  SER66      -0.2866
     41  CB        51.8580   47.1010   35.2490 C.3    66  SER66       0.2089
     42  OG        52.0750   46.1350   36.2780 O.3    66  SER66      -0.2183
     43  N         54.7360   40.4960   28.1640 N.3    98  HIS98      -0.1241
     44  CA        55.4570   40.7390   29.4060 C.3    98  HIS98       0.1621
     45  C         54.6030   40.6300   30.6370 C.2    98  HIS98       0.2264
     46  O         54.2200   41.5800   31.3250 O.2    98  HIS98      -0.2867
     47  CB        56.2150   42.0720   29.3140 C.3    98  HIS98       0.0745
     48  CG        57.2950   42.2870   30.3230 C.ar   98  HIS98       0.0817
     49  ND1       58.6280   42.0100   30.0440 N.ar   98  HIS98      -0.2268
     50  CD2       57.2690   42.7880   31.5780 C.ar   98  HIS98       0.1154
     51  CE1       59.3480   42.3250   31.1040 C.ar   98  HIS98       0.1986
     52  NE2       58.5510   42.8080   32.0520 N.ar   98  HIS98      -0.2212
     53  N         53.9300   39.6340   34.5260 N.3   100  LEU100     -0.1231
     54  CA        54.6820   39.8660   35.7560 C.3   100  LEU100      0.1693
     55  C         53.7250   39.8070   36.9270 C.2   100  LEU100      0.2592
     56  O         53.6310   38.7250   37.5360 O.2   100  LEU100     -0.2718
     57  CB        55.4160   41.2150   35.7690 C.3   100  LEU100      0.0284
     58  CG        56.4240   41.4510   36.8990 C.3   100  LEU100      0.0019
     59  CD1       57.5060   40.3870   36.9140 C.3   100  LEU100      0.0001
     60  CD2       57.0350   42.8370   36.7690 C.3   100  LEU100      0.0001
     61  N         52.9810   40.8780   37.2300 N.am  101  SER101     -0.1952
     62  CA        52.0530   40.8150   38.3800 C.3   101  SER101      0.1924
     63  C         50.9270   39.8240   38.1470 C.2   101  SER101      0.2314
     64  O         50.3890   39.1100   39.0390 O.2   101  SER101     -0.2863
     65  CB        51.5960   42.2280   38.7490 C.3   101  SER101      0.2116
     66  OG        52.7320   42.9340   39.3000 O.3   101  SER101     -0.2180
     67  N         56.9350   36.4490   29.6120 N.3   135  ASN135     -0.1225
     68  CA        58.1460   36.9480   30.2530 C.3   135  ASN135      0.1785
     69  C         58.6120   36.1800   31.4780 C.2   135  ASN135      0.2597
     70  O         59.6710   35.5510   31.4950 O.2   135  ASN135     -0.2718
     71  CB        57.9140   38.4220   30.6250 C.3   135  ASN135      0.1169
     72  CG        59.0250   39.0130   31.4730 C.2   135  ASN135      0.2627
     73  OD1       60.2000   38.8930   31.1720 O.2   135  ASN135     -0.2716
     74  ND2       58.5880   39.6280   32.5560 N.am  135  ASN135     -0.0877
     75  N         57.8820   36.3470   32.5720 N.am  136  GLU136     -0.1979
     76  CA        58.2370   35.8350   33.8700 C.3   136  GLU136      0.1602
     77  C         57.1080   35.2620   34.6920 C.2   136  GLU136      0.2287
     78  O         56.5340   35.8730   35.6070 O.2   136  GLU136     -0.2864
     79  CB        58.9160   36.9520   34.7010 C.3   136  GLU136      0.0415
     80  CG        60.3630   37.1840   34.3010 C.3   136  GLU136      0.1163
     81  CD        61.1120   38.2130   35.1130 C.2   136  GLU136      0.3649
     82  OE1       60.4650   38.7560   36.0430 O.co2 136  GLU136     -0.2457
     83  OE2       62.2830   38.4660   34.8140 O.co2 136  GLU136     -0.2457
     84  N         60.1790   33.5560   38.2320 N.3   175  TRP175     -0.1241
     85  CA        60.6270   34.7140   37.4750 C.3   175  TRP175      0.1605
     86  C         61.6630   34.3080   36.4390 C.2   175  TRP175      0.2264
     87  O         62.7520   34.8690   36.2790 O.2   175  TRP175     -0.2867
     88  CB        61.1810   35.8220   38.3620 C.3   175  TRP175      0.0550
     89  CG        60.1350   36.5200   39.2020 C.ar  175  TRP175      0.0003
     90  CD1       59.3120   37.5520   38.8080 C.ar  175  TRP175      0.0946
     91  CD2       59.8250   36.2470   40.5640 C.ar  175  TRP175      0.0152
     92  NE1       58.5020   37.9090   39.8550 N.ar  175  TRP175     -0.2442
     93  CE2       58.8120   37.1330   40.9430 C.ar  175  TRP175      0.0810
     94  CE3       60.3270   35.3320   41.4810 C.ar  175  TRP175      0.0012
     95  CZ2       58.2570   37.1320   42.2240 C.ar  175  TRP175      0.0191
     96  CZ3       59.8010   35.3370   42.7680 C.ar  175  TRP175      0.0001
     97  CH2       58.7700   36.2190   43.1110 C.ar  175  TRP175      0.0015
     98  N         63.6840   31.7080   36.3140 N.3   177  GLN177     -0.1245
     99  CA        64.9340   31.1770   36.8110 C.3   177  GLN177      0.1566
    100  C         64.9460   29.6460   36.7980 C.2   177  GLN177      0.2260
    101  O         66.0130   29.0140   36.7860 O.2   177  GLN177     -0.2867
    102  CB        65.1930   31.6440   38.2600 C.3   177  GLN177      0.0367
    103  CG        65.3650   33.1440   38.3580 C.3   177  GLN177      0.0905
    104  CD        65.5920   33.5470   39.8010 C.2   177  GLN177      0.2608
    105  OE1       66.7230   33.7280   40.2520 O.2   177  GLN177     -0.2717
    106  NE2       64.4710   33.6700   40.5190 N.am  177  GLN177     -0.0878
    107  N         66.5680   34.4700   33.3650 N.3   197  HIS197     -0.1241
    108  CA        66.7770   35.8740   33.7210 C.3   197  HIS197      0.1621
    109  C         67.6130   36.0070   34.9910 C.2   197  HIS197      0.2264
    110  O         67.4070   35.2140   35.9420 O.2   197  HIS197     -0.2867
    111  CB        65.4070   36.5090   33.9550 C.3   197  HIS197      0.0745
    112  CG        64.5360   36.6610   32.7470 C.ar  197  HIS197      0.0817
    113  ND1       63.2800   37.2230   32.7740 N.ar  197  HIS197     -0.2268
    114  CD2       64.7630   36.3260   31.4620 C.ar  197  HIS197      0.1154
    115  CE1       62.8000   37.1970   31.5360 C.ar  197  HIS197      0.1986
    116  NE2       63.6710   36.6540   30.7070 N.ar  197  HIS197     -0.2212
    117  N         69.8600   38.9730   37.7400 N.3   199  TYR199     -0.1241
    118  CA        70.2230   40.3010   38.1910 C.3   199  TYR199      0.1605
    119  C         71.5510   40.1820   38.9320 C.2   199  TYR199      0.2264
    120  O         71.6350   39.3540   39.8670 O.2   199  TYR199     -0.2867
    121  CB        69.1050   40.9460   39.0450 C.3   199  TYR199      0.0534
    122  CG        68.0470   41.4290   38.0730 C.ar  199  TYR199     -0.0201
    123  CD1       68.1890   42.6660   37.4660 C.ar  199  TYR199     -0.0009
    124  CD2       66.9900   40.6240   37.7060 C.ar  199  TYR199     -0.0009
    125  CE1       67.2710   43.1020   36.5230 C.ar  199  TYR199      0.0417
    126  CE2       66.0880   41.0210   36.7280 C.ar  199  TYR199      0.0417
    127  CZ        66.2400   42.2740   36.1640 C.ar  199  TYR199      0.1957
    128  OH        65.3450   42.6850   35.1920 O.3   199  TYR199     -0.2866
    129  N         66.3520   38.5780   29.4400 N.3   225  GLU225     -0.1245
    130  CA        66.3460   39.7500   30.3080 C.3   225  GLU225      0.1567
    131  C         67.3940   39.5830   31.3970 C.2   225  GLU225      0.2260
    132  O         67.3560   38.5560   32.1170 O.2   225  GLU225     -0.2867
    133  CB        64.9470   39.9050   30.9090 C.3   225  GLU225      0.0388
    134  CG        64.7800   41.2550   31.6550 C.3   225  GLU225      0.1160
    135  CD        63.3950   41.2930   32.2680 C.2   225  GLU225      0.3649
    136  OE1       62.3910   41.4760   31.5610 O.co2 225  GLU225     -0.2457
    137  OE2       63.3010   41.1100   33.5120 O.co2 225  GLU225     -0.2457
    138  N         67.5670   42.5100   42.0050 N.3   231  ALA231     -0.1231
    139  CA        66.4020   41.9100   41.3930 C.3   231  ALA231      0.1694
    140  C         65.1730   42.7790   41.2500 C.2   231  ALA231      0.2593
    141  O         64.2870   42.5090   40.4260 O.2   231  ALA231     -0.2718
    142  CB        66.0310   40.6090   42.0910 C.3   231  ALA231      0.0304
    143  N         65.0910   43.8850   41.9580 N.am  232  THR232     -0.1939
    144  CA        64.0440   44.8730   41.8550 C.3   232  THR232      0.2028
    145  C         64.2530   45.7830   40.6460 C.2   232  THR232      0.2642
    146  O         63.3330   46.5560   40.3610 O.2   232  THR232     -0.2714
    147  CB        64.1790   45.7880   43.0960 C.3   232  THR232      0.1808
    148  OG1       65.5060   46.3170   43.1090 O.3   232  THR232     -0.2208
    149  CG2       63.9240   44.9720   44.3610 C.3   232  THR232      0.0379
    150  N         65.4360   45.7490   40.0430 N.am  233  GLY233     -0.1954
    151  CA        65.7730   46.6520   38.9410 C.3   233  GLY233      0.1869
    152  C         66.5030   47.8840   39.4760 C.2   233  GLY233      0.2309
    153  O         66.9300   48.7500   38.7180 O.2   233  GLY233     -0.2863
    154  N         68.2030   44.7210   30.5090 N.3   259  TRP259     -0.1241
    155  CA        67.1130   45.5210   31.0490 C.3   259  TRP259      0.1605
    156  C         67.7290   46.7560   31.7260 C.2   259  TRP259      0.2264
    157  O         68.5250   46.5380   32.6520 O.2   259  TRP259     -0.2867
    158  CB        66.3910   44.7080   32.1340 C.3   259  TRP259      0.0550
    159  CG        65.1670   45.3900   32.6680 C.ar  259  TRP259      0.0003
    160  CD1       65.0740   46.1610   33.7980 C.ar  259  TRP259      0.0946
    161  CD2       63.8470   45.3340   32.1220 C.ar  259  TRP259      0.0152
    162  NE1       63.7920   46.5990   33.9670 N.ar  259  TRP259     -0.2442
    163  CE2       63.0120   46.1170   32.9480 C.ar  259  TRP259      0.0810
    164  CE3       63.2870   44.7370   30.9990 C.ar  259  TRP259      0.0012
    165  CZ2       61.6530   46.2930   32.6840 C.ar  259  TRP259      0.0191
    166  CZ3       61.9430   44.9220   30.7400 C.ar  259  TRP259      0.0001
    167  CH2       61.1270   45.6950   31.5730 C.ar  259  TRP259      0.0015
    168  N         64.6700   56.1810   33.5550 N.3   264  LYS264     -0.1245
    169  CA        64.1210   56.0130   34.8810 C.3   264  LYS264      0.1561
    170  C         65.2220   56.0020   35.9270 C.2   264  LYS264      0.2260
    171  O         66.3150   55.4570   35.7370 O.2   264  LYS264     -0.2867
    172  CB        63.3890   54.6630   34.9870 C.3   264  LYS264      0.0271
    173  CG        62.6050   54.5940   36.2930 C.3   264  LYS264      0.0035
    174  CD        61.7050   53.3640   36.3010 C.3   264  LYS264      0.0206
    175  CE        61.3050   53.1590   37.7540 C.3   264  LYS264      0.1093
    176  NZ        60.0050   52.4800   37.9280 N.3   264  LYS264     -0.1314
    177  N         66.6210   54.4290   38.3350 N.3   266  GLU266     -0.1196
    178  CA        66.8660   53.1250   38.9450 C.3   266  GLU266      0.1783
    179  C         68.1550   52.5930   38.3290 C.2   266  GLU266      0.2306
    180  O         68.4800   52.8720   37.1770 O.2   266  GLU266     -0.2863
    181  CB        65.7050   52.1750   38.7790 C.2   266  GLU266      0.0071
    182  CG        65.4220   51.7080   37.3700 C.2   266  GLU266      0.0834
    183  CD        64.1670   50.9230   37.1880 C.2   266  GLU266      0.3877
    184  OE1       63.3490   50.7590   38.1320 O.co2 266  GLU266     -0.2406
    185  OE2       63.8700   50.4090   36.0720 O.co2 266  GLU266     -0.2406
@<TRIPOS>BOND
     1     4     3    2
     2    43    44    1
     3     1     2    1
     4    25    26    1
     5    28    27    2
     6     3     2    1
     7    47    44    1
     8    47    48    1
     9    27    26    1
    10    44    45    1
    11   129   130    1
    12    11    12    1
    13    13    14    2
    14    13    12    1
    15    67    68    1
    16     2     5    1
    17    26    29    1
    18    49    48   ar
    19    49    51   ar
    20    68    71    1
    21    68    69    1
    22    12    15    1
    23   130   133    1
    24   130   131    1
    25    48    50   ar
    26   154   155    1
    27     5     6    1
    28    71    72    1
    29    45    46    2
    30   116   114   ar
    31   116   115   ar
    32   166   164   ar
    33   166   167   ar
    34    29    30    1
    35   133   134    1
    36   164   161   ar
    37   155   156    1
    38   155   158    1
    39    51    52   ar
    40    73    72    2
    41    31    30   ar
    42    31    33   ar
    43   131   132    2
    44   114   112   ar
    45    72    74   am
    46    69    70    2
    47    69    75   am
    48   115   113   ar
    49    15    16    1
    50   136   135   ar
    51   167   165   ar
    52    50    52   ar
    53   134   135    1
    54   156   157    2
    55    30    32   ar
    56     6     7   ar
    57     6     8   ar
    58   161   159   ar
    59   161   163   ar
    60    33    35   ar
    61   158   159    1
    62   135   137   ar
    63     7     9   ar
    64    16    17   ar
    65    16    18   ar
    66    75    76    1
    67   159   160   ar
    68   165   163   ar
    69   112   113   ar
    70   112   111    1
    71    17    19   ar
    72   163   162   ar
    73    32    34   ar
    74     8    10   ar
    75    21    18   ar
    76    21    23   ar
    77    18    20   ar
    78   107   108    1
    79    35    34   ar
    80    35    36    1
    81   168   169    1
    82   108   111    1
    83   108   109    1
    84    40    39    2
    85   160   162   ar
    86     9    10   ar
    87    76    77    1
    88    76    79    1
    89    19    20   ar
    90    23    24   ar
    91    20    22   ar
    92    39    38    1
    93    80    79    1
    94    80    81    1
    95    53    54    1
    96    77    78    2
    97    37    38    1
    98    83    81   ar
    99    24    22   ar
   100   169   172    1
   101   169   170    1
   102   172   173    1
   103   109   110    2
   104    38    41    1
   105    81    82   ar
   106   128   127    1
   107    41    42    1
   108   171   170    2
   109    54    57    1
   110    54    55    1
   111    57    58    1
   112   185   183   ar
   113   127   125   ar
   114   127   126   ar
   115    87    86    2
   116   173   174    1
   117   174   175    1
   118    98    99    1
   119    86    85    1
   120   125   123   ar
   121   126   124   ar
   122    60    58    1
   123   101   100    2
   124   100    99    1
   125    99   102    1
   126    58    59    1
   127    55    61   am
   128    55    56    2
   129   180   179    2
   130   183   182    1
   131   183   184   ar
   132    61    62    1
   133   182   181    2
   134   123   122   ar
   135    85    84    1
   136    85    88    1
   137   124   122   ar
   138   117   118    1
   139   175   176    1
   140   122   121    1
   141    63    62    1
   142    63    64    2
   143   118   119    1
   144   118   121    1
   145   102   103    1
   146   179   178    1
   147   177   178    1
   148   103   104    1
   149    88    89    1
   150    62    65    1
   151   153   152    2
   152    65    66    1
   153   181   178    1
   154    90    89   ar
   155    90    92   ar
   156   119   120    2
   157   151   152    1
   158   151   150    1
   159    89    91   ar
   160   104   105    2
   161   104   106   am
   162    92    93   ar
   163   150   145   am
   164   146   145    2
   165   141   140    2
   166    91    93   ar
   167    91    94   ar
   168   145   144    1
   169    93    95   ar
   170   140   139    1
   171   140   143   am
   172   139   138    1
   173   139   142    1
   174    94    96   ar
   175   144   143    1
   176   144   147    1
   177    95    97   ar
   178    96    97   ar
   179   147   148    1
   180   147   149    1
