@<TRIPOS>MOLECULE
tmp/4a3qA00.pdb
 122 115 0 0 0
SMALL
GASTEIGER

@<TRIPOS>ATOM
      1  N         38.1410   96.7090   11.3680 N.3    36  VAL36      -0.1245
      2  CA        37.0830   97.2660   12.1930 C.3    36  VAL36       0.1561
      3  C         37.6850   97.9010   13.4530 C.2    36  VAL36       0.2260
      4  O         38.2390   97.2080   14.2740 O.2    36  VAL36      -0.2867
      5  CB        36.0290   96.1960   12.5510 C.3    36  VAL36       0.0252
      6  CG1       34.9580   96.7920   13.4440 C.3    36  VAL36       0.0019
      7  CG2       35.3700   95.6550   11.2730 C.3    36  VAL36       0.0019
      8  N         35.8770  100.2210   15.3700 N.3    38  LYS38      -0.1245
      9  CA        34.7480  100.7570   16.0860 C.3    38  LYS38       0.1561
     10  C         34.9600  100.6290   17.5920 C.2    38  LYS38       0.2260
     11  O         35.8110   99.8510   18.0330 O.2    38  LYS38      -0.2867
     12  CB        33.4770  100.0010   15.6480 C.3    38  LYS38       0.0271
     13  CG        33.3040   98.5750   16.2160 C.3    38  LYS38       0.0035
     14  CD        32.1860   97.7770   15.4290 C.3    38  LYS38       0.0206
     15  CE        31.8750   96.4320   16.1420 C.3    38  LYS38       0.1093
     16  NZ        31.0190   95.5680   15.3070 N.3    38  LYS38      -0.1314
     17  N         37.9010   98.6330   20.0750 N.3    42  TYR42      -0.1241
     18  CA        37.5970   97.6640   21.1430 C.3    42  TYR42       0.1605
     19  C         38.3750   98.0170   22.4070 C.2    42  TYR42       0.2264
     20  O         38.8240   97.1330   23.1490 O.2    42  TYR42      -0.2867
     21  CB        37.9250   96.2320   20.7000 C.3    42  TYR42       0.0534
     22  CG        37.0720   95.7060   19.5480 C.ar   42  TYR42      -0.0201
     23  CD1       36.7990   96.5010   18.4360 C.ar   42  TYR42      -0.0009
     24  CD2       36.5660   94.3950   19.5640 C.ar   42  TYR42      -0.0009
     25  CE1       36.0330   96.0160   17.3750 C.ar   42  TYR42       0.0417
     26  CE2       35.7920   93.9130   18.5270 C.ar   42  TYR42       0.0417
     27  CZ        35.5310   94.7150   17.4310 C.ar   42  TYR42       0.1957
     28  OH        34.7890   94.2440   16.3760 O.3    42  TYR42      -0.2866
     29  N         29.1590  101.5460    9.9870 N.3    84  LEU84      -0.1245
     30  CA        28.3490  100.3110   10.0220 C.3    84  LEU84       0.1561
     31  C         26.9550  100.4890   10.6040 C.2    84  LEU84       0.2260
     32  O         26.0390   99.7530   10.2420 O.2    84  LEU84      -0.2867
     33  CB        29.0580   99.2040   10.8120 C.3    84  LEU84       0.0270
     34  CG        30.4110   98.8110   10.2230 C.3    84  LEU84       0.0019
     35  CD1       31.2080   97.9010   11.1880 C.3    84  LEU84       0.0001
     36  CD2       30.1430   98.1250    8.8950 C.3    84  LEU84       0.0001
     37  N         23.1350   97.3490    3.4820 N.3   130  LYS130     -0.1245
     38  CA        23.1610   96.2530    4.4440 C.3   130  LYS130      0.1561
     39  C         22.0050   95.3240    4.1720 C.2   130  LYS130      0.2260
     40  O         20.8760   95.7470    4.1090 O.2   130  LYS130     -0.2867
     41  CB        23.0540   96.7830    5.8670 C.3   130  LYS130      0.0271
     42  CG        22.8120   95.7250    6.9550 C.3   130  LYS130      0.0035
     43  CD        24.0750   95.0740    7.3990 C.3   130  LYS130      0.0206
     44  CE        23.9370   94.4390    8.7950 C.3   130  LYS130      0.1093
     45  NZ        23.2790   93.0770    8.6880 N.3   130  LYS130     -0.1314
     46  N         26.5950   94.3440    1.8430 N.3   165  PHE165     -0.1241
     47  CA        27.1610   93.5340    2.9020 C.3   165  PHE165      0.1605
     48  C         26.1150   92.9080    3.7910 C.2   165  PHE165      0.2264
     49  O         24.9690   93.3290    3.8010 O.2   165  PHE165     -0.2867
     50  CB        28.2390   94.2900    3.7200 C.3   165  PHE165      0.0534
     51  CG        27.7060   95.3160    4.7130 C.ar  165  PHE165     -0.0203
     52  CD1       27.2740   96.5750    4.2870 C.ar  165  PHE165     -0.0042
     53  CD2       27.7170   95.0390    6.0890 C.ar  165  PHE165     -0.0042
     54  CE1       26.8600   97.5390    5.2270 C.ar  165  PHE165     -0.0003
     55  CE2       27.3040   95.9690    7.0270 C.ar  165  PHE165     -0.0003
     56  CZ        26.8720   97.2410    6.5980 C.ar  165  PHE165     -0.0000
     57  N         25.9160   90.4030    7.7820 N.3   167  HIS167     -0.1241
     58  CA        26.6310   90.0470    9.0050 C.3   167  HIS167      0.1621
     59  C         26.0640   88.7160    9.5090 C.2   167  HIS167      0.2264
     60  O         24.8510   88.5830    9.6730 O.2   167  HIS167     -0.2867
     61  CB        26.4170   91.1520   10.0510 C.3   167  HIS167      0.0745
     62  CG        27.3040   91.0680   11.2620 C.ar  167  HIS167      0.0817
     63  ND1       26.8330   91.2960   12.5420 N.ar  167  HIS167     -0.2268
     64  CD2       28.6400   90.8590   11.3900 C.ar  167  HIS167      0.1154
     65  CE1       27.8320   91.2040   13.4060 C.ar  167  HIS167      0.1986
     66  NE2       28.9390   90.9360   12.7350 N.ar  167  HIS167     -0.2212
     67  N         33.2090   88.6060    9.2500 N.3   195  ASN195     -0.1225
     68  CA        33.8050   89.1910   10.4440 C.3   195  ASN195      0.1785
     69  C         35.1010   88.3880   10.7860 C.2   195  ASN195      0.2597
     70  O         35.6230   87.6770    9.9180 O.2   195  ASN195     -0.2718
     71  CB        32.7550   89.1880   11.5980 C.3   195  ASN195      0.1169
     72  CG        32.1650   87.7570   11.8990 C.2   195  ASN195      0.2627
     73  OD1       32.6310   86.7130   11.3480 O.2   195  ASN195     -0.2716
     74  ND2       31.1440   87.7090   12.7990 N.am  195  ASN195     -0.0877
     75  N         35.6380   88.5050   12.0100 N.am  196  SER196     -0.1952
     76  CA        36.8640   87.7600   12.3840 C.3   196  SER196      0.1924
     77  C         36.6660   86.2330   12.2060 C.2   196  SER196      0.2314
     78  O         37.4750   85.5770   11.5770 O.2   196  SER196     -0.2863
     79  CB        37.2720   88.0460   13.8300 C.3   196  SER196      0.2116
     80  OG        37.6820   89.3860   14.0370 O.3   196  SER196     -0.2180
     81  N         35.9600   91.9510    7.0940 N.3   211  ARG211     -0.1245
     82  CA        35.8410   92.9300    8.1630 C.3   211  ARG211      0.1563
     83  C         36.3060   92.3690    9.4880 C.2   211  ARG211      0.2260
     84  O         35.4910   92.1710   10.3890 O.2   211  ARG211     -0.2867
     85  CB        34.3920   93.4350    8.3230 C.3   211  ARG211      0.0307
     86  CG        33.7630   93.9940    7.0760 C.3   211  ARG211      0.0489
     87  CD        32.3930   94.6360    7.3890 C.3   211  ARG211      0.2205
     88  NE        31.5200   93.6980    8.0790 N.pl3 211  ARG211     -0.0865
     89  CZ        30.6810   92.8460    7.4850 C.cat 211  ARG211      0.5346
     90  NH1       30.5330   92.8170    6.1620 N.pl3 211  ARG211      0.1354
     91  NH2       29.9520   92.0280    8.2360 N.pl3 211  ARG211      0.1354
     92  N         37.5690   92.2920   13.1650 N.3   213  GLY213     -0.1210
     93  CA        37.5430   93.1960   14.3000 C.3   213  GLY213      0.1956
     94  C         38.3510   92.6690   15.4840 C.2   213  GLY213      0.2611
     95  O         39.5410   92.9640   15.5910 O.2   213  GLY213     -0.2717
     96  N         37.7080   91.9150   16.3720 N.am  214  ILE214     -0.1979
     97  CA        38.3540   91.5020   17.6080 C.3   214  ILE214      0.1595
     98  C         39.6850   90.7580   17.3920 C.2   214  ILE214      0.2287
     99  O         40.5780   90.9020   18.2080 O.2   214  ILE214     -0.2864
    100  CB        37.4190   90.6650   18.5240 C.3   214  ILE214      0.0276
    101  CG1       38.0480   90.5530   19.9240 C.3   214  ILE214      0.0022
    102  CG2       37.1080   89.2930   17.8710 C.3   214  ILE214      0.0022
    103  CD1       37.1680   89.9150   20.9730 C.3   214  ILE214      0.0001
    104  N         37.0370   85.1130   18.5410 N.3   221  PRO221     -0.2116
    105  CA        35.6280   85.3490   18.8390 C.3   221  PRO221      0.1372
    106  C         34.9730   84.2510   19.6900 C.2   221  PRO221      0.2244
    107  O         33.9530   84.5280   20.3590 O.2   221  PRO221     -0.2868
    108  CB        34.9680   85.4290   17.4540 C.3   221  PRO221      0.0268
    109  CG        35.9410   84.8610   16.5020 C.3   221  PRO221      0.0207
    110  CD        37.3130   85.0110   17.0970 C.3   221  PRO221      0.0892
    111  N         35.0510   90.3800   24.2840 N.3   328  TYR328     -0.1241
    112  CA        34.7290   91.6820   23.6750 C.3   328  TYR328      0.1605
    113  C         34.3800   92.7170   24.7490 C.2   328  TYR328      0.2264
    114  O         34.8430   93.8380   24.6990 O.2   328  TYR328     -0.2867
    115  CB        33.5040   91.5820   22.7580 C.3   328  TYR328      0.0534
    116  CG        33.6040   90.7390   21.4800 C.ar  328  TYR328     -0.0201
    117  CD1       33.4810   89.3480   21.5280 C.ar  328  TYR328     -0.0009
    118  CD2       33.7370   91.3460   20.2190 C.ar  328  TYR328     -0.0009
    119  CE1       33.5300   88.5730   20.3660 C.ar  328  TYR328      0.0417
    120  CE2       33.7720   90.5710   19.0400 C.ar  328  TYR328      0.0417
    121  CZ        33.6820   89.1900   19.1310 C.ar  328  TYR328      0.1957
    122  OH        33.7210   88.4060   18.0020 O.3   328  TYR328     -0.2866
@<TRIPOS>BOND
     1    46    47    1
     2    47    50    1
     3    47    48    1
     4    37    38    1
     5    50    51    1
     6    48    49    2
     7    40    39    2
     8    39    38    1
     9    52    51   ar
    10    52    54   ar
    11    38    41    1
    12    51    53   ar
    13    54    56   ar
    14    41    42    1
    15    53    55   ar
    16    90    89    1
    17    56    55   ar
    18    42    43    1
    19    86    87    1
    20    86    85    1
    21    81    82    1
    22    87    88    1
    23    43    44    1
    24    89    88    2
    25    89    91    1
    26    57    58    1
    27    82    85    1
    28    82    83    1
    29    45    44    1
    30    36    34    1
    31    58    59    1
    32    58    61    1
    33    67    68    1
    34    83    84    2
    35    59    60    2
    36    70    69    2
    37    29    30    1
    38    30    31    1
    39    30    33    1
    40    61    62    1
    41    34    33    1
    42    34    35    1
    43    32    31    2
    44    68    69    1
    45    68    71    1
    46    69    75   am
    47    62    64   ar
    48    62    63   ar
    49     7     5    1
    50    73    72    2
    51     1     2    1
    52    64    66   ar
    53    78    77    2
    54    71    72    1
    55    72    74   am
    56    75    76    1
    57     2     5    1
    58     2     3    1
    59    77    76    1
    60    76    79    1
    61    63    65   ar
    62     5     6    1
    63    66    65   ar
    64    92    93    1
    65     3     4    2
    66    79    80    1
    67    93    94    1
    68    16    15    1
    69     8     9    1
    70    14    15    1
    71    14    13    1
    72    94    95    2
    73    94    96   am
    74    12     9    1
    75    12    13    1
    76     9    10    1
    77    96    97    1
    78    28    27    1
    79   109   110    1
    80   109   108    1
    81   110   104    1
    82    25    27   ar
    83    25    23   ar
    84    98    97    1
    85    98    99    2
    86    27    26   ar
    87   108   105    1
    88    10    11    2
    89    97   100    1
    90   102   100    1
    91   122   121    1
    92    23    22   ar
    93   100   101    1
    94    26    24   ar
    95   104   105    1
    96   105   106    1
    97   120   121   ar
    98   120   118   ar
    99   121   119   ar
   100    22    24   ar
   101    22    21    1
   102   106   107    2
   103   101   103    1
   104    17    18    1
   105   118   116   ar
   106   119   117   ar
   107    21    18    1
   108    18    19    1
   109   116   117   ar
   110   116   115    1
   111    19    20    2
   112   115   112    1
   113   112   111    1
   114   112   113    1
   115   114   113    2
