@<TRIPOS>MOLECULE
tmp/4a3rD00.pdb
 136 127 0 0 0
SMALL
GASTEIGER

@<TRIPOS>ATOM
      1  N        119.1750   56.4440   34.8310 N.3    40  GLY40      -0.1210
      2  CA       120.1490   55.4080   34.5170 C.3    40  GLY40       0.1956
      3  C        119.8440   54.0490   35.1450 C.2    40  GLY40       0.2612
      4  O        119.4990   53.9620   36.3230 O.2    40  GLY40      -0.2717
      5  N        119.9590   52.9850   34.3540 N.am   41  ALA41      -0.1965
      6  CA       119.8910   51.6190   34.8830 C.3    41  ALA41       0.1728
      7  C        121.0470   51.3530   35.8560 C.2    41  ALA41       0.2616
      8  O        120.8830   50.6740   36.8750 O.2    41  ALA41      -0.2715
      9  CB       119.9120   50.6070   33.7460 C.3    41  ALA41       0.0334
     10  N        122.2190   51.8830   35.5210 N.am   42  SER42      -0.1950
     11  CA       123.3570   51.8930   36.4310 C.3    42  SER42       0.1924
     12  C        123.7690   53.3390   36.6550 C.2    42  SER42       0.2314
     13  O        123.4800   54.2080   35.8350 O.2    42  SER42      -0.2863
     14  CB       124.5190   51.0980   35.8520 C.3    42  SER42       0.2116
     15  OG       124.0560   49.8450   35.3810 O.3    42  SER42      -0.2180
     16  N        124.6110   44.5390   29.8810 N.3   155  HIS155     -0.1241
     17  CA       123.4580   44.7630   29.0000 C.3   155  HIS155      0.1621
     18  C        122.9590   43.4930   28.3000 C.2   155  HIS155      0.2264
     19  O        121.8910   43.5070   27.6620 O.2   155  HIS155     -0.2867
     20  CB       123.7740   45.8270   27.9410 C.3   155  HIS155      0.0745
     21  CG       123.5140   47.2330   28.3900 C.ar  155  HIS155      0.0817
     22  ND1      123.6960   48.3230   27.5650 N.ar  155  HIS155     -0.2268
     23  CD2      123.0860   47.7260   29.5790 C.ar  155  HIS155      0.1154
     24  CE1      123.3900   49.4280   28.2250 C.ar  155  HIS155      0.1986
     25  NE2      123.0200   49.0930   29.4480 N.ar  155  HIS155     -0.2212
     26  N        130.1130   46.9290   26.6590 N.3   163  GLN163     -0.1231
     27  CA       128.6890   47.0600   26.9410 C.3   163  GLN163      0.1698
     28  C        127.8890   47.5250   25.7240 C.2   163  GLN163      0.2592
     29  O        126.7940   47.0300   25.4820 O.2   163  GLN163     -0.2718
     30  CB       128.4430   47.9620   28.1520 C.3   163  GLN163      0.0381
     31  CG       126.9870   48.1740   28.4850 C.3   163  GLN163      0.0905
     32  CD       126.7990   48.9860   29.7510 C.2   163  GLN163      0.2608
     33  OE1      127.0000   48.4830   30.8620 O.2   163  GLN163     -0.2717
     34  NE2      126.4190   50.2560   29.5920 N.am  163  GLN163     -0.0878
     35  N        128.4410   48.4500   24.9450 N.am  164  GLU164     -0.1979
     36  CA       127.7370   48.9430   23.7640 C.3   164  GLU164      0.1602
     37  C        128.6580   49.0810   22.5550 C.2   164  GLU164      0.2287
     38  O        129.7570   49.6260   22.6700 O.2   164  GLU164     -0.2864
     39  CB       127.0960   50.3020   24.0610 C.3   164  GLU164      0.0415
     40  CG       126.3780   50.3860   25.3880 C.3   164  GLU164      0.1163
     41  CD       126.0330   51.8240   25.7920 C.2   164  GLU164      0.3649
     42  OE1      126.4450   52.7760   25.0850 O.co2 164  GLU164     -0.2457
     43  OE2      125.3450   52.0010   26.8230 O.co2 164  GLU164     -0.2457
     44  N        118.2050   49.9990   25.0490 N.3   205  GLU205     -0.1245
     45  CA       118.5340   51.0960   24.1450 C.3   205  GLU205      0.1567
     46  C        118.2250   50.8250   22.6690 C.2   205  GLU205      0.2260
     47  O        118.6170   51.6030   21.7920 O.2   205  GLU205     -0.2867
     48  CB       119.9780   51.5600   24.3580 C.3   205  GLU205      0.0388
     49  CG       120.2060   52.0770   25.7740 C.3   205  GLU205      0.1160
     50  CD       121.6260   52.5300   26.0260 C.2   205  GLU205      0.3649
     51  OE1      122.5010   52.2890   25.1570 O.co2 205  GLU205     -0.2457
     52  OE2      121.8660   53.1360   27.0960 O.co2 205  GLU205     -0.2457
     53  N        131.2190   51.6420   23.9460 N.3   242  ASP242     -0.1239
     54  CA       131.1640   52.0160   25.3510 C.3   242  ASP242      0.1674
     55  C        131.5260   50.7850   26.1560 C.2   242  ASP242      0.2266
     56  O        130.7490   49.8290   26.2320 O.2   242  ASP242     -0.2867
     57  CB       129.7910   52.5740   25.7530 C.3   242  ASP242      0.1410
     58  CG       129.6470   52.7550   27.2680 C.2   242  ASP242      0.3668
     59  OD1      130.6470   52.6090   28.0000 O.co2 242  ASP242     -0.2456
     60  OD2      128.5250   53.0360   27.7260 O.co2 242  ASP242     -0.2456
     61  N        134.5380   54.8590   25.0220 N.3   287  GLU287     -0.1245
     62  CA       133.9450   55.4940   26.1740 C.3   287  GLU287      0.1567
     63  C        134.1600   54.6680   27.4480 C.2   287  GLU287      0.2260
     64  O        133.9300   53.4580   27.4620 O.2   287  GLU287     -0.2867
     65  CB       132.4510   55.7010   25.9090 C.3   287  GLU287      0.0388
     66  CG       131.7150   56.3170   27.0690 C.3   287  GLU287      0.1160
     67  CD       130.2170   56.4140   26.8290 C.2   287  GLU287      0.3649
     68  OE1      129.7630   56.3690   25.6630 O.co2 287  GLU287     -0.2457
     69  OE2      129.4910   56.5490   27.8230 O.co2 287  GLU287     -0.2457
     70  N        132.6590   59.2040   30.9150 N.3   314  ASP314     -0.1239
     71  CA       131.2690   59.1710   31.3680 C.3   314  ASP314      0.1674
     72  C        131.1990   59.1840   32.8990 C.2   314  ASP314      0.2266
     73  O        131.0350   60.2450   33.5140 O.2   314  ASP314     -0.2867
     74  CB       130.5090   57.9520   30.8190 C.3   314  ASP314      0.1410
     75  CG       129.0580   57.8790   31.3410 C.2   314  ASP314      0.3668
     76  OD1      128.4450   58.9340   31.6310 O.co2 314  ASP314     -0.2456
     77  OD2      128.5270   56.7620   31.4800 O.co2 314  ASP314     -0.2456
     78  N        130.9270   62.6740   28.1700 N.3   337  LEU337     -0.1245
     79  CA       129.5480   62.3060   27.9340 C.3   337  LEU337      0.1561
     80  C        128.6770   63.2290   28.7830 C.2   337  LEU337      0.2260
     81  O        128.8860   63.3290   29.9920 O.2   337  LEU337     -0.2867
     82  CB       129.3080   60.8470   28.3100 C.3   337  LEU337      0.0270
     83  CG       128.0540   60.2310   27.6800 C.3   337  LEU337      0.0019
     84  CD1      128.2460   60.1100   26.1820 C.3   337  LEU337      0.0001
     85  CD2      127.7740   58.8710   28.2740 C.3   337  LEU337      0.0001
     86  N        125.2310   64.1140   30.4720 N.3   339  LYS339     -0.1245
     87  CA       123.9620   63.5710   30.9160 C.3   339  LYS339      0.1561
     88  C        123.2970   64.5270   31.8920 C.2   339  LYS339      0.2260
     89  O        123.7360   64.6510   33.0510 O.2   339  LYS339     -0.2867
     90  CB       124.1830   62.2310   31.6100 C.3   339  LYS339      0.0271
     91  CG       124.7670   61.1460   30.7210 C.3   339  LYS339      0.0035
     92  CD       125.0910   59.8900   31.5340 C.3   339  LYS339      0.0206
     93  CE       125.3530   58.7040   30.6180 C.3   339  LYS339      0.1093
     94  NZ       125.6510   57.4520   31.3600 N.3   339  LYS339     -0.1314
     95  N        123.9960   62.9760   25.7980 N.3   366  SER366     -0.1202
     96  CA       123.6210   61.5650   25.9970 C.3   366  SER366      0.2020
     97  C        122.2450   61.2220   26.6110 C.2   366  SER366      0.2619
     98  O        121.7900   61.8570   27.5590 O.2   366  SER366     -0.2717
     99  CB       124.6850   60.8800   26.8440 C.3   366  SER366      0.2103
    100  OG       124.3360   59.5310   27.0830 O.3   366  SER366     -0.2182
    101  N        121.6150   60.1670   26.1000 N.am  367  HIS367     -0.1961
    102  CA       120.4360   59.6010   26.7640 C.3   367  HIS367      0.1787
    103  C        120.8330   58.8430   28.0330 C.2   367  HIS367      0.2620
    104  O        122.0260   58.7460   28.3610 O.2   367  HIS367     -0.2715
    105  CB       119.6420   58.6770   25.8290 C.3   367  HIS367      0.0785
    106  CG       120.4010   57.4790   25.3460 C.ar  367  HIS367      0.0821
    107  ND1      121.7200   57.2400   25.6730 N.ar  367  HIS367     -0.2267
    108  CD2      120.0160   56.4410   24.5600 C.ar  367  HIS367      0.1154
    109  CE1      122.1140   56.1070   25.1120 C.ar  367  HIS367      0.1986
    110  NE2      121.1000   55.6030   24.4320 N.ar  367  HIS367     -0.2212
    111  N        119.8280   58.3380   28.7450 N.am  368  ARG368     -0.1963
    112  CA       120.0370   57.3680   29.8150 C.3   368  ARG368      0.1729
    113  C        119.3510   56.0740   29.3810 C.2   368  ARG368      0.2616
    114  O        118.5270   56.0900   28.4650 O.2   368  ARG368     -0.2715
    115  CB       119.4320   57.8600   31.1390 C.3   368  ARG368      0.0348
    116  CG       120.0350   59.1540   31.7020 C.3   368  ARG368      0.0492
    117  CD       121.5690   59.0990   31.8300 C.3   368  ARG368      0.2205
    118  NE       122.0690   58.0900   32.7750 N.pl3 368  ARG368     -0.0865
    119  CZ       122.4750   58.3480   34.0230 C.cat 368  ARG368      0.5346
    120  NH1      122.4130   59.5800   34.5200 N.pl3 368  ARG368      0.1354
    121  NH2      122.9340   57.3710   34.7890 N.pl3 368  ARG368      0.1354
    122  N        119.6660   54.9540   30.0180 N.am  369  SER369     -0.1950
    123  CA       119.0050   53.7060   29.6380 C.3   369  SER369      0.1924
    124  C        117.4830   53.7880   29.8540 C.2   369  SER369      0.2314
    125  O        116.7080   53.3470   29.0150 O.2   369  SER369     -0.2863
    126  CB       119.6420   52.4830   30.3150 C.3   369  SER369      0.2116
    127  OG       119.8800   52.6970   31.6920 O.3   369  SER369     -0.2180
    128  N        124.3490   60.7990   21.5740 N.3   390  LYS390     -0.1245
    129  CA       124.2050   59.3720   21.7980 C.3   390  LYS390      0.1561
    130  C        122.8280   59.1100   22.3990 C.2   390  LYS390      0.2260
    131  O        122.6330   59.2960   23.6040 O.2   390  LYS390     -0.2867
    132  CB       125.3230   58.8640   22.7260 C.3   390  LYS390      0.0271
    133  CG       125.3090   57.3670   22.9380 C.3   390  LYS390      0.0035
    134  CD       126.5060   56.8990   23.7560 C.3   390  LYS390      0.0206
    135  CE       126.0760   56.5050   25.1590 C.3   390  LYS390      0.1093
    136  NZ       127.1480   55.7520   25.8830 N.3   390  LYS390     -0.1314
@<TRIPOS>BOND
     1   128   129    1
     2    47    46    2
     3   129   130    1
     4   129   132    1
     5   130   131    2
     6    37    38    2
     7    37    36    1
     8    46    45    1
     9   132   133    1
    10   133   134    1
    11   134   135    1
    12    36    39    1
    13    36    35    1
    14    53    54    1
    15    39    40    1
    16    45    48    1
    17    45    44    1
    18    48    49    1
    19   110   108   ar
    20   110   109   ar
    21   108   106   ar
    22    35    28   am
    23    61    62    1
    24    42    41   ar
    25   109   107   ar
    26    51    50   ar
    27   135   136    1
    28   106   107   ar
    29   106   105    1
    30    54    57    1
    31    54    55    1
    32    40    41    1
    33    29    28    2
    34    68    67   ar
    35    28    27    1
    36    57    58    1
    37    49    50    1
    38    41    43   ar
    39    95    96    1
    40   105   102    1
    41    65    62    1
    42    65    66    1
    43    96    97    1
    44    96    99    1
    45    50    52   ar
    46   101    97   am
    47   101   102    1
    48    55    56    2
    49    62    63    1
    50    84    83    1
    51    97    98    2
    52    26    27    1
    53   102   103    1
    54    67    66    1
    55    67    69   ar
    56    99   100    1
    57    27    30    1
    58    58    60   ar
    59    58    59   ar
    60    63    64    2
    61    22    24   ar
    62    22    21   ar
    63    19    18    2
    64    83    85    1
    65    83    82    1
    66    79    78    1
    67    79    82    1
    68    79    80    1
    69    20    21    1
    70    20    17    1
    71   103   104    2
    72   103   111   am
    73    30    31    1
    74    24    25   ar
    75    18    17    1
    76    21    23   ar
    77   114   113    2
    78    31    32    1
    79   111   112    1
    80    80    81    2
    81    17    16    1
    82   125   124    2
    83   113   112    1
    84   113   122   am
    85    25    23   ar
    86    34    32   am
    87   123   124    1
    88   123   122    1
    89   123   126    1
    90    32    33    2
    91   112   115    1
    92   126   127    1
    93    86    87    1
    94    93    94    1
    95    93    92    1
    96    91    92    1
    97    91    90    1
    98    74    75    1
    99    74    71    1
   100    70    71    1
   101    87    90    1
   102    87    88    1
   103   115   116    1
   104    75    77   ar
   105    75    76   ar
   106    71    72    1
   107   116   117    1
   108   117   118    1
   109    88    89    2
   110   118   119    2
   111    72    73    2
   112     9     6    1
   113   119   120    1
   114   119   121    1
   115     5     6    1
   116     5     3   am
   117     2     1    1
   118     2     3    1
   119     6     7    1
   120     3     4    2
   121    15    14    1
   122    10     7   am
   123    10    11    1
   124    13    12    2
   125    14    11    1
   126     7     8    2
   127    11    12    1
