@<TRIPOS>MOLECULE
tmp/4a3uB00.pdb
 239 237 0 0 0
SMALL
GASTEIGER

@<TRIPOS>ATOM
      1  N        -16.1330   -1.6440   67.5450 N.3    21  ALA21      -0.1231
      2  CA       -15.0470   -1.4160   68.4960 C.3    21  ALA21       0.1679
      3  C        -14.2590   -2.6970   68.6430 C.2    21  ALA21       0.2434
      4  O        -14.8310   -3.7950   68.4380 O.2    21  ALA21      -0.2733
      5  CB       -15.5600   -0.9760   69.8380 C.3    21  ALA21       0.0304
      6  N        -12.9860   -2.5650   69.0030 N.am   22  PRO22      -0.2718
      7  CA       -12.1330   -3.7340   69.2180 C.3    22  PRO22       0.1535
      8  C        -12.6320   -4.5820   70.3940 C.2    22  PRO22       0.2598
      9  O        -13.0160   -4.0530   71.4280 O.2    22  PRO22      -0.2715
     10  CB       -10.7510   -3.1330   69.4770 C.3    22  PRO22       0.0310
     11  CG       -10.9720   -1.6740   69.8220 C.3    22  PRO22       0.0237
     12  CD       -12.2570   -1.2880   69.1970 C.3    22  PRO22       0.0939
     13  N        -12.6600   -5.8930   70.2030 N.am   23  LEU23      -0.1964
     14  CA       -13.3850   -6.8130   71.0890 C.3    23  LEU23       0.1728
     15  C        -12.6720   -8.1840   71.1060 C.2    23  LEU23       0.2617
     16  O        -12.7420   -8.9560   70.1300 O.2    23  LEU23      -0.2715
     17  CB       -14.8470   -7.0210   70.6140 C.3    23  LEU23       0.0311
     18  CG       -15.8750   -5.9110   70.7070 C.3    23  LEU23       0.0022
     19  CD1      -17.1780   -6.3510   70.0220 C.3    23  LEU23       0.0001
     20  CD2      -15.9940   -5.4930   72.1720 C.3    23  LEU23       0.0001
     21  N        -11.8790   -8.3740   72.1530 N.am   24  THR24      -0.1937
     22  CA       -11.2320   -9.6220   72.5560 C.3    24  THR24       0.2028
     23  C        -12.2910  -10.6330   72.8680 C.2    24  THR24       0.2642
     24  O        -13.1520  -10.4080   73.7610 O.2    24  THR24      -0.2714
     25  CB       -10.3220   -9.3920   73.7820 C.3    24  THR24       0.1808
     26  OG1       -9.2300   -8.5030   73.4440 O.3    24  THR24      -0.2208
     27  CG2       -9.7890  -10.7720   74.3510 C.3    24  THR24       0.0379
     28  N        -12.2010  -11.7680   72.1650 N.am   25  ARG25      -0.1977
     29  CA       -13.1500  -12.8680   72.2290 C.3    25  ARG25       0.1597
     30  C        -12.5790  -14.2370   72.6340 C.2    25  ARG25       0.2287
     31  O        -13.3470  -15.1260   73.0140 O.2    25  ARG25      -0.2864
     32  CB       -13.8340  -13.0470   70.8440 C.3    25  ARG25       0.0334
     33  CG       -14.5700  -11.8350   70.3090 C.3    25  ARG25       0.0492
     34  CD       -15.4920  -11.1790   71.3290 C.3    25  ARG25       0.2205
     35  NE       -16.5360  -12.0770   71.8720 N.pl3  25  ARG25      -0.0865
     36  CZ       -17.6640  -12.4140   71.2580 C.cat  25  ARG25       0.5346
     37  NH1      -17.9540  -11.9280   70.0750 N.pl3  25  ARG25       0.1354
     38  NH2      -18.5560  -13.2190   71.8610 N.pl3  25  ARG25       0.1354
     39  N         -8.0020   -7.1970   69.9700 N.3    55  ALA55      -0.1245
     40  CA        -6.6270   -6.8260   70.3100 C.3    55  ALA55       0.1562
     41  C         -5.7640   -7.9860   69.9190 C.2    55  ALA55       0.2260
     42  O         -6.1510   -9.1510   70.1290 O.2    55  ALA55      -0.2867
     43  CB        -6.5610   -6.6120   71.7890 C.3    55  ALA55       0.0290
     44  N         -5.9380   -4.3810   65.5310 N.3    97  GLN97      -0.1245
     45  CA        -5.6120   -3.6120   66.7410 C.3    97  GLN97       0.1566
     46  C         -4.3610   -4.2300   67.3690 C.2    97  GLN97       0.2260
     47  O         -4.4260   -5.3460   67.8800 O.2    97  GLN97      -0.2867
     48  CB        -6.7550   -3.4230   67.7480 C.3    97  GLN97       0.0367
     49  CG        -6.2730   -2.4820   68.9050 C.3    97  GLN97       0.0905
     50  CD        -7.1640   -2.4680   70.1270 C.2    97  GLN97       0.2608
     51  OE1       -7.4590   -3.5040   70.6620 O.2    97  GLN97      -0.2717
     52  NE2       -7.5370   -1.2840   70.6220 N.am   97  GLN97      -0.0878
     53  N         -1.5610   -5.0150   69.9940 N.3    99  TRP99      -0.1241
     54  CA        -1.5330   -5.0760   71.4850 C.3    99  TRP99       0.1605
     55  C         -0.2360   -5.4150   72.1680 C.2    99  TRP99       0.2264
     56  O          0.4550   -6.3610   71.7990 O.2    99  TRP99      -0.2867
     57  CB        -2.5520   -6.1270   71.8800 C.3    99  TRP99       0.0550
     58  CG        -3.2370   -6.0060   73.1920 C.ar   99  TRP99       0.0003
     59  CD1       -3.3160   -4.8880   74.0500 C.ar   99  TRP99       0.0946
     60  CD2       -4.0900   -7.0490   73.8160 C.ar   99  TRP99       0.0152
     61  NE1       -4.0630   -5.2230   75.1690 N.ar   99  TRP99      -0.2442
     62  CE2       -4.5890   -6.4990   75.0480 C.ar   99  TRP99       0.0810
     63  CE3       -4.4290   -8.3830   73.4740 C.ar   99  TRP99       0.0012
     64  CZ2       -5.4320   -7.2390   75.8940 C.ar   99  TRP99       0.0191
     65  CZ3       -5.2710   -9.0990   74.3350 C.ar   99  TRP99       0.0001
     66  CH2       -5.7360   -8.5560   75.5040 C.ar   99  TRP99       0.0015
     67  N         -2.9790   -0.0620   70.1350 N.3   171  HIS171     -0.1241
     68  CA        -3.6720   -0.0220   71.4140 C.3   171  HIS171      0.1621
     69  C         -2.9070    0.7290   72.4790 C.2   171  HIS171      0.2264
     70  O         -2.0430    0.1500   73.0790 O.2   171  HIS171     -0.2867
     71  CB        -3.8870   -1.4520   71.8910 C.3   171  HIS171      0.0745
     72  CG        -4.9400   -1.6010   72.9830 C.ar  171  HIS171      0.0817
     73  ND1       -5.2770   -0.6070   73.8190 N.ar  171  HIS171     -0.2268
     74  CD2       -5.7220   -2.6920   73.3340 C.ar  171  HIS171      0.1154
     75  CE1       -6.2490   -1.0280   74.6480 C.ar  171  HIS171      0.1986
     76  NE2       -6.5220   -2.3070   74.3530 N.ar  171  HIS171     -0.2212
     77  N         -6.6250    1.5830   78.0990 N.3   174  ASN174     -0.1240
     78  CA        -7.1300    0.5600   79.0400 C.3   174  ASN174      0.1653
     79  C         -6.1640   -0.1110   79.9730 C.2   174  ASN174      0.2266
     80  O         -6.3400   -1.2950   80.3110 O.2   174  ASN174     -0.2867
     81  CB        -7.8670   -0.5100   78.2600 C.3   174  ASN174      0.1155
     82  CG        -8.8600    0.0890   77.3300 C.2   174  ASN174      0.2627
     83  OD1       -9.3580    1.1950   77.5830 O.2   174  ASN174     -0.2716
     84  ND2       -9.1230   -0.5720   76.2560 N.am  174  ASN174     -0.0877
     85  N         -3.0490   -0.9060   79.5340 N.3   176  TYR176     -0.1241
     86  CA        -2.0850   -1.8180   78.9370 C.3   176  TYR176      0.1605
     87  C         -0.7610   -1.0900   78.7780 C.2   176  TYR176      0.2264
     88  O         -0.5750   -0.1200   79.4730 O.2   176  TYR176     -0.2867
     89  CB        -2.6450   -2.4620   77.6760 C.3   176  TYR176      0.0534
     90  CG        -3.7450   -3.4360   78.0400 C.ar  176  TYR176     -0.0201
     91  CD1       -3.4790   -4.5570   78.8380 C.ar  176  TYR176     -0.0009
     92  CD2       -5.0520   -3.2290   77.6120 C.ar  176  TYR176     -0.0009
     93  CE1       -4.4780   -5.4500   79.1680 C.ar  176  TYR176      0.0417
     94  CE2       -6.0540   -4.1130   77.9310 C.ar  176  TYR176      0.0417
     95  CZ        -5.7700   -5.2150   78.7010 C.ar  176  TYR176      0.1957
     96  OH        -6.7920   -6.0290   78.9770 O.3   176  TYR176     -0.2866
     97  N         -5.6290    3.9720   69.6400 N.3   223  ARG223     -0.1245
     98  CA        -6.6090    4.0680   70.7650 C.3   223  ARG223      0.1563
     99  C         -6.0620    4.6000   72.0360 C.2   223  ARG223      0.2260
    100  O         -4.9920    4.1620   72.5360 O.2   223  ARG223     -0.2867
    101  CB        -7.1700    2.7120   71.1730 C.3   223  ARG223      0.0307
    102  CG        -8.6380    2.7800   71.5720 C.3   223  ARG223      0.0489
    103  CD        -9.2680    1.4100   71.8590 C.3   223  ARG223      0.2205
    104  NE       -10.7250    1.4620   71.6250 N.pl3 223  ARG223     -0.0865
    105  CZ       -11.6780    0.9110   72.3920 C.cat 223  ARG223      0.5346
    106  NH1      -11.3930    0.2150   73.5030 N.pl3 223  ARG223      0.1354
    107  NH2      -12.9780    1.1100   72.0520 N.pl3 223  ARG223      0.1354
    108  N        -11.8940    5.4640   74.0520 N.3   260  ARG260     -0.1245
    109  CA       -12.9030    4.9340   74.9730 C.3   260  ARG260      0.1563
    110  C        -13.0830    5.9560   76.0930 C.2   260  ARG260      0.2260
    111  O        -12.1320    6.2700   76.8100 O.2   260  ARG260     -0.2867
    112  CB       -12.5100    3.5670   75.5780 C.3   260  ARG260      0.0307
    113  CG       -13.5880    3.0460   76.5530 C.3   260  ARG260      0.0489
    114  CD       -13.1980    1.7060   77.2230 C.3   260  ARG260      0.2205
    115  NE       -11.9920    1.8420   78.0490 N.pl3 260  ARG260     -0.0865
    116  CZ       -11.9010    2.6010   79.1580 C.cat 260  ARG260      0.5346
    117  NH1      -12.9610    3.1930   79.6500 N.pl3 260  ARG260      0.1354
    118  NH2      -10.7610    2.7130   79.8390 N.pl3 260  ARG260      0.1354
    119  N        -18.6990    0.2550   81.1910 N.3   268  PHE268     -0.1241
    120  CA       -17.4090   -0.3910   80.8700 C.3   268  PHE268      0.1605
    121  C        -16.2830    0.5860   81.2210 C.2   268  PHE268      0.2264
    122  O        -15.2950    0.7060   80.5120 O.2   268  PHE268     -0.2867
    123  CB       -17.3480   -0.8060   79.4050 C.3   268  PHE268      0.0534
    124  CG       -16.4820   -2.0030   79.1570 C.ar  268  PHE268     -0.0203
    125  CD1      -17.0040   -3.2790   79.2240 C.ar  268  PHE268     -0.0042
    126  CD2      -15.1120   -1.8410   78.8900 C.ar  268  PHE268     -0.0042
    127  CE1      -16.1850   -4.3800   79.0110 C.ar  268  PHE268     -0.0003
    128  CE2      -14.2990   -2.9290   78.6860 C.ar  268  PHE268     -0.0003
    129  CZ       -14.8320   -4.1980   78.7530 C.ar  268  PHE268     -0.0000
    130  N        -16.1420    6.2550   71.8010 N.3   291  ASN291     -0.1225
    131  CA       -16.7210    4.9860   72.2200 C.3   291  ASN291      0.1785
    132  C        -17.1620    4.9970   73.6780 C.2   291  ASN291      0.2597
    133  O        -16.6120    5.7370   74.5020 O.2   291  ASN291     -0.2718
    134  CB       -15.7180    3.8400   71.9310 C.3   291  ASN291      0.1169
    135  CG       -16.0220    2.5520   72.6900 C.2   291  ASN291      0.2627
    136  OD1      -16.8160    1.7420   72.2530 O.2   291  ASN291     -0.2716
    137  ND2      -15.3060    2.3180   73.7860 N.am  291  ASN291     -0.0877
    138  N        -18.2310    4.2210   73.8990 N.am  292  GLN292     -0.1965
    139  CA       -18.6600    3.6750   75.1820 C.3   292  GLN292      0.1733
    140  C        -19.9990    4.2260   75.5680 C.2   292  GLN292      0.2616
    141  O        -20.1730    5.4500   75.6840 O.2   292  GLN292     -0.2715
    142  CB       -17.6770    3.8630   76.3300 C.3   292  GLN292      0.0408
    143  CG       -18.1380    3.0840   77.5720 C.3   292  GLN292      0.0908
    144  CD       -17.3060    3.3240   78.8270 C.2   292  GLN292      0.2608
    145  OE1      -16.0950    3.0680   78.8560 O.2   292  GLN292     -0.2717
    146  NE2      -17.9710    3.8060   79.8860 N.am  292  GLN292     -0.0878
    147  N        -20.9280    3.2970   75.7900 N.am  293  ASP293     -0.1957
    148  CA       -22.2810    3.5800   76.2630 C.3   293  ASP293      0.1840
    149  C        -23.1040    4.4690   75.3100 C.2   293  ASP293      0.2622
    150  O        -23.9960    5.1890   75.7290 O.2   293  ASP293     -0.2715
    151  CB       -22.2450    4.1750   77.6940 C.3   293  ASP293      0.1450
    152  CG       -21.6220    3.2160   78.7370 C.2   293  ASP293      0.3671
    153  OD1      -21.9340    2.0080   78.6670 O.co2 293  ASP293     -0.2456
    154  OD2      -20.8860    3.6650   79.6600 O.co2 293  ASP293     -0.2456
    155  N        -22.7830    4.4480   74.0240 N.am  294  TYR294     -0.1974
    156  CA       -23.5900    5.1560   73.0600 C.3   294  TYR294      0.1639
    157  C        -24.7920    4.2800   72.6770 C.2   294  TYR294      0.2290
    158  O        -24.7390    3.0460   72.7230 O.2   294  TYR294     -0.2864
    159  CB       -22.7330    5.5870   71.8430 C.3   294  TYR294      0.0560
    160  CG       -21.8180    6.7500   72.1580 C.ar  294  TYR294     -0.0198
    161  CD1      -22.3130    8.0480   72.1470 C.ar  294  TYR294     -0.0009
    162  CD2      -20.4450    6.5670   72.3760 C.ar  294  TYR294     -0.0009
    163  CE1      -21.5210    9.1170   72.4450 C.ar  294  TYR294      0.0417
    164  CE2      -19.6240    7.6590   72.6490 C.ar  294  TYR294      0.0417
    165  CZ       -20.1760    8.9320   72.6620 C.ar  294  TYR294      0.1957
    166  OH       -19.4060   10.0330   72.9230 O.3   294  TYR294     -0.2866
    167  N        -17.6850    4.2530   67.6060 N.3   312  SER312     -0.1202
    168  CA       -17.5130    2.7650   67.7140 C.3   312  SER312      0.2020
    169  C        -18.4730    2.1120   68.7360 C.2   312  SER312      0.2619
    170  O        -18.8360    2.7130   69.7310 O.2   312  SER312     -0.2717
    171  CB       -16.0390    2.4550   67.9430 C.3   312  SER312      0.2103
    172  OG       -15.5660    2.6740   69.2780 O.3   312  SER312     -0.2182
    173  N        -18.9190    0.8880   68.4430 N.am  313  PHE313     -0.1961
    174  CA       -19.8950    0.1680   69.2700 C.3   313  PHE313      0.1771
    175  C        -19.3090   -1.2130   69.5190 C.2   313  PHE313      0.2620
    176  O        -18.9710   -1.8950   68.5800 O.2   313  PHE313     -0.2715
    177  CB       -21.2280    0.0130   68.5320 C.3   313  PHE313      0.0574
    178  CG       -22.0030    1.3030   68.3280 C.ar  313  PHE313     -0.0200
    179  CD1      -21.7980    2.0630   67.1990 C.ar  313  PHE313     -0.0042
    180  CD2      -22.9940    1.7160   69.2640 C.ar  313  PHE313     -0.0042
    181  CE1      -22.5220    3.2230   66.9760 C.ar  313  PHE313     -0.0003
    182  CE2      -23.7040    2.8930   69.0480 C.ar  313  PHE313     -0.0003
    183  CZ       -23.4600    3.6460   67.8980 C.ar  313  PHE313     -0.0000
    184  N        -19.2620   -1.6230   70.7800 N.am  314  GLY314     -0.1940
    185  CA       -18.6250   -2.8640   71.1700 C.3   314  GLY314      0.2014
    186  C        -19.5790   -3.9830   71.4680 C.2   314  GLY314      0.2639
    187  O        -19.7500   -4.8720   70.6380 O.2   314  GLY314     -0.2714
    188  N        -20.1220   -3.9670   72.6950 N.am  315  ARG315     -0.1963
    189  CA       -21.1650   -4.9080   73.1270 C.3   315  ARG315      0.1714
    190  C        -22.3400   -5.0480   72.1360 C.2   315  ARG315      0.2458
    191  O        -22.7400   -6.1800   71.8260 O.2   315  ARG315     -0.2730
    192  CB       -21.6410   -4.5540   74.5550 C.3   315  ARG315      0.0347
    193  CG       -20.6180   -4.9280   75.6290 C.3   315  ARG315      0.0492
    194  CD       -20.8620   -4.3720   76.9920 C.3   315  ARG315      0.2205
    195  NE       -20.8090   -2.9100   76.9390 N.pl3 315  ARG315     -0.0865
    196  CZ       -20.7940   -2.0960   77.9740 C.cat 315  ARG315      0.5346
    197  NH1      -20.7520   -2.5600   79.2100 N.pl3 315  ARG315      0.1354
    198  NH2      -20.7830   -0.7900   77.7580 N.pl3 315  ARG315      0.1354
    199  N        -22.8100   -3.9430   71.5320 N.am  316  PRO316     -0.2727
    200  CA       -23.8510   -4.1750   70.5380 C.3   316  PRO316      0.1402
    201  C        -23.4490   -4.9560   69.2990 C.2   316  PRO316      0.2269
    202  O        -24.2890   -5.6190   68.7430 O.2   316  PRO316     -0.2865
    203  CB       -24.2630   -2.7800   70.1530 C.3   316  PRO316      0.0296
    204  CG       -24.1440   -2.0220   71.4290 C.3   316  PRO316      0.0237
    205  CD       -22.8120   -2.5240   71.9580 C.3   316  PRO316      0.0939
    206  N        -21.5830   -7.4870   69.4010 N.3   318  ILE318     -0.1245
    207  CA       -21.4550   -8.9090   69.7930 C.3   318  ILE318      0.1561
    208  C        -22.7170   -9.6930   69.4300 C.2   318  ILE318      0.2260
    209  O        -22.6410  -10.7660   68.8060 O.2   318  ILE318     -0.2867
    210  CB       -21.1120   -9.0870   71.3010 C.3   318  ILE318      0.0252
    211  CG1      -19.6820   -8.6310   71.6220 C.3   318  ILE318      0.0019
    212  CG2      -21.3370  -10.5250   71.7250 C.3   318  ILE318      0.0019
    213  CD1      -19.4630   -8.4530   73.1320 C.3   318  ILE318      0.0001
    214  N        -18.6110  -14.1480   76.2110 N.3   341  TRP341     -0.1227
    215  CA       -17.6920  -13.1320   75.7040 C.3   341  TRP341      0.1737
    216  C        -16.3330  -13.6790   75.3940 C.2   341  TRP341      0.2595
    217  O        -15.7000  -13.3020   74.4140 O.2   341  TRP341     -0.2718
    218  CB       -17.4950  -12.0470   76.7510 C.3   341  TRP341      0.0564
    219  CG       -18.5390  -10.9630   76.7990 C.ar  341  TRP341      0.0003
    220  CD1      -19.7230  -10.8670   76.1060 C.ar  341  TRP341      0.0946
    221  CD2      -18.5150   -9.8080   77.6630 C.ar  341  TRP341      0.0152
    222  NE1      -20.4040   -9.7310   76.4470 N.ar  341  TRP341     -0.2442
    223  CE2      -19.7380   -9.0480   77.3670 C.ar  341  TRP341      0.0810
    224  CE3      -17.6430   -9.3340   78.5870 C.ar  341  TRP341      0.0012
    225  CZ2      -20.0470   -7.8580   78.0260 C.ar  341  TRP341      0.0191
    226  CZ3      -17.9540   -8.1410   79.2300 C.ar  341  TRP341      0.0001
    227  CH2      -19.1310   -7.4170   78.9420 C.ar  341  TRP341      0.0015
    228  N        -15.8300  -14.5440   76.2710 N.am  342  TYR342     -0.1976
    229  CA       -14.4260  -14.9120   76.2130 C.3   342  TYR342      0.1639
    230  C        -14.1950  -16.4260   76.1890 C.2   342  TYR342      0.2290
    231  O        -13.0730  -16.8910   76.4490 O.2   342  TYR342     -0.2864
    232  CB       -13.6490  -14.3170   77.3910 C.3   342  TYR342      0.0560
    233  CG       -13.7810  -12.8100   77.6290 C.ar  342  TYR342     -0.0198
    234  CD1      -13.4260  -11.8830   76.6540 C.ar  342  TYR342     -0.0009
    235  CD2      -14.2000  -12.3220   78.8580 C.ar  342  TYR342     -0.0009
    236  CE1      -13.5020  -10.5270   76.9070 C.ar  342  TYR342      0.0417
    237  CE2      -14.2770  -10.9450   79.1160 C.ar  342  TYR342      0.0417
    238  CZ       -13.9180  -10.0500   78.1500 C.ar  342  TYR342      0.1957
    239  OH       -13.9610   -8.6530   78.3630 O.3   342  TYR342     -0.2866
@<TRIPOS>BOND
     1    44    45    1
     2    45    46    1
     3    45    48    1
     4   181   179   ar
     5   181   183   ar
     6   179   178   ar
     7    46    47    2
     8     1     2    1
     9   167   168    1
    10   168   171    1
    11   168   169    1
    12    48    49    1
    13   183   182   ar
    14   171   172    1
    15   178   177    1
    16   178   180   ar
    17     4     3    2
    18   173   169   am
    19   173   174    1
    20     2     3    1
    21     2     5    1
    22   177   174    1
    23   176   175    2
    24     3     6   am
    25   169   170    2
    26   202   201    2
    27   209   208    2
    28    49    50    1
    29     6    12    1
    30     6     7    1
    31   182   180   ar
    32    12    11    1
    33     7    10    1
    34     7     8    1
    35   174   175    1
    36   201   200    1
    37   206   207    1
    38   208   207    1
    39    10    11    1
    40   175   184   am
    41    97    98    1
    42   207   210    1
    43    41    42    2
    44    41    40    1
    45    39    40    1
    46    53    54    1
    47    19    18    1
    48    37    36    1
    49    50    52   am
    50    50    51    2
    51    16    15    2
    52    67    68    1
    53   203   200    1
    54   203   204    1
    55    13     8   am
    56    13    14    1
    57    33    32    1
    58    33    34    1
    59    40    43    1
    60     8     9    2
    61   200   199    1
    62    17    18    1
    63    17    14    1
    64   187   186    2
    65    18    20    1
    66    98   101    1
    67    98    99    1
    68   184   185    1
    69    32    29    1
    70    14    15    1
    71    15    21   am
    72   185   186    1
    73   101   102    1
    74    36    38    1
    75    36    35    2
    76   210   211    1
    77   210   212    1
    78    34    35    1
    79    68    71    1
    80    68    69    1
    81   204   205    1
    82   186   188   am
    83    54    57    1
    84    54    55    1
    85   199   205    1
    86   199   190   am
    87   102   103    1
    88   211   213    1
    89   104   103    1
    90   104   105    2
    91    56    55    2
    92   130   131    1
    93   191   190    2
    94   159   160    1
    95   159   156    1
    96    57    58    1
    97    71    72    1
    98   134   131    1
    99   134   135    1
   100    99   100    2
   101   107   105    1
   102   190   189    1
   103   161   160   ar
   104   161   163   ar
   105    21    22    1
   106   160   162   ar
   107    28    29    1
   108    28    23   am
   109   131   132    1
   110    29    30    1
   111   136   135    2
   112   162   164   ar
   113   105   106    1
   114   163   165   ar
   115    69    70    2
   116    22    23    1
   117    22    25    1
   118    30    31    2
   119   164   165   ar
   120   165   166    1
   121   157   158    2
   122   157   156    1
   123   135   137   am
   124   188   189    1
   125    23    24    2
   126    72    74   ar
   127    72    73   ar
   128   156   155    1
   129   189   192    1
   130    58    60   ar
   131    58    59   ar
   132    74    76   ar
   133    26    25    1
   134    63    60   ar
   135    63    65   ar
   136   132   138   am
   137   132   133    2
   138    25    27    1
   139    60    62   ar
   140    73    75   ar
   141   138   139    1
   142   155   149   am
   143    59    61   ar
   144   108   109    1
   145    65    66   ar
   146    76    75   ar
   147   217   216    2
   148   192   193    1
   149   109   112    1
   150   109   110    1
   151    62    61   ar
   152    62    64   ar
   153   139   140    1
   154   139   142    1
   155   149   150    2
   156   149   148    1
   157   216   215    1
   158   216   228   am
   159    66    64   ar
   160   140   141    2
   161   140   147   am
   162   112   113    1
   163   193   194    1
   164   215   214    1
   165   215   218    1
   166   147   148    1
   167   110   111    2
   168   220   222   ar
   169   220   219   ar
   170   230   229    1
   171   230   231    2
   172   229   228    1
   173   229   232    1
   174    84    82   am
   175   148   151    1
   176   142   143    1
   177   222   223   ar
   178   113   114    1
   179   234   236   ar
   180   234   233   ar
   181   218   219    1
   182   219   221   ar
   183   236   238   ar
   184   195   194    1
   185   195   196    2
   186   114   115    1
   187    82    83    2
   188    82    81    1
   189   223   221   ar
   190   223   225   ar
   191   232   233    1
   192   143   144    1
   193    92    94   ar
   194    92    90   ar
   195   233   235   ar
   196   221   224   ar
   197    89    90    1
   198    89    86    1
   199   151   152    1
   200   198   196    1
   201    94    95   ar
   202   196   197    1
   203   225   227   ar
   204    90    91   ar
   205   115   116    2
   206    77    78    1
   207   238   239    1
   208   238   237   ar
   209    81    78    1
   210   224   226   ar
   211   153   152   ar
   212   128   129   ar
   213   128   126   ar
   214    95    96    1
   215    95    93   ar
   216   152   154   ar
   217   129   127   ar
   218    87    86    1
   219    87    88    2
   220   144   145    2
   221   144   146   am
   222    91    93   ar
   223   235   237   ar
   224   126   124   ar
   225    86    85    1
   226   227   226   ar
   227   127   125   ar
   228    78    79    1
   229   124   125   ar
   230   124   123    1
   231   116   117    1
   232   116   118    1
   233   123   120    1
   234    79    80    2
   235   122   121    2
   236   120   119    1
   237   120   121    1
