@<TRIPOS>MOLECULE
tmp/4a3uB01.pdb
 132 128 0 0 0
SMALL
GASTEIGER

@<TRIPOS>ATOM
      1  N        -11.8790   -8.3740   72.1530 N.3    24  THR24      -0.1218
      2  CA       -11.2320   -9.6220   72.5560 C.3    24  THR24       0.1862
      3  C        -12.2910  -10.6330   72.8680 C.2    24  THR24       0.2287
      4  O        -13.1520  -10.4080   73.7610 O.2    24  THR24      -0.2866
      5  CB       -10.3220   -9.3920   73.7820 C.3    24  THR24       0.1770
      6  OG1       -9.2300   -8.5030   73.4440 O.3    24  THR24      -0.2211
      7  CG2       -9.7890  -10.7720   74.3510 C.3    24  THR24       0.0375
      8  N         -8.0020   -7.1970   69.9700 N.3    55  ALA55      -0.1245
      9  CA        -6.6270   -6.8260   70.3100 C.3    55  ALA55       0.1562
     10  C         -5.7640   -7.9860   69.9190 C.2    55  ALA55       0.2260
     11  O         -6.1510   -9.1510   70.1290 O.2    55  ALA55      -0.2867
     12  CB        -6.5610   -6.6120   71.7890 C.3    55  ALA55       0.0290
     13  N         -3.4220  -12.8850   77.2290 N.3    65  TRP65      -0.1241
     14  CA        -4.8490  -13.1750   77.2130 C.3    65  TRP65       0.1605
     15  C         -5.0950  -14.5460   76.6900 C.2    65  TRP65       0.2264
     16  O         -4.7400  -14.8200   75.5560 O.2    65  TRP65      -0.2867
     17  CB        -5.6690  -12.1380   76.4160 C.3    65  TRP65       0.0550
     18  CG        -7.1380  -12.3010   76.7170 C.ar   65  TRP65       0.0003
     19  CD1       -7.9990  -13.3070   76.2930 C.ar   65  TRP65       0.0946
     20  CD2       -7.9260  -11.5130   77.6550 C.ar   65  TRP65       0.0152
     21  NE1       -9.2400  -13.1700   76.8580 N.ar   65  TRP65      -0.2442
     22  CE2       -9.2680  -12.1170   77.6780 C.ar   65  TRP65       0.0810
     23  CE3       -7.6910  -10.3820   78.3990 C.ar   65  TRP65       0.0012
     24  CZ2      -10.2990  -11.5710   78.4020 C.ar   65  TRP65       0.0191
     25  CZ3       -8.7390   -9.8550   79.1480 C.ar   65  TRP65       0.0001
     26  CH2      -10.0150  -10.4390   79.1430 C.ar   65  TRP65       0.0015
     27  N         -1.5610   -5.0150   69.9940 N.3    99  TRP99      -0.1241
     28  CA        -1.5330   -5.0760   71.4850 C.3    99  TRP99       0.1605
     29  C         -0.2360   -5.4150   72.1680 C.2    99  TRP99       0.2264
     30  O          0.4550   -6.3610   71.7990 O.2    99  TRP99      -0.2867
     31  CB        -2.5520   -6.1270   71.8800 C.3    99  TRP99       0.0550
     32  CG        -3.2370   -6.0060   73.1920 C.ar   99  TRP99       0.0003
     33  CD1       -3.3160   -4.8880   74.0500 C.ar   99  TRP99       0.0946
     34  CD2       -4.0900   -7.0490   73.8160 C.ar   99  TRP99       0.0152
     35  NE1       -4.0630   -5.2230   75.1690 N.ar   99  TRP99      -0.2442
     36  CE2       -4.5890   -6.4990   75.0480 C.ar   99  TRP99       0.0810
     37  CE3       -4.4290   -8.3830   73.4740 C.ar   99  TRP99       0.0012
     38  CZ2       -5.4320   -7.2390   75.8940 C.ar   99  TRP99       0.0191
     39  CZ3       -5.2710   -9.0990   74.3350 C.ar   99  TRP99       0.0001
     40  CH2       -5.7360   -8.5560   75.5040 C.ar   99  TRP99       0.0015
     41  N         -2.9790   -0.0620   70.1350 N.3   171  HIS171     -0.1241
     42  CA        -3.6720   -0.0220   71.4140 C.3   171  HIS171      0.1621
     43  C         -2.9070    0.7290   72.4790 C.2   171  HIS171      0.2264
     44  O         -2.0430    0.1500   73.0790 O.2   171  HIS171     -0.2867
     45  CB        -3.8870   -1.4520   71.8910 C.3   171  HIS171      0.0745
     46  CG        -4.9400   -1.6010   72.9830 C.ar  171  HIS171      0.0817
     47  ND1       -5.2770   -0.6070   73.8190 N.ar  171  HIS171     -0.2268
     48  CD2       -5.7220   -2.6920   73.3340 C.ar  171  HIS171      0.1154
     49  CE1       -6.2490   -1.0280   74.6480 C.ar  171  HIS171      0.1986
     50  NE2       -6.5220   -2.3070   74.3530 N.ar  171  HIS171     -0.2212
     51  N         -6.6250    1.5830   78.0990 N.3   174  ASN174     -0.1240
     52  CA        -7.1300    0.5600   79.0400 C.3   174  ASN174      0.1653
     53  C         -6.1640   -0.1110   79.9730 C.2   174  ASN174      0.2266
     54  O         -6.3400   -1.2950   80.3110 O.2   174  ASN174     -0.2867
     55  CB        -7.8670   -0.5100   78.2600 C.3   174  ASN174      0.1155
     56  CG        -8.8600    0.0890   77.3300 C.2   174  ASN174      0.2627
     57  OD1       -9.3580    1.1950   77.5830 O.2   174  ASN174     -0.2716
     58  ND2       -9.1230   -0.5720   76.2560 N.am  174  ASN174     -0.0877
     59  N         -3.0490   -0.9060   79.5340 N.3   176  TYR176     -0.1241
     60  CA        -2.0850   -1.8180   78.9370 C.3   176  TYR176      0.1605
     61  C         -0.7610   -1.0900   78.7780 C.2   176  TYR176      0.2264
     62  O         -0.5750   -0.1200   79.4730 O.2   176  TYR176     -0.2867
     63  CB        -2.6450   -2.4620   77.6760 C.3   176  TYR176      0.0534
     64  CG        -3.7450   -3.4360   78.0400 C.ar  176  TYR176     -0.0201
     65  CD1       -3.4790   -4.5570   78.8380 C.ar  176  TYR176     -0.0009
     66  CD2       -5.0520   -3.2290   77.6120 C.ar  176  TYR176     -0.0009
     67  CE1       -4.4780   -5.4500   79.1680 C.ar  176  TYR176      0.0417
     68  CE2       -6.0540   -4.1130   77.9310 C.ar  176  TYR176      0.0417
     69  CZ        -5.7700   -5.2150   78.7010 C.ar  176  TYR176      0.1957
     70  OH        -6.7920   -6.0290   78.9770 O.3   176  TYR176     -0.2866
     71  N         -5.6290    3.9720   69.6400 N.3   223  ARG223     -0.1245
     72  CA        -6.6090    4.0680   70.7650 C.3   223  ARG223      0.1563
     73  C         -6.0620    4.6000   72.0360 C.2   223  ARG223      0.2260
     74  O         -4.9920    4.1620   72.5360 O.2   223  ARG223     -0.2867
     75  CB        -7.1700    2.7120   71.1730 C.3   223  ARG223      0.0307
     76  CG        -8.6380    2.7800   71.5720 C.3   223  ARG223      0.0489
     77  CD        -9.2680    1.4100   71.8590 C.3   223  ARG223      0.2205
     78  NE       -10.7250    1.4620   71.6250 N.pl3 223  ARG223     -0.0865
     79  CZ       -11.6780    0.9110   72.3920 C.cat 223  ARG223      0.5346
     80  NH1      -11.3930    0.2150   73.5030 N.pl3 223  ARG223      0.1354
     81  NH2      -12.9780    1.1100   72.0520 N.pl3 223  ARG223      0.1354
     82  N         -8.3260    2.3220   85.3440 N.3   230  ILE230     -0.1231
     83  CA        -8.6450    1.0190   84.7330 C.3   230  ILE230      0.1692
     84  C         -7.4650    0.1060   84.9390 C.2   230  ILE230      0.2591
     85  O         -6.3860    0.3930   84.5050 O.2   230  ILE230     -0.2718
     86  CB        -8.9320    1.0970   83.2060 C.3   230  ILE230      0.0266
     87  CG1       -9.1630   -0.3180   82.6230 C.3   230  ILE230      0.0019
     88  CG2       -7.7770    1.7800   82.4440 C.3   230  ILE230      0.0020
     89  CD1       -9.9640   -0.3080   81.3380 C.3   230  ILE230      0.0001
     90  N         -7.6830   -1.0100   85.6060 N.am  231  GLN231     -0.1979
     91  CA        -6.5890   -1.9270   85.8580 C.3   231  GLN231      0.1601
     92  C         -5.4440   -1.2470   86.6370 C.2   231  GLN231      0.2287
     93  O         -4.2440   -1.5690   86.4700 O.2   231  GLN231     -0.2864
     94  CB        -6.1650   -2.5740   84.5170 C.3   231  GLN231      0.0394
     95  CG        -7.2920   -3.4010   83.8620 C.3   231  GLN231      0.0908
     96  CD        -6.8420   -4.2390   82.6500 C.2   231  GLN231      0.2608
     97  OE1       -6.3560   -3.7060   81.6120 O.2   231  GLN231     -0.2717
     98  NE2       -7.0770   -5.5210   82.7350 N.am  231  GLN231     -0.0878
     99  N        -11.8940    5.4640   74.0520 N.3   260  ARG260     -0.1245
    100  CA       -12.9030    4.9340   74.9730 C.3   260  ARG260      0.1563
    101  C        -13.0830    5.9560   76.0930 C.2   260  ARG260      0.2260
    102  O        -12.1320    6.2700   76.8100 O.2   260  ARG260     -0.2867
    103  CB       -12.5100    3.5670   75.5780 C.3   260  ARG260      0.0307
    104  CG       -13.5880    3.0460   76.5530 C.3   260  ARG260      0.0489
    105  CD       -13.1980    1.7060   77.2230 C.3   260  ARG260      0.2205
    106  NE       -11.9920    1.8420   78.0490 N.pl3 260  ARG260     -0.0865
    107  CZ       -11.9010    2.6010   79.1580 C.cat 260  ARG260      0.5346
    108  NH1      -12.9610    3.1930   79.6500 N.pl3 260  ARG260      0.1354
    109  NH2      -10.7610    2.7130   79.8390 N.pl3 260  ARG260      0.1354
    110  N        -18.6990    0.2550   81.1910 N.3   268  PHE268     -0.1241
    111  CA       -17.4090   -0.3910   80.8700 C.3   268  PHE268      0.1605
    112  C        -16.2830    0.5860   81.2210 C.2   268  PHE268      0.2264
    113  O        -15.2950    0.7060   80.5120 O.2   268  PHE268     -0.2867
    114  CB       -17.3480   -0.8060   79.4050 C.3   268  PHE268      0.0534
    115  CG       -16.4820   -2.0030   79.1570 C.ar  268  PHE268     -0.0203
    116  CD1      -17.0040   -3.2790   79.2240 C.ar  268  PHE268     -0.0042
    117  CD2      -15.1120   -1.8410   78.8900 C.ar  268  PHE268     -0.0042
    118  CE1      -16.1850   -4.3800   79.0110 C.ar  268  PHE268     -0.0003
    119  CE2      -14.2990   -2.9290   78.6860 C.ar  268  PHE268     -0.0003
    120  CZ       -14.8320   -4.1980   78.7530 C.ar  268  PHE268     -0.0000
    121  N        -15.8300  -14.5440   76.2710 N.3   342  TYR342     -0.1241
    122  CA       -14.4260  -14.9120   76.2130 C.3   342  TYR342      0.1605
    123  C        -14.1950  -16.4260   76.1890 C.2   342  TYR342      0.2264
    124  O        -13.0730  -16.8910   76.4490 O.2   342  TYR342     -0.2867
    125  CB       -13.6490  -14.3170   77.3910 C.3   342  TYR342      0.0534
    126  CG       -13.7810  -12.8100   77.6290 C.ar  342  TYR342     -0.0201
    127  CD1      -13.4260  -11.8830   76.6540 C.ar  342  TYR342     -0.0009
    128  CD2      -14.2000  -12.3220   78.8580 C.ar  342  TYR342     -0.0009
    129  CE1      -13.5020  -10.5270   76.9070 C.ar  342  TYR342      0.0417
    130  CE2      -14.2770  -10.9450   79.1160 C.ar  342  TYR342      0.0417
    131  CZ       -13.9180  -10.0500   78.1500 C.ar  342  TYR342      0.1957
    132  OH       -13.9610   -8.6530   78.3630 O.3   342  TYR342     -0.2866
@<TRIPOS>BOND
     1    71    72    1
     2    10    11    2
     3    10     9    1
     4     8     9    1
     5    27    28    1
     6    41    42    1
     7     9    12    1
     8    72    75    1
     9    72    73    1
    10    75    76    1
    11    42    45    1
    12    42    43    1
    13    28    31    1
    14    28    29    1
    15    76    77    1
    16    78    77    1
    17    78    79    2
    18    30    29    2
    19    31    32    1
    20    45    46    1
    21    73    74    2
    22    81    79    1
    23     1     2    1
    24    79    80    1
    25    43    44    2
    26     2     3    1
    27     2     5    1
    28     3     4    2
    29    46    48   ar
    30    46    47   ar
    31    32    34   ar
    32    32    33   ar
    33    48    50   ar
    34     6     5    1
    35    37    34   ar
    36    37    39   ar
    37     5     7    1
    38    34    36   ar
    39    47    49   ar
    40    33    35   ar
    41    99   100    1
    42    39    40   ar
    43    50    49   ar
    44   100   103    1
    45   100   101    1
    46    36    35   ar
    47    36    38   ar
    48    40    38   ar
    49    16    15    2
    50   103   104    1
    51   101   102    2
    52   123   122    1
    53   123   124    2
    54   122   121    1
    55   122   125    1
    56    58    56   am
    57    19    18   ar
    58    19    21   ar
    59    17    18    1
    60    17    14    1
    61   104   105    1
    62   127   129   ar
    63   127   126   ar
    64    15    14    1
    65    18    20   ar
    66    21    22   ar
    67   129   131   ar
    68    14    13    1
    69   105   106    1
    70    56    57    2
    71    56    55    1
    72   125   126    1
    73    66    68   ar
    74    66    64   ar
    75   126   128   ar
    76    20    22   ar
    77    20    23   ar
    78    63    64    1
    79    63    60    1
    80    22    24   ar
    81    68    69   ar
    82    64    65   ar
    83   106   107    2
    84    51    52    1
    85   131   132    1
    86   131   130   ar
    87    55    52    1
    88    23    25   ar
    89    24    26   ar
    90   119   120   ar
    91   119   117   ar
    92    69    70    1
    93    69    67   ar
    94   120   118   ar
    95    61    60    1
    96    61    62    2
    97    65    67   ar
    98   128   130   ar
    99   117   115   ar
   100    60    59    1
   101   118   116   ar
   102    52    53    1
   103    26    25   ar
   104   115   116   ar
   105   115   114    1
   106   107   108    1
   107   107   109    1
   108   114   111    1
   109    53    54    2
   110   113   112    2
   111   111   110    1
   112   111   112    1
   113    89    87    1
   114    97    96    2
   115    88    86    1
   116    87    86    1
   117    96    98   am
   118    96    95    1
   119    86    83    1
   120    95    94    1
   121    85    84    2
   122    94    91    1
   123    83    84    1
   124    83    82    1
   125    84    90   am
   126    90    91    1
   127    91    92    1
   128    93    92    2
