@<TRIPOS>MOLECULE
tmp/4a3wA00.pdb
 129 127 0 0 0
SMALL
GASTEIGER

@<TRIPOS>ATOM
      1  N        -35.9220   24.3090    8.9000 N.3    78  MET78      -0.1245
      2  CA       -36.5270   24.0360   10.2000 C.3    78  MET78       0.1570
      3  C        -35.5010   23.4380   11.1560 C.2    78  MET78       0.2261
      4  O        -34.7280   22.5670   10.7700 O.2    78  MET78      -0.2867
      5  CB       -37.6830   23.0380   10.0530 C.3    78  MET78       0.0387
      6  CG       -38.7680   23.4420    9.0680 C.3    78  MET78       0.0595
      7  SD       -39.8670   24.7250    9.6880 S.3    78  MET78      -0.1393
      8  CE       -41.3340   23.7890   10.1030 C.3    78  MET78       0.0692
      9  N        -36.4970   21.6030   13.5640 N.3    80  PHE80      -0.1227
     10  CA       -37.0830   20.2790   13.6600 C.3    80  PHE80       0.1736
     11  C        -38.4980   20.3710   13.1220 C.2    80  PHE80       0.2595
     12  O        -39.0690   21.4600   13.0320 O.2    80  PHE80      -0.2718
     13  CB       -37.1250   19.8130   15.1190 C.3    80  PHE80       0.0547
     14  CG       -38.1880   20.5020   15.9350 C.ar   80  PHE80      -0.0202
     15  CD1      -39.4930   20.0170   15.9530 C.ar   80  PHE80      -0.0042
     16  CD2      -37.8930   21.6490   16.6610 C.ar   80  PHE80      -0.0042
     17  CE1      -40.4790   20.6570   16.6850 C.ar   80  PHE80      -0.0003
     18  CE2      -38.8710   22.2900   17.4050 C.ar   80  PHE80      -0.0003
     19  CZ       -40.1650   21.8010   17.4170 C.ar   80  PHE80      -0.0000
     20  N        -39.0650   19.2320   12.7490 N.am   81  VAL81      -0.1966
     21  CA       -40.4930   19.1570   12.4610 C.3    81  VAL81       0.1727
     22  C        -41.0590   17.9670   13.2260 C.2    81  VAL81       0.2616
     23  O        -40.3270   17.0280   13.5510 O.2    81  VAL81      -0.2715
     24  CB       -40.7890   19.0250   10.9550 C.3    81  VAL81       0.0290
     25  CG1      -40.3250   20.2780   10.2040 C.3    81  VAL81       0.0023
     26  CG2      -40.1300   17.7650   10.3760 C.3    81  VAL81       0.0023
     27  N        -42.3490   18.0220   13.5440 N.am   82  PHE82      -0.1960
     28  CA       -43.0200   16.8980   14.1800 C.3    82  PHE82       0.1771
     29  C        -43.3290   15.8270   13.1380 C.2    82  PHE82       0.2620
     30  O        -43.5670   14.6670   13.4770 O.2    82  PHE82      -0.2715
     31  CB       -44.3250   17.3410   14.8460 C.3    82  PHE82       0.0574
     32  CG       -44.1370   18.2230   16.0520 C.ar   82  PHE82      -0.0200
     33  CD1      -43.4660   17.7590   17.1770 C.ar   82  PHE82      -0.0042
     34  CD2      -44.6640   19.5030   16.0770 C.ar   82  PHE82      -0.0042
     35  CE1      -43.3130   18.5640   18.2970 C.ar   82  PHE82      -0.0003
     36  CE2      -44.5090   20.3070   17.1840 C.ar   82  PHE82      -0.0003
     37  CZ       -43.8270   19.8340   18.3020 C.ar   82  PHE82      -0.0000
     38  N        -43.3360   16.2240   11.8720 N.am   83  GLY83      -0.1940
     39  CA       -43.7260   15.3330   10.8020 C.3    83  GLY83       0.2014
     40  C        -43.8760   16.0670    9.4840 C.2    83  GLY83       0.2639
     41  O        -43.4870   17.2210    9.3590 O.2    83  GLY83      -0.2714
     42  N        -44.4450   15.3870    8.4940 N.am   84  GLU84      -0.1963
     43  CA       -44.6290   15.9590    7.1700 C.3    84  GLU84       0.1733
     44  C        -45.6190   15.1160    6.3780 C.2    84  GLU84       0.2616
     45  O        -45.5520   13.8900    6.4040 O.2    84  GLU84      -0.2715
     46  CB       -43.3010   16.0370    6.4120 C.3    84  GLU84       0.0429
     47  CG       -43.4730   16.6360    5.0000 C.3    84  GLU84       0.1163
     48  CD       -42.1560   16.8850    4.2730 C.2    84  GLU84       0.3649
     49  OE1      -41.0870   16.7860    4.9040 O.co2  84  GLU84      -0.2457
     50  OE2      -42.1940   17.1830    3.0640 O.co2  84  GLU84      -0.2457
     51  N        -46.5310   15.7720    5.6670 N.am   85  ALA85      -0.1977
     52  CA       -47.5540   15.0680    4.9140 C.3    85  ALA85       0.1597
     53  C        -47.6670   15.6160    3.4990 C.2    85  ALA85       0.2287
     54  O        -47.3960   16.7970    3.2490 O.2    85  ALA85      -0.2864
     55  CB       -48.9000   15.1850    5.6150 C.3    85  ALA85       0.0319
     56  N        -50.9340   14.2160   16.7800 N.3   114  GLU114     -0.1245
     57  CA       -50.0580   14.5830   15.6710 C.3   114  GLU114      0.1567
     58  C        -50.2490   13.6140   14.4970 C.2   114  GLU114      0.2260
     59  O        -50.1370   14.0130   13.3510 O.2   114  GLU114     -0.2867
     60  CB       -48.5920   14.6370   16.1150 C.3   114  GLU114      0.0388
     61  CG       -48.2610   15.8430   17.0180 C.3   114  GLU114      0.1160
     62  CD       -48.5760   17.1740   16.3480 C.2   114  GLU114      0.3649
     63  OE1      -47.7180   17.7100   15.6200 O.co2 114  GLU114     -0.2457
     64  OE2      -49.6970   17.6770   16.5270 O.co2 114  GLU114     -0.2457
     65  N        -53.4060   14.8110   12.9030 N.3   117  HIS117     -0.1226
     66  CA       -53.0700   16.0310   12.1780 C.3   117  HIS117      0.1752
     67  C        -52.4680   15.6950   10.8050 C.2   117  HIS117      0.2595
     68  O        -52.9100   16.2170    9.7860 O.2   117  HIS117     -0.2718
     69  CB       -52.0890   16.8630   13.0260 C.3   117  HIS117      0.0759
     70  CG       -51.6170   18.1210   12.3670 C.ar  117  HIS117      0.0818
     71  ND1      -52.1160   19.3670   12.6940 N.ar  117  HIS117     -0.2268
     72  CD2      -50.6650   18.3340   11.4260 C.ar  117  HIS117      0.1154
     73  CE1      -51.5020   20.2880   11.9700 C.ar  117  HIS117      0.1986
     74  NE2      -50.6230   19.6870   11.1890 N.ar  117  HIS117     -0.2212
     75  N        -51.4590   14.8290   10.7810 N.am  118  GLU118     -0.1979
     76  CA       -50.7700   14.4920    9.5380 C.3   118  GLU118      0.1602
     77  C        -51.7310   13.8170    8.5530 C.2   118  GLU118      0.2287
     78  O        -51.7100   14.1160    7.3620 O.2   118  GLU118     -0.2864
     79  CB       -49.5600   13.5890    9.7990 C.3   118  GLU118      0.0415
     80  CG       -48.4410   14.2250   10.6270 C.3   118  GLU118      0.1163
     81  CD       -47.7510   15.4100    9.9330 C.2   118  GLU118      0.3649
     82  OE1      -47.9760   15.6390    8.7280 O.co2 118  GLU118     -0.2457
     83  OE2      -46.9820   16.1300   10.6070 O.co2 118  GLU118     -0.2457
     84  N        -54.0390   16.2540    6.8550 N.3   121  HIS121     -0.1241
     85  CA       -53.3660   16.8480    5.6910 C.3   121  HIS121      0.1621
     86  C        -53.4590   15.9320    4.4720 C.2   121  HIS121      0.2264
     87  O        -53.7350   16.3830    3.3610 O.2   121  HIS121     -0.2867
     88  CB       -51.8800   17.0750    5.9650 C.3   121  HIS121      0.0745
     89  CG       -51.5750   18.3140    6.7450 C.ar  121  HIS121      0.0817
     90  ND1      -52.1490   19.5340    6.4650 N.ar  121  HIS121     -0.2268
     91  CD2      -50.7200   18.5300    7.7770 C.ar  121  HIS121      0.1154
     92  CE1      -51.6780   20.4450    7.2980 C.ar  121  HIS121      0.1986
     93  NE2      -50.8110   19.8590    8.1060 N.ar  121  HIS121     -0.2212
     94  N        -53.9490   23.9010    7.3940 N.3   127  HIS127     -0.1241
     95  CA       -53.9590   24.3850    8.7530 C.3   127  HIS127      0.1621
     96  C        -55.2230   25.1860    9.0610 C.2   127  HIS127      0.2264
     97  O        -55.8110   25.8430    8.1890 O.2   127  HIS127     -0.2867
     98  CB       -52.6980   25.1760    9.0450 C.3   127  HIS127      0.0745
     99  CG       -51.4940   24.3050    9.2010 C.ar  127  HIS127      0.0817
    100  ND1      -50.2250   24.7140    8.8660 N.ar  127  HIS127     -0.2268
    101  CD2      -51.3770   23.0310    9.6420 C.ar  127  HIS127      0.1154
    102  CE1      -49.3750   23.7260    9.0830 C.ar  127  HIS127      0.1986
    103  NE2      -50.0510   22.6950    9.5530 N.ar  127  HIS127     -0.2212
    104  N        -51.6740   24.4800   13.4770 N.3   136  PHE136     -0.1227
    105  CA       -50.2210   24.3600   13.5020 C.3   136  PHE136      0.1736
    106  C        -49.7020   24.4790   14.9330 C.2   136  PHE136      0.2596
    107  O        -50.1720   25.3250   15.6920 O.2   136  PHE136     -0.2718
    108  CB       -49.5860   25.4550   12.6530 C.3   136  PHE136      0.0547
    109  CG       -48.0940   25.5350   12.7860 C.ar  136  PHE136     -0.0202
    110  CD1      -47.2690   24.7300   12.0110 C.ar  136  PHE136     -0.0042
    111  CD2      -47.5120   26.4180   13.6900 C.ar  136  PHE136     -0.0042
    112  CE1      -45.8800   24.7930   12.1380 C.ar  136  PHE136     -0.0003
    113  CE2      -46.1290   26.4940   13.8260 C.ar  136  PHE136     -0.0003
    114  CZ       -45.3090   25.6880   13.0590 C.ar  136  PHE136     -0.0000
    115  N        -48.7350   23.6380   15.2970 N.am  137  SER137     -0.1952
    116  CA       -48.1190   23.6980   16.6270 C.3   137  SER137      0.1924
    117  C        -46.6550   24.0550   16.5180 C.2   137  SER137      0.2314
    118  O        -45.8660   23.3210   15.9130 O.2   137  SER137     -0.2863
    119  CB       -48.2340   22.3600   17.3590 C.3   137  SER137      0.2116
    120  OG       -49.5860   22.0380   17.5950 O.3   137  SER137     -0.2180
    121  N        -53.8480   22.1490   21.7370 N.3   146  LYS146     -0.1245
    122  CA       -54.9100   21.9050   20.7510 C.3   146  LYS146      0.1561
    123  C        -55.6330   20.5920   21.0630 C.2   146  LYS146      0.2260
    124  O        -55.0650   19.7000   21.6880 O.2   146  LYS146     -0.2867
    125  CB       -54.3770   21.9300   19.3080 C.3   146  LYS146      0.0271
    126  CG       -53.5370   20.7300   18.8780 C.3   146  LYS146      0.0035
    127  CD       -52.9060   20.9900   17.4890 C.3   146  LYS146      0.0206
    128  CE       -52.0110   19.8430   17.0280 C.3   146  LYS146      0.1093
    129  NZ       -51.0510   20.2570   15.9260 N.3   146  LYS146     -0.1314
@<TRIPOS>BOND
     1    50    48   ar
     2    54    53    2
     3    87    86    2
     4    53    52    1
     5    48    49   ar
     6    48    47    1
     7    86    85    1
     8    52    55    1
     9    52    51    1
    10    47    46    1
    11    51    44   am
    12    85    88    1
    13    85    84    1
    14    88    89    1
    15    44    45    2
    16    44    43    1
    17    46    43    1
    18    90    89   ar
    19    90    92   ar
    20    89    91   ar
    21    43    42    1
    22    92    93   ar
    23    78    77    2
    24    94    95    1
    25    91    93   ar
    26    97    96    2
    27    42    40   am
    28    77    76    1
    29    82    81   ar
    30    95    98    1
    31    95    96    1
    32   100   102   ar
    33   100    99   ar
    34     1     2    1
    35    98    99    1
    36     6     7    1
    37     6     5    1
    38   102   103   ar
    39    99   101   ar
    40    41    40    2
    41    40    39    1
    42    76    79    1
    43    76    75    1
    44   103   101   ar
    45     7     8    1
    46    68    67    2
    47    79    80    1
    48    81    83   ar
    49    81    80    1
    50     5     2    1
    51     2     3    1
    52    25    24    1
    53    26    24    1
    54     4     3    2
    55    75    67   am
    56    39    38    1
    57    67    66    1
    58    24    21    1
    59    74    72   ar
    60    74    73   ar
    61    72    70   ar
    62    38    29   am
    63    73    71   ar
    64   110   112   ar
    65   110   109   ar
    66   112   114   ar
    67    66    65    1
    68    66    69    1
    69    70    71   ar
    70    70    69    1
    71    21    20    1
    72    21    22    1
    73   108   109    1
    74   108   105    1
    75    20    11   am
    76   109   111   ar
    77    12    11    2
    78   114   113   ar
    79    11    10    1
    80    29    30    2
    81    29    28    1
    82    22    27   am
    83    22    23    2
    84    59    58    2
    85   104   105    1
    86   105   106    1
    87    27    28    1
    88     9    10    1
    89    10    13    1
    90   111   113   ar
    91    28    31    1
    92    58    57    1
    93    31    32    1
    94   106   115   am
    95   106   107    2
    96    13    14    1
    97   115   116    1
    98    63    62   ar
    99    57    60    1
   100    57    56    1
   101   118   117    2
   102   129   128    1
   103    14    15   ar
   104    14    16   ar
   105    15    17   ar
   106    32    34   ar
   107    32    33   ar
   108    34    36   ar
   109    60    61    1
   110    62    64   ar
   111    62    61    1
   112   117   116    1
   113   116   119    1
   114    16    18   ar
   115    17    19   ar
   116   128   127    1
   117    33    35   ar
   118    36    37   ar
   119   119   120    1
   120    18    19   ar
   121   127   126    1
   122    35    37   ar
   123   126   125    1
   124   125   122    1
   125   122   123    1
   126   122   121    1
   127   123   124    2
