@<TRIPOS>MOLECULE
tmp/4a3xA00.pdb
 100 100 0 0 0
SMALL
GASTEIGER

@<TRIPOS>ATOM
      1  N        -17.5720   48.7110    4.7400 N.3    40  TRP40      -0.1241
      2  CA       -16.2090   48.1900    4.9020 C.3    40  TRP40       0.1605
      3  C        -15.2180   49.2740    5.3070 C.2    40  TRP40       0.2264
      4  O        -15.3850   50.4920    4.9580 O.2    40  TRP40      -0.2867
      5  CB       -15.7700   47.4760    3.6090 C.3    40  TRP40       0.0550
      6  CG       -15.9630   48.1630    2.3230 C.ar   40  TRP40       0.0003
      7  CD1      -17.0050   47.9950    1.4260 C.ar   40  TRP40       0.0946
      8  CD2      -15.0670   49.1320    1.7020 C.ar   40  TRP40       0.0152
      9  NE1      -16.7930   48.7320    0.3010 N.ar   40  TRP40      -0.2442
     10  CE2      -15.6250   49.4680    0.4480 C.ar   40  TRP40       0.0810
     11  CE3      -13.8120   49.6520    2.0750 C.ar   40  TRP40       0.0012
     12  CZ2      -15.0020   50.3550   -0.4570 C.ar   40  TRP40       0.0191
     13  CZ3      -13.1810   50.5610    1.2370 C.ar   40  TRP40       0.0001
     14  CH2      -13.7660   50.8800   -0.0520 C.ar   40  TRP40       0.0015
     15  N        -11.1850   30.2740   -2.8970 N.3    73  TYR73      -0.1298
     16  CA       -12.2540   31.1870   -3.2980 C.3    73  TYR73       0.1290
     17  C        -13.3380   30.9740   -2.2290 C.3    73  TYR73       0.2013
     18  O        -13.8240   29.8000   -2.0350 O.3    73  TYR73      -0.2188
     19  CB       -12.8360   30.9410   -4.7580 C.3    73  TYR73       0.0480
     20  CG       -13.6100   32.1870   -5.1370 C.ar   73  TYR73      -0.0204
     21  CD1      -14.8990   32.4480   -4.5430 C.ar   73  TYR73      -0.0009
     22  CD2      -13.0490   33.1680   -5.9910 C.ar   73  TYR73      -0.0009
     23  CE1      -15.5730   33.6640   -4.7840 C.ar   73  TYR73       0.0417
     24  CE2      -13.7090   34.4110   -6.1830 C.ar   73  TYR73       0.0417
     25  CZ       -14.9840   34.5790   -5.6230 C.ar   73  TYR73       0.1957
     26  OH       -15.6040   35.7840   -5.8860 O.3    73  TYR73      -0.2866
     27  N        -23.5150   41.1880    1.6640 N.3    79  GLY79      -0.1225
     28  CA       -22.6490   42.3070    1.9820 C.3    79  GLY79       0.1811
     29  C        -22.7100   42.7610    3.4070 C.2    79  GLY79       0.2280
     30  O        -23.6600   42.5220    4.1730 O.2    79  GLY79      -0.2866
     31  N         -8.8530   38.8440   -3.8090 N.3   125  ASP125     -0.1225
     32  CA        -9.9740   39.6910   -3.4140 C.3   125  ASP125      0.1805
     33  C         -9.8570   39.6220   -1.8730 C.2   125  ASP125      0.2597
     34  O        -10.0940   38.5810   -1.3030 O.2   125  ASP125     -0.2718
     35  CB       -11.2820   39.0280   -3.9190 C.3   125  ASP125      0.1424
     36  CG       -12.5490   39.7120   -3.3460 C.2   125  ASP125      0.3668
     37  OD1      -12.3840   40.5710   -2.4560 O.co2 125  ASP125     -0.2456
     38  OD2      -13.6560   39.3900   -3.9170 O.co2 125  ASP125     -0.2456
     39  N         -9.4340   40.6660   -1.1890 N.am  126  ASP126     -0.1974
     40  CA        -9.2330   42.0630   -1.7150 C.3   126  ASP126      0.1709
     41  C         -7.8190   42.4350   -2.0460 C.2   126  ASP126      0.2293
     42  O         -7.6280   43.2420   -2.9420 O.2   126  ASP126     -0.2864
     43  CB        -9.7550   43.1080   -0.7200 C.3   126  ASP126      0.1436
     44  CG       -11.2430   43.1790   -0.7760 C.2   126  ASP126      0.3671
     45  OD1      -11.8580   43.9000   -1.6940 O.co2 126  ASP126     -0.2456
     46  OD2      -11.9520   42.4330   -0.0710 O.co2 126  ASP126     -0.2456
     47  N         -8.2120   44.0100   -5.5430 N.3   159  TRP159     -0.1241
     48  CA        -9.4600   43.8240   -6.2470 C.3   159  TRP159      0.1605
     49  C        -10.1080   45.2030   -6.5670 C.2   159  TRP159      0.2264
     50  O        -10.0960   46.1350   -5.7500 O.2   159  TRP159     -0.2867
     51  CB       -10.4250   43.0280   -5.3420 C.3   159  TRP159      0.0550
     52  CG       -11.7320   42.7640   -6.0810 C.ar  159  TRP159      0.0003
     53  CD1      -12.0350   41.6850   -6.8810 C.ar  159  TRP159      0.0946
     54  CD2      -12.8610   43.6070   -6.0710 C.ar  159  TRP159      0.0152
     55  NE1      -13.3750   41.8280   -7.4030 N.ar  159  TRP159     -0.2442
     56  CE2      -13.8120   43.0660   -6.9930 C.ar  159  TRP159      0.0810
     57  CE3      -13.1080   44.8730   -5.5060 C.ar  159  TRP159      0.0012
     58  CZ2      -15.0860   43.7070   -7.2360 C.ar  159  TRP159      0.0191
     59  CZ3      -14.3440   45.4890   -5.7740 C.ar  159  TRP159      0.0001
     60  CH2      -15.2900   44.9010   -6.6380 C.ar  159  TRP159      0.0015
     61  N        -11.8020   42.5960    2.8240 N.3   187  ARG187     -0.1231
     62  CA       -12.5410   43.7220    3.4870 C.3   187  ARG187      0.1694
     63  C        -14.0320   43.4580    3.7110 C.2   187  ARG187      0.2592
     64  O        -14.6330   44.0900    4.5860 O.2   187  ARG187     -0.2718
     65  CB       -12.3320   45.0440    2.7030 C.3   187  ARG187      0.0321
     66  CG       -13.3670   45.1640    1.5150 C.3   187  ARG187      0.0489
     67  CD       -12.9340   46.2620    0.4890 C.3   187  ARG187      0.2205
     68  NE       -13.9970   46.3340   -0.5470 N.pl3 187  ARG187     -0.0865
     69  CZ       -13.9750   47.2370   -1.5570 C.cat 187  ARG187      0.5346
     70  NH1      -12.9050   48.0320   -1.7070 N.pl3 187  ARG187      0.1354
     71  NH2      -15.0090   47.3060   -2.4510 N.pl3 187  ARG187      0.1354
     72  N        -14.6240   42.4990    2.9690 N.am  188  GLU188     -0.1966
     73  CA       -16.0710   42.3030    2.9360 C.3   188  GLU188      0.1733
     74  C        -16.3630   41.2330    1.8950 C.2   188  GLU188      0.2616
     75  O        -15.6430   41.1810    0.8970 O.2   188  GLU188     -0.2715
     76  CB       -16.7630   43.6460    2.4310 C.3   188  GLU188      0.0429
     77  CG       -18.2530   43.4790    2.5210 C.3   188  GLU188      0.1163
     78  CD       -19.0240   44.4750    1.6440 C.2   188  GLU188      0.3649
     79  OE1      -18.4740   45.1060    0.6370 O.co2 188  GLU188     -0.2457
     80  OE2      -20.1970   44.6510    1.9630 O.co2 188  GLU188     -0.2457
     81  N        -17.4930   40.5040    2.0660 N.am  189  TYR189     -0.1960
     82  CA       -18.0700   39.6920    0.9750 C.3   189  TYR189      0.1771
     83  C        -17.0750   38.5860    0.5530 C.2   189  TYR189      0.2619
     84  O        -16.3650   38.0100    1.3650 O.2   189  TYR189     -0.2715
     85  CB       -18.5510   40.5800   -0.2080 C.3   189  TYR189      0.0574
     86  CG       -19.6500   39.9210   -1.0470 C.ar  189  TYR189     -0.0198
     87  CD1      -20.8610   39.6180   -0.4490 C.ar  189  TYR189     -0.0009
     88  CD2      -19.4930   39.7730   -2.4080 C.ar  189  TYR189     -0.0009
     89  CE1      -21.8850   39.0570   -1.1710 C.ar  189  TYR189      0.0417
     90  CE2      -20.5590   39.1860   -3.1810 C.ar  189  TYR189      0.0417
     91  CZ       -21.7080   38.8040   -2.5080 C.ar  189  TYR189      0.1957
     92  OH       -22.8450   38.3110   -3.1630 O.3   189  TYR189     -0.2866
     93  N        -17.0230   38.2930   -0.7730 N.am  190  ASP190     -0.1971
     94  CA       -16.1980   37.2120   -1.2160 C.3   190  ASP190      0.1709
     95  C        -14.7060   37.4830   -0.8950 C.2   190  ASP190      0.2293
     96  O        -14.1840   38.6480   -0.8190 O.2   190  ASP190     -0.2864
     97  CB       -16.3130   36.9870   -2.7560 C.3   190  ASP190      0.1436
     98  CG       -17.6630   36.4590   -3.1780 C.2   190  ASP190      0.3671
     99  OD1      -18.5720   36.2960   -2.3440 O.co2 190  ASP190     -0.2456
    100  OD2      -17.7970   36.2370   -4.4300 O.co2 190  ASP190     -0.2456
@<TRIPOS>BOND
     1    55    56   ar
     2    55    53   ar
     3    58    56   ar
     4    58    60   ar
     5    56    54   ar
     6    53    52   ar
     7    60    59   ar
     8    49    48    1
     9    49    50    2
    10    48    47    1
    11    48    51    1
    12    24    22   ar
    13    24    25   ar
    14    52    54   ar
    15    52    51    1
    16    54    57   ar
    17    22    20   ar
    18    26    25    1
    19    59    57   ar
    20    25    23   ar
    21    20    19    1
    22    20    21   ar
    23    23    21   ar
    24    19    16    1
    25   100    98   ar
    26    35    32    1
    27    35    36    1
    28    38    36   ar
    29    31    32    1
    30    32    33    1
    31    36    37   ar
    32    16    15    1
    33    16    17    1
    34    90    91   ar
    35    90    88   ar
    36    98    97    1
    37    98    99   ar
    38    92    91    1
    39    42    41    2
    40    97    94    1
    41    91    89   ar
    42    71    69    1
    43    88    86   ar
    44    17    18    1
    45    41    40    1
    46    33    34    2
    47    33    39   am
    48    40    39    1
    49    40    43    1
    50    70    69    1
    51    45    44   ar
    52    69    68    2
    53    94    95    1
    54    94    93    1
    55    89    87   ar
    56    86    87   ar
    57    86    85    1
    58    95    96    2
    59    44    43    1
    60    44    46   ar
    61    93    83   am
    62    68    67    1
    63    12    14   ar
    64    12    10   ar
    65    85    82    1
    66    14    13   ar
    67     9    10   ar
    68     9     7   ar
    69    10     8   ar
    70    67    66    1
    71    83    82    1
    72    83    84    2
    73    79    78   ar
    74    75    74    2
    75    82    81    1
    76    13    11   ar
    77     7     6   ar
    78    66    65    1
    79    78    80   ar
    80    78    77    1
    81    27    28    1
    82     8    11   ar
    83     8     6   ar
    84    74    81   am
    85    74    73    1
    86    28    29    1
    87     6     5    1
    88    76    77    1
    89    76    73    1
    90    65    62    1
    91    61    62    1
    92    73    72    1
    93    72    63   am
    94    29    30    2
    95    62    63    1
    96     5     2    1
    97    63    64    2
    98     1     2    1
    99     2     3    1
   100     4     3    2
