@<TRIPOS>MOLECULE
tmp/4a4aA00.pdb
 220 215 0 0 0
SMALL
GASTEIGER

@<TRIPOS>ATOM
      1  N        -25.6690   -7.0540   -1.7760 N.3   274  ASN274     -0.1240
      2  CA       -25.1950   -6.8390   -3.1250 C.3   274  ASN274      0.1653
      3  C        -24.8620   -8.2460   -3.5500 C.2   274  ASN274      0.2266
      4  O        -24.4890   -9.0100   -2.7410 O.2   274  ASN274     -0.2867
      5  CB       -23.9050   -6.0010   -3.0880 C.3   274  ASN274      0.1155
      6  CG       -23.4700   -5.4370   -4.4660 C.2   274  ASN274      0.2627
      7  OD1      -23.0300   -6.1480   -5.3110 O.2   274  ASN274     -0.2716
      8  ND2      -23.5300   -4.1600   -4.6150 N.am  274  ASN274     -0.0877
      9  N        -22.1140   -8.8680   -4.7430 N.3   276  CYS276     -0.1235
     10  CA       -20.7150   -8.9440   -4.3010 C.3   276  CYS276      0.1677
     11  C        -20.5880   -9.4320   -2.8400 C.2   276  CYS276      0.2270
     12  O        -19.5490  -10.0300   -2.4530 O.2   276  CYS276     -0.2867
     13  CB       -20.0730   -7.5660   -4.4000 C.3   276  CYS276      0.0956
     14  SG       -19.9410   -6.9780   -6.1020 S.3   276  CYS276     -0.0801
     15  N        -17.2890  -11.2660   -1.3300 N.3   280  TYR280     -0.1241
     16  CA       -16.2590  -10.6390   -0.4480 C.3   280  TYR280      0.1605
     17  C        -16.4210  -10.9260    1.0500 C.2   280  TYR280      0.2264
     18  O        -15.4410  -10.8740    1.8290 O.2   280  TYR280     -0.2867
     19  CB       -16.2270   -9.1260   -0.6560 C.3   280  TYR280      0.0534
     20  CG       -15.7560   -8.7370   -2.0590 C.ar  280  TYR280     -0.0201
     21  CD1      -14.5650   -9.2720   -2.6010 C.ar  280  TYR280     -0.0009
     22  CD2      -16.5020   -7.8500   -2.8260 C.ar  280  TYR280     -0.0009
     23  CE1      -14.1430   -8.9130   -3.8520 C.ar  280  TYR280      0.0417
     24  CE2      -16.0920   -7.5000   -4.1180 C.ar  280  TYR280      0.0417
     25  CZ       -14.9200   -8.0360   -4.6080 C.ar  280  TYR280      0.1957
     26  OH       -14.5080   -7.7070   -5.8930 O.3   280  TYR280     -0.2866
     27  N        -19.9230  -12.6770   -9.4140 N.3   341  TRP341     -0.1241
     28  CA       -19.6470  -12.3080  -10.8240 C.3   341  TRP341      0.1605
     29  C        -20.1160  -13.4160  -11.7440 C.2   341  TRP341      0.2264
     30  O        -20.4080  -13.1820  -12.9320 O.2   341  TRP341     -0.2867
     31  CB       -18.1570  -11.9710  -10.9770 C.3   341  TRP341      0.0550
     32  CG       -17.8690  -10.8770   -9.9760 C.ar  341  TRP341      0.0003
     33  CD1      -18.1380   -9.5630  -10.1190 C.ar  341  TRP341      0.0946
     34  CD2      -17.3710  -11.0550   -8.6390 C.ar  341  TRP341      0.0152
     35  NE1      -17.8320   -8.8840   -8.9380 N.ar  341  TRP341     -0.2442
     36  CE2      -17.3670   -9.7940   -8.0200 C.ar  341  TRP341      0.0810
     37  CE3      -16.8980  -12.1630   -7.9240 C.ar  341  TRP341      0.0012
     38  CZ2      -16.9260   -9.6040   -6.6950 C.ar  341  TRP341      0.0191
     39  CZ3      -16.4600  -11.9810   -6.6130 C.ar  341  TRP341      0.0001
     40  CH2      -16.4810  -10.7150   -6.0150 C.ar  341  TRP341      0.0015
     41  N        -23.8800  -12.3730  -11.8200 N.3   344  MET344     -0.1245
     42  CA       -24.0080  -11.1020  -12.6240 C.3   344  MET344      0.1570
     43  C        -23.5790  -11.2560  -14.1030 C.2   344  MET344      0.2261
     44  O        -23.5320  -10.2610  -14.8290 O.2   344  MET344     -0.2867
     45  CB       -23.3180   -9.9200  -11.9500 C.3   344  MET344      0.0387
     46  CG       -24.0140   -9.4960  -10.6030 C.3   344  MET344      0.0595
     47  SD       -23.3140   -8.0110   -9.8960 S.3   344  MET344     -0.1393
     48  CE       -21.7200   -8.5760   -9.2970 C.3   344  MET344      0.0692
     49  N        -20.7080  -12.0710  -15.5180 N.3   346  ASN346     -0.1240
     50  CA       -19.4180  -11.4680  -15.8800 C.3   346  ASN346      0.1653
     51  C        -18.2750  -12.4740  -16.1360 C.2   346  ASN346      0.2266
     52  O        -17.3310  -12.1110  -16.8100 O.2   346  ASN346     -0.2867
     53  CB       -18.9280  -10.4670  -14.7960 C.3   346  ASN346      0.1155
     54  CG       -19.9350   -9.3540  -14.4720 C.2   346  ASN346      0.2627
     55  OD1      -20.2200   -9.1200  -13.2970 O.2   346  ASN346     -0.2716
     56  ND2      -20.4450   -8.6530  -15.4810 N.am  346  ASN346     -0.0877
     57  N        -14.9170   -9.4300  -19.6590 N.3   408  TRP408     -0.1227
     58  CA       -15.0850   -8.5750  -18.4800 C.3   408  TRP408      0.1737
     59  C        -13.8350   -8.7690  -17.6210 C.2   408  TRP408      0.2595
     60  O        -13.6100   -9.8730  -17.1740 O.2   408  TRP408     -0.2718
     61  CB       -16.3650   -8.9830  -17.7010 C.3   408  TRP408      0.0564
     62  CG       -16.5170   -8.2580  -16.3930 C.ar  408  TRP408      0.0003
     63  CD1      -17.1060   -7.0140  -16.1870 C.ar  408  TRP408      0.0946
     64  CD2      -16.0630   -8.7120  -15.1060 C.ar  408  TRP408      0.0152
     65  NE1      -17.0760   -6.7150  -14.8230 N.ar  408  TRP408     -0.2442
     66  CE2      -16.4450   -7.7360  -14.1500 C.ar  408  TRP408      0.0810
     67  CE3      -15.4240   -9.8870  -14.6580 C.ar  408  TRP408      0.0012
     68  CZ2      -16.1650   -7.8800  -12.7600 C.ar  408  TRP408      0.0191
     69  CZ3      -15.1570  -10.0310  -13.2820 C.ar  408  TRP408      0.0001
     70  CH2      -15.5080   -9.0120  -12.3540 C.ar  408  TRP408      0.0015
     71  N        -13.0090   -7.7240  -17.4570 N.am  409  CYS409     -0.1970
     72  CA       -11.7950   -7.8180  -16.6320 C.3   409  CYS409      0.1712
     73  C        -10.9270   -9.0030  -17.0270 C.2   409  CYS409      0.2296
     74  O        -10.3550   -9.6940  -16.1760 O.2   409  CYS409     -0.2864
     75  CB       -12.1420   -7.8730  -15.1270 C.3   409  CYS409      0.0983
     76  SG       -12.9940   -6.3960  -14.5760 S.3   409  CYS409     -0.0798
     77  N        -24.7870   -6.1960  -17.3890 N.3   457  HIS457     -0.1226
     78  CA       -24.2230   -5.5360  -16.2130 C.3   457  HIS457      0.1752
     79  C        -22.7180   -5.3450  -16.4280 C.2   457  HIS457      0.2595
     80  O        -21.9850   -6.3310  -16.6890 O.2   457  HIS457     -0.2718
     81  CB       -24.5050   -6.3750  -14.9510 C.3   457  HIS457      0.0759
     82  CG       -23.9130   -5.7790  -13.7130 C.ar  457  HIS457      0.0818
     83  ND1      -24.4870   -4.7170  -13.0490 N.ar  457  HIS457     -0.2268
     84  CD2      -22.7620   -6.0560  -13.0600 C.ar  457  HIS457      0.1154
     85  CE1      -23.7230   -4.3700  -12.0340 C.ar  457  HIS457      0.1986
     86  NE2      -22.6710   -5.1680  -12.0170 N.ar  457  HIS457     -0.2212
     87  N        -22.2980   -4.0790  -16.3740 N.am  458  GLN458     -0.1979
     88  CA       -20.9390   -3.6440  -16.6120 C.3   458  GLN458      0.1601
     89  C        -20.4140   -4.1570  -17.9750 C.2   458  GLN458      0.2287
     90  O        -19.2310   -4.4610  -18.1050 O.2   458  GLN458     -0.2864
     91  CB       -20.0020   -4.0490  -15.4480 C.3   458  GLN458      0.0394
     92  CG       -20.2170   -3.1940  -14.1760 C.3   458  GLN458      0.0908
     93  CD       -19.0920   -3.3700  -13.2080 C.2   458  GLN458      0.2608
     94  OE1      -18.3160   -4.3440  -13.3030 O.2   458  GLN458     -0.2717
     95  NE2      -18.9360   -2.4170  -12.3090 N.am  458  GLN458     -0.0878
     96  N        -30.7210   -3.9230  -10.5500 N.3   490  GLN490     -0.1245
     97  CA       -29.7040   -3.0160  -10.0440 C.3   490  GLN490      0.1566
     98  C        -29.5830   -1.7990  -10.9630 C.2   490  GLN490      0.2260
     99  O        -29.4290   -1.9450  -12.1900 O.2   490  GLN490     -0.2867
    100  CB       -28.3540   -3.6990  -10.0110 C.3   490  GLN490      0.0367
    101  CG       -28.2180   -4.8600   -9.0610 C.3   490  GLN490      0.0905
    102  CD       -26.7810   -5.3670   -9.0740 C.2   490  GLN490      0.2608
    103  OE1      -25.8970   -4.7600   -8.4540 O.2   490  GLN490     -0.2717
    104  NE2      -26.5370   -6.4580   -9.7860 N.am  490  GLN490     -0.0878
    105  N        -26.9560    0.7870  -11.9510 N.3   492  TRP492     -0.1227
    106  CA       -25.5100    1.0410  -11.7580 C.3   492  TRP492      0.1737
    107  C        -24.8640    1.5990  -13.0440 C.2   492  TRP492      0.2595
    108  O        -25.0110    1.0080  -14.1070 O.2   492  TRP492     -0.2718
    109  CB       -24.8160   -0.2610  -11.3150 C.3   492  TRP492      0.0564
    110  CG       -23.3190   -0.1250  -11.2010 C.ar  492  TRP492      0.0003
    111  CD1      -22.3770   -0.6870  -12.0310 C.ar  492  TRP492      0.0946
    112  CD2      -22.5850    0.6110  -10.1960 C.ar  492  TRP492      0.0152
    113  NE1      -21.1000   -0.3150  -11.6180 N.ar  492  TRP492     -0.2442
    114  CE2      -21.2060    0.4960  -10.5140 C.ar  492  TRP492      0.0810
    115  CE3      -22.9650    1.4040   -9.0880 C.ar  492  TRP492      0.0012
    116  CZ2      -20.1960    1.1000   -9.7380 C.ar  492  TRP492      0.0191
    117  CZ3      -21.9570    2.0050   -8.2990 C.ar  492  TRP492      0.0001
    118  CH2      -20.5890    1.8450   -8.6300 C.ar  492  TRP492      0.0015
    119  N        -24.1910    2.7350  -12.9260 N.am  493  GLN493     -0.1979
    120  CA       -23.4550    3.3610  -14.0240 C.3   493  GLN493      0.1601
    121  C        -24.3040    3.4540  -15.2960 C.2   493  GLN493      0.2287
    122  O        -23.8610    3.0070  -16.3830 O.2   493  GLN493     -0.2864
    123  CB       -22.1200    2.6510  -14.2740 C.3   493  GLN493      0.0394
    124  CG       -21.1710    2.8900  -13.1120 C.3   493  GLN493      0.0908
    125  CD       -19.8240    2.2100  -13.2410 C.2   493  GLN493      0.2608
    126  OE1      -18.8520    2.6870  -12.6530 O.2   493  GLN493     -0.2717
    127  NE2      -19.7380    1.1430  -14.0350 N.am  493  GLN493     -0.0878
    128  N        -28.3730    1.9670   -6.6430 N.3   515  LEU515     -0.1245
    129  CA       -27.3430    1.2310   -5.8990 C.3   515  LEU515      0.1561
    130  C        -26.4900    2.0610   -4.9560 C.2   515  LEU515      0.2260
    131  O        -25.9730    1.5290   -3.9670 O.2   515  LEU515     -0.2867
    132  CB       -26.3960    0.4700   -6.8340 C.3   515  LEU515      0.0270
    133  CG       -26.0660   -0.9630   -6.4110 C.3   515  LEU515      0.0019
    134  CD1      -27.3200   -1.9160   -6.4750 C.3   515  LEU515      0.0001
    135  CD2      -24.8960   -1.5670   -7.2310 C.3   515  LEU515      0.0001
    136  N        -24.4360    2.1910   -0.4360 N.3   538  LEU538     -0.1245
    137  CA       -23.5270    1.1780   -0.9880 C.3   538  LEU538      0.1561
    138  C        -22.3640    1.0670   -0.0130 C.2   538  LEU538      0.2260
    139  O        -22.1340    0.0040    0.5630 O.2   538  LEU538     -0.2867
    140  CB       -23.0330    1.5820   -2.4040 C.3   538  LEU538      0.0270
    141  CG       -22.5470    0.3910   -3.2680 C.3   538  LEU538      0.0019
    142  CD1      -22.4770    0.7660   -4.7790 C.3   538  LEU538      0.0001
    143  CD2      -21.1940   -0.2560   -2.7910 C.3   538  LEU538      0.0001
    144  N        -16.7780   -0.9800   -0.9170 N.3   541  PHE541     -0.1241
    145  CA       -16.3610   -1.5780   -2.1750 C.3   541  PHE541      0.1605
    146  C        -15.2810   -2.5980   -1.8900 C.2   541  PHE541      0.2264
    147  O        -14.2910   -2.2730   -1.2280 O.2   541  PHE541     -0.2867
    148  CB       -15.8110   -0.4740   -3.0950 C.3   541  PHE541      0.0534
    149  CG       -16.8800    0.3200   -3.7940 C.ar  541  PHE541     -0.0203
    150  CD1      -17.5250    1.4080   -3.1550 C.ar  541  PHE541     -0.0042
    151  CD2      -17.2120    0.0240   -5.1200 C.ar  541  PHE541     -0.0042
    152  CE1      -18.5130    2.1480   -3.8150 C.ar  541  PHE541     -0.0003
    153  CE2      -18.1990    0.7820   -5.7960 C.ar  541  PHE541     -0.0003
    154  CZ       -18.8390    1.8320   -5.1690 C.ar  541  PHE541     -0.0000
    155  N        -20.5850   -4.1020   -0.9070 N.3   576  GLN576     -0.1245
    156  CA       -19.9040   -5.2390   -1.5630 C.3   576  GLN576      0.1566
    157  C        -19.3270   -6.1940   -0.5400 C.2   576  GLN576      0.2260
    158  O        -19.1470   -7.3880   -0.8210 O.2   576  GLN576     -0.2867
    159  CB       -18.8030   -4.7000   -2.4590 C.3   576  GLN576      0.0367
    160  CG       -19.4190   -3.9060   -3.6340 C.3   576  GLN576      0.0905
    161  CD       -18.4080   -3.4990   -4.6960 C.2   576  GLN576      0.2608
    162  OE1      -17.1890   -3.7020   -4.5580 O.2   576  GLN576     -0.2717
    163  NE2      -18.9180   -2.8700   -5.7610 N.am  576  GLN576     -0.0878
    164  N        -15.1140    5.7430   -4.5480 N.3   639  GLN639     -0.1245
    165  CA       -15.5900    4.3750   -4.2940 C.3   639  GLN639      0.1566
    166  C        -14.9050    3.7510   -3.0580 C.2   639  GLN639      0.2260
    167  O        -13.7230    3.3540   -3.1170 O.2   639  GLN639     -0.2867
    168  CB       -15.4040    3.4810   -5.5390 C.3   639  GLN639      0.0367
    169  CG       -16.2680    3.9460   -6.7440 C.3   639  GLN639      0.0905
    170  CD       -16.2650    2.9780   -7.8750 C.2   639  GLN639      0.2608
    171  OE1      -15.4660    2.0630   -7.9060 O.2   639  GLN639     -0.2717
    172  NE2      -17.1390    3.1940   -8.8350 N.am  639  GLN639     -0.0878
    173  N        -10.0900    1.4880   -9.4260 N.3   660  TRP660     -0.1241
    174  CA       -11.1730    2.4630   -9.3400 C.3   660  TRP660      0.1605
    175  C        -11.2000    3.0690   -7.9270 C.2   660  TRP660      0.2264
    176  O        -12.1820    3.7120   -7.5390 O.2   660  TRP660     -0.2867
    177  CB       -12.5240    1.8020   -9.6880 C.3   660  TRP660      0.0550
    178  CG       -12.4960    1.1530  -11.0800 C.ar  660  TRP660      0.0003
    179  CD1      -12.7540    1.7610  -12.3010 C.ar  660  TRP660      0.0946
    180  CD2      -12.1330   -0.1970  -11.3720 C.ar  660  TRP660      0.0152
    181  NE1      -12.5930    0.8300  -13.3250 N.ar  660  TRP660     -0.2442
    182  CE2      -12.1970   -0.3660  -12.7760 C.ar  660  TRP660      0.0810
    183  CE3      -11.7700   -1.2920  -10.5780 C.ar  660  TRP660      0.0012
    184  CZ2      -11.9190   -1.5910  -13.3940 C.ar  660  TRP660      0.0191
    185  CZ3      -11.4860   -2.4990  -11.1910 C.ar  660  TRP660      0.0001
    186  CH2      -11.5510   -2.6380  -12.5990 C.ar  660  TRP660      0.0015
    187  N         -6.9960  -11.4240   -7.3200 N.3   786  TRP786     -0.1241
    188  CA        -8.3900  -11.5750   -7.7460 C.3   786  TRP786      0.1605
    189  C         -8.5470  -12.7180   -8.7590 C.2   786  TRP786      0.2264
    190  O         -9.2410  -13.6980   -8.4910 O.2   786  TRP786     -0.2867
    191  CB        -8.9490  -10.2460   -8.2860 C.3   786  TRP786      0.0550
    192  CG       -10.4550  -10.0570   -8.0650 C.ar  786  TRP786      0.0003
    193  CD1      -11.0540   -9.2440   -7.1430 C.ar  786  TRP786      0.0946
    194  CD2      -11.5270  -10.6860   -8.7990 C.ar  786  TRP786      0.0152
    195  NE1      -12.4420   -9.3070   -7.2710 N.ar  786  TRP786     -0.2442
    196  CE2      -12.7480  -10.2120   -8.2550 C.ar  786  TRP786      0.0810
    197  CE3      -11.5710  -11.6020   -9.8520 C.ar  786  TRP786      0.0012
    198  CZ2      -14.0010  -10.5920   -8.7710 C.ar  786  TRP786      0.0191
    199  CZ3      -12.8210  -11.9980  -10.3470 C.ar  786  TRP786      0.0001
    200  CH2      -14.0140  -11.4920   -9.8070 C.ar  786  TRP786      0.0015
    201  N         -8.0410   -5.8460  -12.0370 N.3   797  LEU797     -0.1245
    202  CA        -8.5580   -6.3080  -10.7250 C.3   797  LEU797      0.1561
    203  C         -7.5350   -6.4510   -9.6090 C.2   797  LEU797      0.2260
    204  O         -7.9200   -6.7350   -8.4730 O.2   797  LEU797     -0.2867
    205  CB        -9.3460   -7.6320  -10.8530 C.3   797  LEU797      0.0270
    206  CG       -10.6470   -7.5000  -11.6660 C.3   797  LEU797      0.0019
    207  CD1      -11.2530   -8.8780  -12.0090 C.3   797  LEU797      0.0001
    208  CD2      -11.6720   -6.6720  -10.8830 C.3   797  LEU797      0.0001
    209  N         -8.0670   -5.3970   -5.8720 N.3   800  TYR800     -0.1241
    210  CA        -9.3970   -4.7730   -5.7660 C.3   800  TYR800      0.1605
    211  C         -9.9530   -4.9940   -4.3460 C.2   800  TYR800      0.2264
    212  O        -10.6080   -4.0950   -3.7570 O.2   800  TYR800     -0.2867
    213  CB       -10.3630   -5.3510   -6.8210 C.3   800  TYR800      0.0534
    214  CG       -11.7170   -4.6870   -6.7600 C.ar  800  TYR800     -0.0201
    215  CD1      -12.7040   -5.1520   -5.8450 C.ar  800  TYR800     -0.0009
    216  CD2      -11.9810   -3.5490   -7.4960 C.ar  800  TYR800     -0.0009
    217  CE1      -13.9480   -4.5030   -5.7190 C.ar  800  TYR800      0.0417
    218  CE2      -13.2480   -2.9270   -7.4310 C.ar  800  TYR800      0.0417
    219  CZ       -14.2070   -3.3960   -6.5290 C.ar  800  TYR800      0.1957
    220  OH       -15.4240   -2.7600   -6.3840 O.3   800  TYR800     -0.2866
@<TRIPOS>BOND
     1    57    58    1
     2    58    61    1
     3    58    59    1
     4    90    89    2
     5    89    88    1
     6    61    62    1
     7    59    71   am
     8    59    60    2
     9    71    72    1
    10    77    78    1
    11    73    72    1
    12    73    74    2
    13    52    51    2
    14    80    79    2
    15    72    75    1
    16    88    87    1
    17    88    91    1
    18    79    87   am
    19    79    78    1
    20    62    63   ar
    21    62    64   ar
    22   122   121    2
    23    78    81    1
    24    63    65   ar
    25    51    50    1
    26    50    49    1
    27    50    53    1
    28    56    54   am
    29    91    92    1
    30   121   120    1
    31    75    76    1
    32    64    67   ar
    33    64    66   ar
    34    81    82    1
    35    44    43    2
    36    65    66   ar
    37    53    54    1
    38    67    69   ar
    39    54    55    2
    40   123   120    1
    41   123   124    1
    42    92    93    1
    43    66    68   ar
    44   108   107    2
    45    43    42    1
    46   127   125   am
    47   120   119    1
    48    82    84   ar
    49    82    83   ar
    50   184   182   ar
    51   184   186   ar
    52   181   182   ar
    53   181   179   ar
    54    94    93    2
    55    69    70   ar
    56   125   124    1
    57   125   126    2
    58    93    95   am
    59    84    86   ar
    60    83    85   ar
    61   107   119   am
    62   107   106    1
    63    30    29    2
    64   182   180   ar
    65    68    70   ar
    66    42    45    1
    67    42    41    1
    68   186   185   ar
    69   179   178   ar
    70    99    98    2
    71   201   202    1
    72    85    86   ar
    73   111   113   ar
    74   111   110   ar
    75   207   206    1
    76   105   106    1
    77    45    46    1
    78   106   109    1
    79    29    28    1
    80   206   208    1
    81   206   205    1
    82   113   114   ar
    83   180   178   ar
    84   180   183   ar
    85   109   110    1
    86   110   112   ar
    87   185   183   ar
    88   178   177    1
    89    31    28    1
    90    31    32    1
    91    98    97    1
    92   205   202    1
    93    28    27    1
    94   202   203    1
    95    46    47    1
    96    96    97    1
    97   114   112   ar
    98   114   116   ar
    99   199   197   ar
   100   199   200   ar
   101   112   115   ar
   102    33    32   ar
   103    33    35   ar
   104    97   100    1
   105   100   101    1
   106    32    34   ar
   107    47    48    1
   108   197   194   ar
   109   200   198   ar
   110   104   102   am
   111   116   118   ar
   112   177   174    1
   113   203   204    2
   114   173   174    1
   115   174   175    1
   116   115   117   ar
   117   102   101    1
   118   102   103    2
   119    35    36   ar
   120   172   170   am
   121   194   196   ar
   122   194   192   ar
   123   198   196   ar
   124   189   190    2
   125   189   188    1
   126    34    36   ar
   127    34    37   ar
   128   118   117   ar
   129   191   192    1
   130   191   188    1
   131   196   195   ar
   132   192   193   ar
   133    36    38   ar
   134   175   176    2
   135    37    39   ar
   136   171   170    2
   137   170   169    1
   138   188   187    1
   139   216   218   ar
   140   216   214   ar
   141   218   219   ar
   142   195   193   ar
   143   135   133    1
   144   132   133    1
   145   132   129    1
   146   213   214    1
   147   213   210    1
   148   214   215   ar
   149   169   168    1
   150    38    40   ar
   151   128   129    1
   152    39    40   ar
   153   219   220    1
   154   219   217   ar
   155   134   133    1
   156    14    13    1
   157   129   130    1
   158    26    25    1
   159   209   210    1
   160   215   217   ar
   161   153   154   ar
   162   153   151   ar
   163   210   211    1
   164   163   161   am
   165   168   165    1
   166     7     6    2
   167   154   152   ar
   168   151   149   ar
   169   130   131    2
   170   142   141    1
   171     9    10    1
   172   161   162    2
   173   161   160    1
   174     8     6   am
   175    25    24   ar
   176    25    23   ar
   177   164   165    1
   178     6     5    1
   179    13    10    1
   180   211   212    2
   181    10    11    1
   182   165   166    1
   183    24    22   ar
   184    23    21   ar
   185   152   150   ar
   186   149   150   ar
   187   149   148    1
   188   160   159    1
   189     3     2    1
   190     3     4    2
   191   141   143    1
   192   141   140    1
   193     2     5    1
   194     2     1    1
   195   167   166    2
   196   148   145    1
   197    11    12    2
   198    22    20   ar
   199    21    20   ar
   200   159   156    1
   201   140   137    1
   202   145   146    1
   203   145   144    1
   204    20    19    1
   205   146   147    2
   206   156   155    1
   207   156   157    1
   208    15    16    1
   209   137   136    1
   210   137   138    1
   211   158   157    2
   212    19    16    1
   213    16    17    1
   214   138   139    2
   215    17    18    2
