@<TRIPOS>MOLECULE
tmp/4a4lA01.pdb
 174 163 0 0 0
SMALL
GASTEIGER

@<TRIPOS>ATOM
      1  N         22.0660   44.8440   10.7260 N.3    19  ARG19      -0.1245
      2  CA        21.7120   46.2550   10.7880 C.3    19  ARG19       0.1563
      3  C         20.3420   46.5510   11.3980 C.2    19  ARG19       0.2260
      4  O         19.3780   45.7910   11.2400 O.2    19  ARG19      -0.2867
      5  CB        21.8030   46.8890    9.3960 C.3    19  ARG19       0.0307
      6  CG        20.7950   46.3790    8.3600 C.3    19  ARG19       0.0489
      7  CD        20.6690   47.3680    7.1660 C.3    19  ARG19       0.2205
      8  NE        19.8430   46.9120    6.0370 N.pl3  19  ARG19      -0.0865
      9  CZ        19.5620   45.6420    5.7460 C.cat  19  ARG19       0.5346
     10  NH1       20.0310   44.6540    6.4980 N.pl3  19  ARG19       0.1354
     11  NH2       18.8170   45.3520    4.6860 N.pl3  19  ARG19       0.1354
     12  N         16.7540   48.2840   12.0500 N.3    21  LEU21      -0.1231
     13  CA        15.6430   48.5080   11.1310 C.3    21  LEU21       0.1693
     14  C         14.6010   49.4880   11.6860 C.2    21  LEU21       0.2593
     15  O         14.1250   50.3700   10.9720 O.2    21  LEU21      -0.2718
     16  CB        14.9980   47.1650   10.7840 C.3    21  LEU21       0.0284
     17  CG        16.0050   46.1010   10.3100 C.3    21  LEU21       0.0019
     18  CD1       15.3510   44.7190   10.1390 C.3    21  LEU21       0.0001
     19  CD2       16.6170   46.5710    9.0070 C.3    21  LEU21       0.0001
     20  N         14.2500   49.3520   12.9570 N.am   22  GLY22      -0.1942
     21  CA        13.2610   50.2570   13.5130 C.3    22  GLY22       0.2014
     22  C         12.6890   49.8180   14.8460 C.2    22  GLY22       0.2639
     23  O         13.2890   49.0190   15.5460 O.2    22  GLY22      -0.2714
     24  N         11.5210   50.3480   15.1880 N.am   23  LYS23      -0.1963
     25  CA        10.8650   50.0240   16.4510 C.3    23  LYS23       0.1728
     26  C          9.6390   49.1040   16.3180 C.2    23  LYS23       0.2616
     27  O          8.8240   49.2430   15.4010 O.2    23  LYS23      -0.2715
     28  CB        10.4380   51.3110   17.1690 C.3    23  LYS23       0.0311
     29  CG        11.5220   52.3580   17.2330 C.3    23  LYS23       0.0038
     30  CD        12.8540   51.7620   17.6640 C.3    23  LYS23       0.0206
     31  CE        13.4770   52.5780   18.7840 C.3    23  LYS23       0.1093
     32  NZ        13.1750   54.0410   18.6590 N.3    23  LYS23      -0.1314
     33  N          9.5300   48.1610   17.2510 N.am   24  GLY24      -0.1955
     34  CA         8.2810   47.9690   17.9710 C.3    24  GLY24       0.1869
     35  C          8.2670   48.9770   19.1110 C.2    24  GLY24       0.2309
     36  O          9.2770   49.6510   19.3540 O.2    24  GLY24      -0.2863
     37  N         14.5080   46.2860   16.2730 N.3    29  CYS29      -0.1235
     38  CA        14.6770   45.1470   15.3620 C.3    29  CYS29       0.1677
     39  C         15.9220   45.2840   14.4870 C.2    29  CYS29       0.2270
     40  O         16.3210   46.3780   14.1350 O.2    29  CYS29      -0.2867
     41  CB        13.4570   44.9880   14.4430 C.3    29  CYS29       0.0956
     42  SG        11.8470   45.2290   15.2410 S.3    29  CYS29      -0.0801
     43  N         14.5330   38.7900   10.3190 N.3    42  ALA42      -0.1245
     44  CA        14.3960   39.9490   11.1780 C.3    42  ALA42       0.1562
     45  C         14.3170   39.4770   12.6310 C.2    42  ALA42       0.2260
     46  O         13.5210   38.5870   12.9680 O.2    42  ALA42      -0.2867
     47  CB        13.1340   40.7360   10.7960 C.3    42  ALA42       0.0290
     48  N         13.3010   40.7730   16.3340 N.3    44  LYS44      -0.1245
     49  CA        12.6390   41.7850   17.1570 C.3    44  LYS44       0.1561
     50  C         13.0560   41.5990   18.6160 C.2    44  LYS44       0.2260
     51  O         12.6280   40.6540   19.2700 O.2    44  LYS44      -0.2867
     52  CB        11.1200   41.6540   17.0250 C.3    44  LYS44       0.0271
     53  CG        10.3230   42.6430   17.8520 C.3    44  LYS44       0.0035
     54  CD         8.8630   42.5650   17.4600 C.3    44  LYS44       0.0206
     55  CE         7.9910   43.4640   18.2990 C.3    44  LYS44       0.1093
     56  NZ         6.5970   43.6080   17.7300 N.3    44  LYS44      -0.1314
     57  N          3.3890   38.1000    8.3600 N.3    76  VAL76      -0.1245
     58  CA         4.8190   37.9450    8.5910 C.3    76  VAL76       0.1561
     59  C          5.1730   36.6110    9.2650 C.2    76  VAL76       0.2260
     60  O          4.7140   36.3180   10.3550 O.2    76  VAL76      -0.2867
     61  CB         5.3780   39.1120    9.4540 C.3    76  VAL76       0.0252
     62  CG1        6.8870   38.8860    9.7500 C.3    76  VAL76       0.0019
     63  CG2        5.1740   40.4340    8.7230 C.3    76  VAL76       0.0019
     64  N         11.6990   36.6740   12.9230 N.3    92  LEU92      -0.1231
     65  CA        10.6500   36.8530   11.9290 C.3    92  LEU92       0.1693
     66  C         11.1610   36.7830   10.4940 C.2    92  LEU92       0.2592
     67  O         12.3380   37.0860   10.2190 O.2    92  LEU92      -0.2718
     68  CB         9.9680   38.1830   12.1510 C.3    92  LEU92       0.0284
     69  CG         9.5390   38.4660   13.5820 C.3    92  LEU92       0.0019
     70  CD1        8.9320   39.8530   13.6480 C.3    92  LEU92       0.0001
     71  CD2        8.5330   37.4310   14.0270 C.3    92  LEU92       0.0001
     72  N         10.2750   36.3760    9.5860 N.am   93  GLU93      -0.1966
     73  CA        10.5290   36.4370    8.1290 C.3    93  GLU93       0.1733
     74  C         10.9640   37.8600    7.7820 C.2    93  GLU93       0.2616
     75  O         10.3020   38.8210    8.1670 O.2    93  GLU93      -0.2715
     76  CB         9.2330   36.0760    7.3880 C.3    93  GLU93       0.0429
     77  CG         9.1930   36.3020    5.8740 C.3    93  GLU93       0.1163
     78  CD         7.7930   36.0150    5.2810 C.2    93  GLU93       0.3649
     79  OE1        6.8310   35.8440    6.0670 O.co2  93  GLU93      -0.2457
     80  OE2        7.6440   35.9560    4.0280 O.co2  93  GLU93      -0.2457
     81  N         12.0840   38.0140    7.0830 N.am   94  LEU94      -0.1963
     82  CA        12.5550   39.3580    6.7880 C.3    94  LEU94       0.1728
     83  C         11.8200   39.9270    5.5860 C.2    94  LEU94       0.2616
     84  O         11.7890   39.3210    4.5160 O.2    94  LEU94      -0.2715
     85  CB        14.0600   39.3780    6.5050 C.3    94  LEU94       0.0311
     86  CG        14.5760   40.8080    6.2720 C.3    94  LEU94       0.0022
     87  CD1       14.7750   41.5120    7.5960 C.3    94  LEU94       0.0001
     88  CD2       15.8770   40.7710    5.5190 C.3    94  LEU94       0.0001
     89  N         11.2340   41.1060    5.7520 N.am   95  CYS95      -0.1954
     90  CA        10.6230   41.7800    4.6110 C.3    95  CYS95       0.1843
     91  C         11.5460   42.8370    4.0030 C.2    95  CYS95       0.2625
     92  O         11.7740   43.9070    4.5900 O.2    95  CYS95      -0.2714
     93  CB         9.3030   42.3870    5.0450 C.3    95  CYS95       0.0997
     94  SG         8.2120   41.0890    5.6480 S.3    95  CYS95      -0.0797
     95  N         12.0780   42.5250    2.8240 N.am   96  ARG96      -0.1977
     96  CA        13.2340   43.2340    2.3260 C.3    96  ARG96       0.1597
     97  C         12.9260   44.6020    1.7500 C.2    96  ARG96       0.2287
     98  O         13.8260   45.3710    1.4850 O.2    96  ARG96      -0.2864
     99  CB        13.9860   42.3680    1.2990 C.3    96  ARG96       0.0334
    100  CG        14.8730   41.3220    1.9680 C.3    96  ARG96       0.0492
    101  CD        15.8830   40.6690    1.0230 C.3    96  ARG96       0.2205
    102  NE        17.0090   40.0810    1.7670 N.pl3  96  ARG96      -0.0865
    103  CZ        18.0970   40.7600    2.1600 C.cat  96  ARG96       0.5346
    104  NH1       18.2250   42.0610    1.8800 N.pl3  96  ARG96       0.1354
    105  NH2       19.0540   40.1470    2.8580 N.pl3  96  ARG96       0.1354
    106  N         10.9280   46.9950    3.3760 N.3    98  ARG98      -0.1231
    107  CA        10.3840   47.8370    4.4430 C.3    98  ARG98       0.1694
    108  C          8.8570   47.6950    4.5600 C.2    98  ARG98       0.2592
    109  O          8.3670   46.5810    4.6200 O.2    98  ARG98      -0.2718
    110  CB        10.8120   49.3150    4.2450 C.3    98  ARG98       0.0321
    111  CG        12.1630   49.4920    3.5130 C.3    98  ARG98       0.0489
    112  CD        13.1860   50.4700    4.1420 C.3    98  ARG98       0.2205
    113  NE        12.9310   51.8960    3.8970 N.pl3  98  ARG98      -0.0865
    114  CZ        12.7620   52.4710    2.7010 C.cat  98  ARG98       0.5346
    115  NH1       12.8090   51.7510    1.5770 N.pl3  98  ARG98       0.1354
    116  NH2       12.5560   53.7860    2.6230 N.pl3  98  ARG98       0.1354
    117  N          8.1080   48.8000    4.6220 N.am   99  SER99      -0.1952
    118  CA         6.6430   48.7320    4.7470 C.3    99  SER99       0.1924
    119  C          5.9170   49.7210    3.8470 C.2    99  SER99       0.2314
    120  O          6.5420   50.5410    3.1840 O.2    99  SER99      -0.2863
    121  CB         6.2000   48.9730    6.1950 C.3    99  SER99       0.2116
    122  OG         5.9540   50.3460    6.4830 O.3    99  SER99      -0.2180
    123  N          4.4450   52.2350    4.7260 N.3   101  LEU101     -0.1231
    124  CA         4.6140   53.6020    5.2350 C.3   101  LEU101      0.1693
    125  C          5.6990   54.3370    4.4320 C.2   101  LEU101      0.2591
    126  O          5.5350   55.4860    3.9950 O.2   101  LEU101     -0.2718
    127  CB         5.0150   53.5930    6.7260 C.3   101  LEU101      0.0284
    128  CG         5.0620   54.9990    7.3720 C.3   101  LEU101      0.0019
    129  CD1        3.6520   55.6070    7.2950 C.3   101  LEU101      0.0001
    130  CD2        5.5360   54.9620    8.8410 C.3   101  LEU101      0.0001
    131  N          6.8120   53.6600    4.2300 N.am  102  GLU102     -0.1979
    132  CA         7.9110   54.2560    3.5120 C.3   102  GLU102      0.1602
    133  C          7.5030   54.4650    2.0620 C.2   102  GLU102      0.2287
    134  O          7.8910   55.4550    1.4270 O.2   102  GLU102     -0.2864
    135  CB         9.1550   53.3580    3.6260 C.3   102  GLU102      0.0415
    136  CG         9.8110   53.4090    5.0350 C.3   102  GLU102      0.1163
    137  CD         8.9760   52.6960    6.1080 C.2   102  GLU102      0.3649
    138  OE1        8.2920   51.7180    5.7580 O.co2 102  GLU102     -0.2457
    139  OE2        9.0020   53.0960    7.2960 O.co2 102  GLU102     -0.2457
    140  N          2.6020   51.2900    8.5290 N.3   142  GLY142     -0.1210
    141  CA         3.9250   50.8960    8.9960 C.3   142  GLY142      0.1956
    142  C          3.9710   49.4690    9.5150 C.2   142  GLY142      0.2611
    143  O          5.0330   48.9410    9.8290 O.2   142  GLY142     -0.2717
    144  N          2.7880   48.8670    9.6020 N.am  143  ASN143     -0.1974
    145  CA         2.5830   47.4750    9.9700 C.3   143  ASN143      0.1688
    146  C          2.4670   46.5860    8.7630 C.2   143  ASN143      0.2292
    147  O          2.5120   45.3680    8.8750 O.2   143  ASN143     -0.2864
    148  CB         1.2880   47.3420   10.7440 C.3   143  ASN143      0.1181
    149  CG         1.5220   47.4470   12.1540 C.2   143  ASN143      0.2629
    150  OD1        2.6790   47.3270   12.5720 O.2   143  ASN143     -0.2716
    151  ND2        0.4680   47.6950   12.9450 N.am  143  ASN143     -0.0877
    152  N          4.1440   45.3150    5.9330 N.3   145  PHE145     -0.1241
    153  CA         5.4670   45.0840    5.3670 C.3   145  PHE145      0.1605
    154  C          5.4670   44.4970    3.9580 C.2   145  PHE145      0.2264
    155  O          4.4820   43.8810    3.4990 O.2   145  PHE145     -0.2867
    156  CB         6.2380   44.1630    6.3060 C.3   145  PHE145      0.0534
    157  CG         6.3440   44.7010    7.7130 C.ar  145  PHE145     -0.0203
    158  CD1        5.3570   44.4310    8.6480 C.ar  145  PHE145     -0.0042
    159  CD2        7.4250   45.5050    8.0900 C.ar  145  PHE145     -0.0042
    160  CE1        5.4380   44.9430    9.9230 C.ar  145  PHE145     -0.0003
    161  CE2        7.5090   46.0260    9.3690 C.ar  145  PHE145     -0.0003
    162  CZ         6.5170   45.7450   10.2890 C.ar  145  PHE145     -0.0000
    163  N          2.1870   42.4270    9.9590 N.3   155  GLY155     -0.1210
    164  CA         3.0260   42.1560   11.1080 C.3   155  GLY155      0.1956
    165  C          2.6700   43.0460   12.2890 C.2   155  GLY155      0.2611
    166  O          1.7090   43.8560   12.2660 O.2   155  GLY155     -0.2717
    167  N          3.4640   42.8910   13.3350 N.am  156  ASP156     -0.1973
    168  CA         3.2240   43.5100   14.6230 C.3   156  ASP156      0.1709
    169  C          1.8960   43.1380   15.2540 C.2   156  ASP156      0.2293
    170  O          0.9150   43.8810   15.1880 O.2   156  ASP156     -0.2864
    171  CB         3.3300   45.0460   14.5490 C.3   156  ASP156      0.1436
    172  CG         3.6120   45.6670   15.9280 C.2   156  ASP156      0.3671
    173  OD1        3.2570   45.0600   16.9570 O.co2 156  ASP156     -0.2456
    174  OD2        4.1930   46.7580   15.9940 O.co2 156  ASP156     -0.2456
@<TRIPOS>BOND
     1   101   102    1
     2   101   100    1
     3    99   100    1
     4    99    96    1
     5   134   133    2
     6    98    97    2
     7   115   114    1
     8    97    96    1
     9   102   103    2
    10   104   103    1
    11   133   132    1
    12   103   105    1
    13    96    95    1
    14   116   114    1
    15   114   113    2
    16    95    91   am
    17   120   119    2
    18   106   107    1
    19   155   154    2
    20   132   135    1
    21   132   131    1
    22   111   112    1
    23   111   110    1
    24   135   136    1
    25   119   118    1
    26   113   112    1
    27   154   153    1
    28   126   125    2
    29    91    92    2
    30    91    90    1
    31    80    78   ar
    32   131   125   am
    33   110   107    1
    34   125   124    1
    35   107   108    1
    36    84    83    2
    37   108   109    2
    38   108   117   am
    39    90    93    1
    40    90    89    1
    41   117   118    1
    42    11     9    1
    43   123   124    1
    44   118   121    1
    45   136   137    1
    46    93    94    1
    47   124   127    1
    48    78    77    1
    49    78    79   ar
    50   153   152    1
    51   153   156    1
    52    88    86    1
    53    83    89   am
    54    83    82    1
    55     9     8    2
    56     9    10    1
    57   138   137   ar
    58    77    76    1
    59     8     7    1
    60   137   139   ar
    61   121   122    1
    62    86    85    1
    63    86    87    1
    64   156   157    1
    65    85    82    1
    66   127   128    1
    67    82    81    1
    68    81    74   am
    69     7     6    1
    70   129   128    1
    71   128   130    1
    72    76    73    1
    73   157   159   ar
    74   157   158   ar
    75    74    73    1
    76    74    75    2
    77   159   161   ar
    78    73    72    1
    79     6     5    1
    80    57    58    1
    81   140   141    1
    82    58    59    1
    83    58    61    1
    84   158   160   ar
    85    63    61    1
    86   146   147    2
    87   146   145    1
    88   141   142    1
    89    19    17    1
    90    59    60    2
    91   161   162   ar
    92     5     2    1
    93    61    62    1
    94   142   144   am
    95   142   143    2
    96    72    66   am
    97   144   145    1
    98   160   162   ar
    99   163   164    1
   100   145   148    1
   101    18    17    1
   102    67    66    2
   103    17    16    1
   104    43    44    1
   105    66    65    1
   106     1     2    1
   107   148   149    1
   108    16    13    1
   109     2     3    1
   110    47    44    1
   111    15    14    2
   112   164   165    1
   113    13    14    1
   114    13    12    1
   115    44    45    1
   116     4     3    2
   117    14    20   am
   118    65    68    1
   119    65    64    1
   120    68    69    1
   121   149   150    2
   122   149   151   am
   123   166   165    2
   124   165   167   am
   125    45    46    2
   126    20    21    1
   127   167   168    1
   128    21    22    1
   129    69    70    1
   130    69    71    1
   131    40    39    2
   132    41    42    1
   133    41    38    1
   134    39    38    1
   135   171   168    1
   136   171   172    1
   137   168   169    1
   138    22    24   am
   139    22    23    2
   140    24    25    1
   141   170   169    2
   142    38    37    1
   143    27    26    2
   144   172   174   ar
   145   172   173   ar
   146    26    25    1
   147    26    33   am
   148    48    49    1
   149    25    28    1
   150    52    49    1
   151    52    53    1
   152    49    50    1
   153    28    29    1
   154    29    30    1
   155    33    34    1
   156    54    53    1
   157    54    55    1
   158    30    31    1
   159    56    55    1
   160    34    35    1
   161    50    51    2
   162    32    31    1
   163    35    36    2
