@<TRIPOS>MOLECULE
tmp/4a4oA01.pdb
 179 167 0 0 0
SMALL
GASTEIGER

@<TRIPOS>ATOM
      1  N         21.5740   44.4130   10.7060 N.3    19  ARG19      -0.1245
      2  CA        21.4070   45.8660   10.7590 C.3    19  ARG19       0.1563
      3  C         20.0800   46.2750   11.3640 C.2    19  ARG19       0.2260
      4  O         19.1220   45.4980   11.3670 O.2    19  ARG19      -0.2867
      5  CB        21.4910   46.4670    9.3560 C.3    19  ARG19       0.0307
      6  CG        20.2890   46.1470    8.4740 C.3    19  ARG19       0.0489
      7  CD        20.2250   47.0260    7.2220 C.3    19  ARG19       0.2205
      8  NE        19.1750   46.5820    6.3080 N.pl3  19  ARG19      -0.0865
      9  CZ        19.3490   45.6610    5.3660 C.cat  19  ARG19       0.5346
     10  NH1       20.5350   45.0880    5.2100 N.pl3  19  ARG19       0.1354
     11  NH2       18.3360   45.3000    4.5880 N.pl3  19  ARG19       0.1354
     12  N         16.4520   47.9600   11.6240 N.3    21  LEU21      -0.1231
     13  CA        15.3660   48.0880   10.6690 C.3    21  LEU21       0.1693
     14  C         14.3490   49.1050   11.1740 C.2    21  LEU21       0.2593
     15  O         14.1080   50.1290   10.5350 O.2    21  LEU21      -0.2718
     16  CB        14.6830   46.7320   10.4520 C.3    21  LEU21       0.0284
     17  CG        15.5530   45.5830    9.9350 C.3    21  LEU21       0.0019
     18  CD1       14.6960   44.3810    9.5540 C.3    21  LEU21       0.0001
     19  CD2       16.3240   46.0690    8.7350 C.3    21  LEU21       0.0001
     20  N         13.7600   48.8280   12.3280 N.am   22  GLY22      -0.1942
     21  CA        12.6660   49.6510   12.7950 C.3    22  GLY22       0.2014
     22  C         12.4450   49.4280   14.2690 C.2    22  GLY22       0.2639
     23  O         13.2050   48.7290   14.9340 O.2    22  GLY22      -0.2714
     24  N         11.4010   50.0280   14.8000 N.am   23  LYS23      -0.1963
     25  CA        11.0940   49.7950   16.1890 C.3    23  LYS23       0.1728
     26  C          9.6800   50.2170   16.4710 C.2    23  LYS23       0.2616
     27  O          9.1550   51.1040   15.8120 O.2    23  LYS23      -0.2715
     28  CB        12.0540   50.5720   17.0770 C.3    23  LYS23       0.0311
     29  CG        11.7340   52.0450   17.1680 C.3    23  LYS23       0.0038
     30  CD        12.7980   52.7830   17.9710 C.3    23  LYS23       0.0206
     31  CE        12.7410   54.2790   17.7190 C.3    23  LYS23       0.1093
     32  NZ        11.6320   54.9370   18.4600 N.3    23  LYS23      -0.1314
     33  N          9.0690   49.5810   17.4610 N.am   24  GLY24      -0.1955
     34  CA         7.6770   49.8590   17.7470 C.3    24  GLY24       0.1869
     35  C          7.2720   49.3450   19.1080 C.2    24  GLY24       0.2309
     36  O          7.2790   48.1360   19.3540 O.2    24  GLY24      -0.2863
     37  N          9.8820   47.4140   21.6020 N.3    27  ALA27      -0.1245
     38  CA        10.6370   46.5870   20.6660 C.3    27  ALA27       0.1562
     39  C         11.5090   47.4390   19.7690 C.2    27  ALA27       0.2260
     40  O         11.0850   48.4960   19.3080 O.2    27  ALA27      -0.2867
     41  CB         9.6900   45.7640   19.8140 C.3    27  ALA27       0.0290
     42  N         14.2140   46.3680   16.3320 N.3    29  CYS29      -0.1235
     43  CA        14.1630   45.2890   15.3490 C.3    29  CYS29       0.1677
     44  C         15.3210   45.3040   14.3470 C.2    29  CYS29       0.2270
     45  O         15.6650   46.3450   13.7930 O.2    29  CYS29      -0.2867
     46  CB        12.8280   45.3500   14.6050 C.3    29  CYS29       0.0956
     47  SG        12.4020   43.8010   13.8140 S.3    29  CYS29      -0.0801
     48  N         14.2380   38.8460   10.1120 N.3    42  ALA42      -0.1245
     49  CA        14.1190   39.9840   10.9960 C.3    42  ALA42       0.1562
     50  C         13.9300   39.4680   12.4180 C.2    42  ALA42       0.2260
     51  O         13.1370   38.5500   12.6620 O.2    42  ALA42      -0.2867
     52  CB        12.9430   40.8330   10.5810 C.3    42  ALA42       0.0290
     53  N         12.8110   40.5270   16.2320 N.3    44  LYS44      -0.1245
     54  CA        12.2510   41.5130   17.1500 C.3    44  LYS44       0.1561
     55  C         12.7950   41.2460   18.5480 C.2    44  LYS44       0.2260
     56  O         12.7620   40.1150   19.0380 O.2    44  LYS44      -0.2867
     57  CB        10.7150   41.4600   17.1490 C.3    44  LYS44       0.0271
     58  CG        10.0240   42.5810   17.9650 C.3    44  LYS44       0.0035
     59  CD         8.6740   42.9770   17.3500 C.3    44  LYS44       0.0206
     60  CE         7.5930   43.1920   18.3970 C.3    44  LYS44       0.1093
     61  NZ         6.4270   43.9180   17.8180 N.3    44  LYS44      -0.1314
     62  N          3.1460   38.1050    8.3330 N.3    76  VAL76      -0.1245
     63  CA         4.5730   37.9790    8.5940 C.3    76  VAL76       0.1561
     64  C          4.8630   36.6770    9.3300 C.2    76  VAL76       0.2260
     65  O          4.3760   36.4470   10.4330 O.2    76  VAL76      -0.2867
     66  CB         5.1010   39.1770    9.4300 C.3    76  VAL76       0.0252
     67  CG1        6.5380   38.9080    9.8970 C.3    76  VAL76       0.0019
     68  CG2        5.0480   40.4530    8.5990 C.3    76  VAL76       0.0019
     69  N         11.3850   36.5390   12.8940 N.3    92  LEU92      -0.1231
     70  CA        10.3390   36.7680   11.9010 C.3    92  LEU92       0.1693
     71  C         10.8350   36.6220   10.4730 C.2    92  LEU92       0.2592
     72  O         12.0060   36.8650   10.1870 O.2    92  LEU92      -0.2718
     73  CB         9.7710   38.1660   12.0840 C.3    92  LEU92       0.0284
     74  CG         9.3430   38.4950   13.5140 C.3    92  LEU92       0.0019
     75  CD1        9.3800   39.9830   13.7280 C.3    92  LEU92       0.0001
     76  CD2        7.9630   37.9360   13.7670 C.3    92  LEU92       0.0001
     77  N          9.9370   36.2260    9.5800 N.am   93  GLU93      -0.1966
     78  CA        10.1550   36.3250    8.1320 C.3    93  GLU93       0.1733
     79  C         10.5890   37.7510    7.7690 C.2    93  GLU93       0.2616
     80  O         10.0380   38.7170    8.2840 O.2    93  GLU93      -0.2715
     81  CB         8.8480   35.9690    7.4260 C.3    93  GLU93       0.0429
     82  CG         8.7650   36.2640    5.9470 C.3    93  GLU93       0.1163
     83  CD         7.3560   35.9680    5.3960 C.2    93  GLU93       0.3649
     84  OE1        6.4720   35.5650    6.1850 O.co2  93  GLU93      -0.2457
     85  OE2        7.1180   36.1380    4.1800 O.co2  93  GLU93      -0.2457
     86  N         11.5840   37.9010    6.9050 N.am   94  LEU94      -0.1963
     87  CA        12.1260   39.2320    6.6680 C.3    94  LEU94       0.1728
     88  C         11.4700   39.8630    5.4670 C.2    94  LEU94       0.2616
     89  O         11.4100   39.2710    4.3950 O.2    94  LEU94      -0.2715
     90  CB        13.6370   39.1940    6.4410 C.3    94  LEU94       0.0311
     91  CG        14.2000   40.5930    6.1450 C.3    94  LEU94       0.0022
     92  CD1       14.4280   41.3400    7.4440 C.3    94  LEU94       0.0001
     93  CD2       15.4850   40.4860    5.3760 C.3    94  LEU94       0.0001
     94  N         10.9880   41.0810    5.6420 N.am   95  CYS95      -0.1954
     95  CA        10.3320   41.7670    4.5520 C.3    95  CYS95       0.1843
     96  C         11.2430   42.8370    3.9930 C.2    95  CYS95       0.2625
     97  O         11.4450   43.8810    4.6150 O.2    95  CYS95      -0.2714
     98  CB         9.0250   42.3710    5.0410 C.3    95  CYS95       0.0997
     99  SG         7.8270   41.1190    5.5170 S.3    95  CYS95      -0.0797
    100  N         11.7950   42.5720    2.8130 N.am   96  ARG96      -0.1977
    101  CA        12.9540   43.3210    2.3590 C.3    96  ARG96       0.1597
    102  C         12.5720   44.6500    1.7360 C.2    96  ARG96       0.2287
    103  O         13.4290   45.4860    1.4840 O.2    96  ARG96      -0.2864
    104  CB        13.7640   42.4730    1.3790 C.3    96  ARG96       0.0334
    105  CG        13.9870   41.0560    1.8770 C.3    96  ARG96       0.0492
    106  CD        14.9210   40.2850    0.9590 C.3    96  ARG96       0.2205
    107  NE        16.1930   39.9640    1.6060 N.pl3  96  ARG96      -0.0865
    108  CZ        17.0990   40.8750    1.9650 C.cat  96  ARG96       0.5346
    109  NH1       16.8700   42.1710    1.7410 N.pl3  96  ARG96       0.1354
    110  NH2       18.2360   40.4910    2.5410 N.pl3  96  ARG96       0.1354
    111  N         10.3780   46.7780    3.2580 N.3    98  ARG98      -0.1231
    112  CA         9.8670   47.6250    4.3280 C.3    98  ARG98       0.1694
    113  C          8.3390   47.5840    4.4140 C.2    98  ARG98       0.2592
    114  O          7.7570   46.5230    4.2600 O.2    98  ARG98      -0.2718
    115  CB        10.4010   49.0380    4.1190 C.3    98  ARG98       0.0321
    116  CG        11.8930   49.0150    3.8240 C.3    98  ARG98       0.0489
    117  CD        12.6170   50.2750    4.2490 C.3    98  ARG98       0.2205
    118  NE        12.4770   51.3430    3.2610 N.pl3  98  ARG98      -0.0865
    119  CZ        12.6270   52.6370    3.5350 C.cat  98  ARG98       0.5346
    120  NH1       12.9270   53.0220    4.7770 N.pl3  98  ARG98       0.1354
    121  NH2       12.4670   53.5460    2.5740 N.pl3  98  ARG98       0.1354
    122  N          7.6770   48.7040    4.6710 N.am   99  SER99      -0.1952
    123  CA         6.2260   48.6550    4.8140 C.3    99  SER99       0.1924
    124  C          5.5000   49.6210    3.9060 C.2    99  SER99       0.2314
    125  O          6.0890   50.5480    3.3570 O.2    99  SER99      -0.2863
    126  CB         5.8180   48.9580    6.2450 C.3    99  SER99       0.2116
    127  OG         5.6760   50.3520    6.4210 O.3    99  SER99      -0.2180
    128  N          3.9790   52.0160    4.7150 N.3   101  LEU101     -0.1231
    129  CA         4.2100   53.3670    5.2100 C.3   101  LEU101      0.1693
    130  C          5.2330   54.1370    4.3890 C.2   101  LEU101      0.2591
    131  O          5.0010   55.2640    3.9710 O.2   101  LEU101     -0.2718
    132  CB         4.6980   53.3370    6.6530 C.3   101  LEU101      0.0284
    133  CG         4.9940   54.7460    7.2000 C.3   101  LEU101      0.0019
    134  CD1        3.7580   55.6290    7.0830 C.3   101  LEU101      0.0001
    135  CD2        5.4090   54.6670    8.6500 C.3   101  LEU101      0.0001
    136  N          6.3770   53.5070    4.1790 N.am  102  GLU102     -0.1979
    137  CA         7.4880   54.0880    3.4470 C.3   102  GLU102      0.1602
    138  C          7.1300   54.3610    1.9940 C.2   102  GLU102      0.2287
    139  O          7.5110   55.3930    1.4440 O.2   102  GLU102     -0.2864
    140  CB         8.6860   53.1370    3.5050 C.3   102  GLU102      0.0415
    141  CG         9.4000   53.0680    4.8640 C.3   102  GLU102      0.1163
    142  CD         8.6250   52.3260    5.9510 C.2   102  GLU102      0.3649
    143  OE1        8.0750   51.2290    5.6810 O.co2 102  GLU102     -0.2457
    144  OE2        8.5770   52.8480    7.0880 O.co2 102  GLU102     -0.2457
    145  N          2.2180   51.1600    8.4530 N.3   142  GLY142     -0.1210
    146  CA         3.5400   50.7470    8.9170 C.3   142  GLY142      0.1956
    147  C          3.6200   49.3140    9.4290 C.2   142  GLY142      0.2611
    148  O          4.7120   48.7950    9.6870 O.2   142  GLY142     -0.2717
    149  N          2.4570   48.6870    9.5890 N.am  143  ASN143     -0.1974
    150  CA         2.3590   47.2820    9.9300 C.3   143  ASN143      0.1688
    151  C          2.1140   46.4420    8.6990 C.2   143  ASN143      0.2292
    152  O          1.9830   45.2280    8.7930 O.2   143  ASN143     -0.2864
    153  CB         1.2140   47.0530   10.8920 C.3   143  ASN143      0.1181
    154  CG         1.5810   47.3820   12.2940 C.2   143  ASN143      0.2629
    155  OD1        2.7590   47.4290   12.6410 O.2   143  ASN143     -0.2716
    156  ND2        0.5740   47.6150   13.1270 N.am  143  ASN143     -0.0877
    157  N          3.9380   45.1810    5.8420 N.3   145  PHE145     -0.1241
    158  CA         5.2630   45.0090    5.2760 C.3   145  PHE145      0.1605
    159  C          5.2120   44.3850    3.8930 C.2   145  PHE145      0.2264
    160  O          4.2650   43.6810    3.5500 O.2   145  PHE145     -0.2867
    161  CB         6.0970   44.1330    6.1870 C.3   145  PHE145      0.0534
    162  CG         6.1690   44.6300    7.6020 C.ar  145  PHE145     -0.0203
    163  CD1        5.2210   44.2430    8.5340 C.ar  145  PHE145     -0.0042
    164  CD2        7.1730   45.4960    7.9970 C.ar  145  PHE145     -0.0042
    165  CE1        5.2710   44.7100    9.8280 C.ar  145  PHE145     -0.0003
    166  CE2        7.2270   45.9660    9.2870 C.ar  145  PHE145     -0.0003
    167  CZ         6.2760   45.5730   10.2030 C.ar  145  PHE145     -0.0000
    168  N          1.8600   42.6190    9.9940 N.3   155  GLY155     -0.1210
    169  CA         2.8580   42.4910   11.0450 C.3   155  GLY155      0.1956
    170  C          2.4450   43.0790   12.3800 C.2   155  GLY155      0.2611
    171  O          1.4030   43.7080   12.4980 O.2   155  GLY155     -0.2717
    172  N          3.2740   42.8640   13.3920 N.am  156  ASP156     -0.1973
    173  CA         3.0380   43.4060   14.7260 C.3   156  ASP156      0.1709
    174  C          1.6840   43.0430   15.3200 C.2   156  ASP156      0.2293
    175  O          0.7000   43.7600   15.1460 O.2   156  ASP156     -0.2864
    176  CB         3.1930   44.9270   14.7210 C.3   156  ASP156      0.1436
    177  CG         3.6220   45.4620   16.0800 C.2   156  ASP156      0.3671
    178  OD1        3.3300   44.7950   17.1010 O.co2 156  ASP156     -0.2456
    179  OD2        4.2580   46.5390   16.1260 O.co2 156  ASP156     -0.2456
@<TRIPOS>BOND
     1   106   107    1
     2   106   105    1
     3   104   105    1
     4   104   101    1
     5   139   138    2
     6   103   102    2
     7   107   108    2
     8   102   101    1
     9   109   108    1
    10   108   110    1
    11   138   137    1
    12   101   100    1
    13   121   119    1
    14   100    96   am
    15   111   112    1
    16   118   119    2
    17   118   117    1
    18   125   124    2
    19   137   140    1
    20   137   136    1
    21   140   141    1
    22   119   120    1
    23   160   159    2
    24   116   115    1
    25   116   117    1
    26   159   158    1
    27   124   123    1
    28   131   130    2
    29    96    95    1
    30    96    97    2
    31   115   112    1
    32   136   130   am
    33    85    83   ar
    34   114   113    2
    35   112   113    1
    36   130   129    1
    37    89    88    2
    38   113   122   am
    39    95    98    1
    40    95    94    1
    41    11     9    1
    42   122   123    1
    43   128   129    1
    44   123   126    1
    45   141   142    1
    46    98    99    1
    47    10     9    1
    48   129   132    1
    49   158   157    1
    50   158   161    1
    51     9     8    2
    52    93    91    1
    53    83    82    1
    54    83    84   ar
    55    88    94   am
    56    88    87    1
    57   143   142   ar
    58    82    81    1
    59   142   144   ar
    60    91    90    1
    61    91    92    1
    62   161   162    1
    63   126   127    1
    64     8     7    1
    65    90    87    1
    66   132   133    1
    67    87    86    1
    68    86    79   am
    69   134   133    1
    70   133   135    1
    71     7     6    1
    72    81    78    1
    73   162   164   ar
    74   162   163   ar
    75    79    78    1
    76    79    80    2
    77   164   166   ar
    78    78    77    1
    79    62    63    1
    80   145   146    1
    81     6     5    1
    82   163   165   ar
    83    63    64    1
    84    63    66    1
    85    68    66    1
    86   151   152    2
    87   151   150    1
    88    19    17    1
    89   146   147    1
    90   166   167   ar
    91    64    65    2
    92     5     2    1
    93   147   149   am
    94   147   148    2
    95    66    67    1
    96    18    17    1
    97    77    71   am
    98   149   150    1
    99   165   167   ar
   100   150   153    1
   101    17    16    1
   102   168   169    1
   103    48    49    1
   104    72    71    2
   105    16    13    1
   106    71    70    1
   107    15    14    2
   108    52    49    1
   109    13    14    1
   110    13    12    1
   111     1     2    1
   112     2     3    1
   113   153   154    1
   114    49    50    1
   115   169   170    1
   116    14    20   am
   117     3     4    2
   118    70    73    1
   119    70    69    1
   120    73    74    1
   121   154   155    2
   122   154   156   am
   123    20    21    1
   124   170   171    2
   125   170   172   am
   126    50    51    2
   127    21    22    1
   128   172   173    1
   129    74    75    1
   130    74    76    1
   131    45    44    2
   132    47    46    1
   133    22    24   am
   134    22    23    2
   135    44    43    1
   136    46    43    1
   137   176   173    1
   138   176   177    1
   139   173   174    1
   140    24    25    1
   141   175   174    2
   142    43    42    1
   143    27    26    2
   144   177   179   ar
   145   177   178   ar
   146    25    26    1
   147    25    28    1
   148    53    54    1
   149    26    33   am
   150    28    29    1
   151    57    54    1
   152    57    58    1
   153    54    55    1
   154    29    30    1
   155    59    58    1
   156    59    60    1
   157    33    34    1
   158    31    30    1
   159    31    32    1
   160    34    35    1
   161    61    60    1
   162    55    56    2
   163    35    36    2
   164    40    39    2
   165    39    38    1
   166    41    38    1
   167    38    37    1
