@<TRIPOS>MOLECULE
tmp/4a4qB00.pdb
 138 130 0 0 0
SMALL
GASTEIGER

@<TRIPOS>ATOM
      1  N          8.9140   34.4900   -1.3750 N.3     8  ARG8       -0.1245
      2  CA         9.6160   33.2120   -1.5030 C.3     8  ARG8        0.1563
      3  C         10.5260   33.2250   -2.7320 C.2     8  ARG8        0.2260
      4  O         10.1170   33.6560   -3.8080 O.2     8  ARG8       -0.2867
      5  CB         8.6120   32.0680   -1.6370 C.3     8  ARG8        0.0307
      6  CG         7.8530   31.7770   -0.3580 C.3     8  ARG8        0.0489
      7  CD         6.6860   30.8550   -0.6220 C.3     8  ARG8        0.2205
      8  NE         5.9100   30.6350    0.5920 N.pl3   8  ARG8       -0.0865
      9  CZ         4.6960   30.0950    0.6210 C.cat   8  ARG8        0.5346
     10  NH1        4.1120   29.7160   -0.5070 N.pl3   8  ARG8        0.1354
     11  NH2        4.0660   29.9370    1.7810 N.pl3   8  ARG8        0.1354
     12  N         11.9500   26.1760   -5.0750 N.3    23  LEU23      -0.1245
     13  CA        12.3880   27.1570   -4.0990 C.3    23  LEU23       0.1561
     14  C         13.8890   27.0540   -3.8200 C.2    23  LEU23       0.2260
     15  O         14.3770   25.9760   -3.4960 O.2    23  LEU23      -0.2867
     16  CB        11.6090   26.9210   -2.8040 C.3    23  LEU23       0.0270
     17  CG        11.6190   27.9540   -1.6850 C.3    23  LEU23       0.0019
     18  CD1       11.0190   29.2610   -2.1800 C.3    23  LEU23       0.0001
     19  CD2       10.8070   27.4110   -0.5160 C.3    23  LEU23       0.0001
     20  N         16.5670   26.9430   -1.5990 N.3    25  ASP25      -0.1239
     21  CA        16.5620   26.6890   -0.1570 C.3    25  ASP25       0.1674
     22  C         17.9270   26.4690    0.5000 C.2    25  ASP25       0.2266
     23  O         18.4620   25.3570    0.4620 O.2    25  ASP25      -0.2867
     24  CB        15.6820   25.4600    0.0860 C.3    25  ASP25       0.1410
     25  CG        15.2420   25.3140    1.5240 C.2    25  ASP25       0.3668
     26  OD1       15.8610   25.9150    2.4250 O.co2  25  ASP25      -0.2456
     27  OD2       14.2650   24.5700    1.7510 O.co2  25  ASP25      -0.2456
     28  N         18.4920   26.2470    3.4990 N.3    27  GLY27      -0.1210
     29  CA        18.3250   25.4050    4.6680 C.3    27  GLY27       0.1956
     30  C         18.2630   23.9290    4.3130 C.2    27  GLY27       0.2612
     31  O         18.0290   23.0850    5.1770 O.2    27  GLY27      -0.2717
     32  N         18.4760   23.6090    3.0410 N.am   28  ALA28      -0.1965
     33  CA        18.4280   22.2220    2.5880 C.3    28  ALA28       0.1728
     34  C         19.7740   21.7220    2.0640 C.2    28  ALA28       0.2616
     35  O         20.3790   22.3510    1.1980 O.2    28  ALA28      -0.2715
     36  CB        17.3660   22.0760    1.5010 C.3    28  ALA28       0.0334
     37  N         20.2440   20.5940    2.5940 N.am   29  ASP29      -0.1957
     38  CA        21.5050   20.0090    2.1350 C.3    29  ASP29       0.1840
     39  C         21.3360   19.5120    0.7030 C.2    29  ASP29       0.2622
     40  O         22.2100   19.6920   -0.1460 O.2    29  ASP29      -0.2715
     41  CB        21.8870   18.7890    2.9740 C.3    29  ASP29       0.1450
     42  CG        22.4860   19.1430    4.3120 C.2    29  ASP29       0.3671
     43  OD1       22.5140   20.3360    4.6780 O.co2  29  ASP29      -0.2456
     44  OD2       22.9250   18.1990    5.0040 O.co2  29  ASP29      -0.2456
     45  N         20.2020   18.8590    0.4670 N.am   30  ASP30      -0.1971
     46  CA        19.8880   18.2600   -0.8220 C.3    30  ASP30       0.1709
     47  C         18.7390   18.9180   -1.5700 C.2    30  ASP30       0.2293
     48  O         18.0340   19.7790   -1.0440 O.2    30  ASP30      -0.2864
     49  CB        19.5370   16.7800   -0.6320 C.3    30  ASP30       0.1436
     50  CG        20.5070   16.0620    0.2750 C.2    30  ASP30       0.3671
     51  OD1       21.7250   16.1760    0.0420 O.co2  30  ASP30      -0.2456
     52  OD2       20.0510   15.3800    1.2170 O.co2  30  ASP30      -0.2456
     53  N         15.1940   18.2030   -3.4540 N.3    32  VAL32      -0.1245
     54  CA        14.1070   17.2280   -3.5090 C.3    32  VAL32       0.1561
     55  C         12.9460   17.7620   -4.3400 C.2    32  VAL32       0.2260
     56  O         12.4540   18.8690   -4.1150 O.2    32  VAL32      -0.2867
     57  CB        13.6160   16.8470   -2.0810 C.3    32  VAL32       0.0252
     58  CG1       13.0830   18.0590   -1.3700 C.3    32  VAL32       0.0019
     59  CG2       12.5490   15.7640   -2.1610 C.3    32  VAL32       0.0019
     60  N         15.3390   11.2810    4.3640 N.3    47  ILE47      -0.1231
     61  CA        15.6810   12.6600    4.6830 C.3    47  ILE47       0.1692
     62  C         14.7610   13.2110    5.7650 C.2    47  ILE47       0.2593
     63  O         13.5480   13.0150    5.7230 O.2    47  ILE47      -0.2718
     64  CB        15.6090   13.5540    3.4280 C.3    47  ILE47       0.0266
     65  CG1       14.2160   13.4800    2.7990 C.3    47  ILE47       0.0019
     66  CG2       16.6780   13.1140    2.4290 C.3    47  ILE47       0.0020
     67  CD1       14.0460   14.3860    1.5880 C.3    47  ILE47       0.0001
     68  N         15.3500   13.8970    6.7370 N.am   48  GLY48      -0.1942
     69  CA        14.5650   14.4440    7.8260 C.3    48  GLY48       0.2014
     70  C         14.2540   15.9200    7.7090 C.2    48  GLY48       0.2639
     71  O         15.1210   16.7260    7.3760 O.2    48  GLY48      -0.2714
     72  N         13.0030   16.2690    7.9900 N.am   49  GLY49      -0.1939
     73  CA        12.5790   17.6530    7.9310 C.3    49  GLY49       0.2014
     74  C         11.9280   18.0630    9.2370 C.2    49  GLY49       0.2638
     75  O         12.0220   17.3480   10.2350 O.2    49  GLY49      -0.2714
     76  N         11.2580   19.2110    9.2250 N.am   50  ILE50      -0.1977
     77  CA        10.5920   19.7440   10.4090 C.3    50  ILE50       0.1596
     78  C          9.6000   18.7800   11.0510 C.2    50  ILE50       0.2287
     79  O          9.5380   18.6740   12.2760 O.2    50  ILE50      -0.2864
     80  CB         9.8470   21.0600   10.0740 C.3    50  ILE50       0.0276
     81  CG1       10.8540   22.1400    9.6740 C.3    50  ILE50       0.0022
     82  CG2        9.0310   21.5290   11.2690 C.3    50  ILE50       0.0022
     83  CD1       11.8590   22.4800   10.7570 C.3    50  ILE50       0.0001
     84  N         10.7110   12.2590    9.0710 N.3    53  PHE53      -0.1227
     85  CA        11.4540   11.7410    7.9210 C.3    53  PHE53       0.1736
     86  C         10.5540   11.1850    6.8150 C.2    53  PHE53       0.2595
     87  O          9.4280   10.7590    7.0690 O.2    53  PHE53      -0.2718
     88  CB        12.4030   10.6200    8.3610 C.3    53  PHE53       0.0547
     89  CG        13.6240   11.0950    9.0970 C.ar   53  PHE53      -0.0202
     90  CD1       13.5200   11.6690   10.3590 C.ar   53  PHE53      -0.0042
     91  CD2       14.8870   10.9500    8.5280 C.ar   53  PHE53      -0.0042
     92  CE1       14.6600   12.0910   11.0460 C.ar   53  PHE53      -0.0003
     93  CE2       16.0310   11.3690    9.2050 C.ar   53  PHE53      -0.0003
     94  CZ        15.9160   11.9400   10.4660 C.ar   53  PHE53      -0.0000
     95  N         11.0560   11.1980    5.5840 N.am   54  ILE54      -0.1980
     96  CA        10.3180   10.6430    4.4570 C.3    54  ILE54       0.1595
     97  C         11.2960    9.8550    3.6010 C.2    54  ILE54       0.2287
     98  O         12.5080   10.0790    3.6610 O.2    54  ILE54      -0.2864
     99  CB         9.6500   11.7190    3.5710 C.3    54  ILE54       0.0276
    100  CG1       10.7110   12.5590    2.8580 C.3    54  ILE54       0.0022
    101  CG2        8.7290   12.5920    4.4130 C.3    54  ILE54       0.0022
    102  CD1       10.1430   13.4210    1.7530 C.3    54  ILE54       0.0001
    103  N         16.6970   14.2470   -5.5550 N.3    76  LEU76      -0.1245
    104  CA        15.8830   13.3140   -4.7820 C.3    76  LEU76       0.1561
    105  C         14.4340   13.5060   -5.2120 C.2    76  LEU76       0.2260
    106  O         13.9930   14.6330   -5.4220 O.2    76  LEU76      -0.2867
    107  CB        16.0200   13.6000   -3.2840 C.3    76  LEU76       0.0270
    108  CG        17.4480   13.6140   -2.7280 C.3    76  LEU76       0.0019
    109  CD1       17.4250   13.7790   -1.2120 C.3    76  LEU76       0.0001
    110  CD2       18.1500   12.3200   -3.1050 C.3    76  LEU76       0.0001
    111  N          7.4970   15.4680   -1.2420 N.3    80  THR80      -0.1204
    112  CA         7.8890   16.7100   -0.5940 C.3    80  THR80       0.1979
    113  C          6.7640   17.7230   -0.7640 C.2    80  THR80       0.2460
    114  O          6.0780   17.7300   -1.7840 O.2    80  THR80      -0.2732
    115  CB         9.1700   17.2970   -1.2290 C.3    80  THR80       0.1783
    116  OG1        9.4420   18.5770   -0.6510 O.3    80  THR80      -0.2211
    117  CG2        9.0010   17.4550   -2.7330 C.3    80  THR80       0.0376
    118  N          6.5470   18.5860    0.2410 N.am   81  PRO81      -0.2717
    119  CA         5.4820   19.5860    0.1230 C.3    81  PRO81       0.1535
    120  C          5.6990   20.5650   -1.0350 C.2    81  PRO81       0.2599
    121  O          4.7410   21.1210   -1.5650 O.2    81  PRO81      -0.2715
    122  CB         5.4800   20.2610    1.5000 C.3    81  PRO81       0.0310
    123  CG         6.8490   19.9920    2.0320 C.3    81  PRO81       0.0237
    124  CD         7.1250   18.5920    1.5930 C.3    81  PRO81       0.0939
    125  N          6.9550   20.7620   -1.4350 N.am   82  THR82      -0.1951
    126  CA         7.2830   21.6520   -2.5520 C.3    82  THR82       0.1897
    127  C          8.6700   21.3290   -3.0990 C.2    82  THR82       0.2313
    128  O          9.5050   20.7710   -2.3900 O.2    82  THR82      -0.2863
    129  CB         7.3020   23.1490   -2.1460 C.3    82  THR82       0.1794
    130  OG1        8.3370   23.3670   -1.1780 O.3    82  THR82      -0.2208
    131  CG2        5.9700   23.5810   -1.5640 C.3    82  THR82       0.0378
    132  N         12.3310   21.8680   -3.8550 N.3    84  VAL84      -0.1245
    133  CA        13.3470   22.7190   -3.2600 C.3    84  VAL84       0.1561
    134  C         14.7250   22.4390   -3.8430 C.2    84  VAL84       0.2260
    135  O         15.1010   21.2850   -4.0500 O.2    84  VAL84      -0.2867
    136  CB        13.4150   22.5420   -1.7250 C.3    84  VAL84       0.0252
    137  CG1       12.0570   22.8240   -1.1080 C.3    84  VAL84       0.0019
    138  CG2       13.8770   21.1440   -1.3780 C.3    84  VAL84       0.0019
@<TRIPOS>BOND
     1   103   104    1
     2   106   105    2
     3   105   104    1
     4    12    13    1
     5   104   107    1
     6    55    56    2
     7    55    54    1
     8    13    14    1
     9    13    16    1
    10   135   134    2
    11   132   133    1
    12   134   133    1
    13    14    15    2
    14     4     3    2
    15    54    53    1
    16    54    57    1
    17   107   108    1
    18   133   136    1
    19   110   108    1
    20   127   126    1
    21   127   128    2
    22    16    17    1
    23   117   115    1
    24     3     2    1
    25   108   109    1
    26   126   129    1
    27   126   125    1
    28    18    17    1
    29    59    57    1
    30   129   131    1
    31   129   130    1
    32    57    58    1
    33   114   113    2
    34   136   138    1
    35   136   137    1
    36    17    19    1
    37     5     2    1
    38     5     6    1
    39    20    21    1
    40    47    48    2
    41    47    46    1
    42   121   120    2
    43     2     1    1
    44   125   120   am
    45   111   112    1
    46   115   116    1
    47   115   112    1
    48   120   119    1
    49    46    49    1
    50    46    45    1
    51   113   112    1
    52   113   118   am
    53    49    50    1
    54     7     6    1
    55     7     8    1
    56    10     9    1
    57    21    24    1
    58    21    22    1
    59    40    39    2
    60    51    50   ar
    61    24    25    1
    62   119   118    1
    63   119   122    1
    64   118   124    1
    65    50    52   ar
    66    23    22    2
    67    45    39   am
    68     8     9    2
    69     9    11    1
    70    39    38    1
    71    35    34    2
    72   122   123    1
    73    36    33    1
    74    25    27   ar
    75    25    26   ar
    76    67    65    1
    77   124   123    1
    78   102   100    1
    79    34    33    1
    80    34    37   am
    81    38    37    1
    82    38    41    1
    83    66    64    1
    84    33    32    1
    85    65    64    1
    86   100    99    1
    87    41    42    1
    88    32    30   am
    89    64    61    1
    90    28    29    1
    91    99   101    1
    92    99    96    1
    93    97    98    2
    94    97    96    1
    95    42    43   ar
    96    42    44   ar
    97    30    29    1
    98    30    31    2
    99    60    61    1
   100    96    95    1
   101    61    62    1
   102    95    86   am
   103    63    62    2
   104    62    68   am
   105    68    69    1
   106    86    87    2
   107    86    85    1
   108    71    70    2
   109    70    69    1
   110    70    72   am
   111    85    88    1
   112    85    84    1
   113    73    72    1
   114    73    74    1
   115    88    89    1
   116    91    89   ar
   117    91    93   ar
   118    89    90   ar
   119    93    94   ar
   120    76    74   am
   121    76    77    1
   122    74    75    2
   123    81    80    1
   124    81    83    1
   125    80    77    1
   126    80    82    1
   127    90    92   ar
   128    77    78    1
   129    94    92   ar
   130    78    79    2
