@<TRIPOS>MOLECULE
tmp/4a4vB00.pdb
 207 196 0 0 0
SMALL
GASTEIGER

@<TRIPOS>ATOM
      1  N         -1.9300  -21.4080  -23.6330 N.3    21  PHE21      -0.1241
      2  CA        -1.8870  -20.4570  -22.5300 C.3    21  PHE21       0.1605
      3  C         -2.0930  -21.1920  -21.2140 C.2    21  PHE21       0.2264
      4  O         -3.2390  -21.4750  -20.8380 O.2    21  PHE21      -0.2867
      5  CB        -2.9660  -19.3790  -22.7070 C.3    21  PHE21       0.0534
      6  CG        -2.9600  -18.7290  -24.0600 C.ar   21  PHE21      -0.0203
      7  CD1       -1.9330  -17.8650  -24.4190 C.ar   21  PHE21      -0.0042
      8  CD2       -3.9840  -18.9740  -24.9710 C.ar   21  PHE21      -0.0042
      9  CE1       -1.9170  -17.2570  -25.6750 C.ar   21  PHE21      -0.0003
     10  CE2       -3.9880  -18.3710  -26.2370 C.ar   21  PHE21      -0.0003
     11  CZ        -2.9520  -17.5110  -26.5820 C.ar   21  PHE21      -0.0000
     12  N         -1.9080  -20.2500  -17.9390 N.3    23  LEU23      -0.1245
     13  CA        -2.7290  -19.6070  -16.9130 C.3    23  LEU23       0.1561
     14  C         -4.0550  -19.1490  -17.4980 C.2    23  LEU23       0.2260
     15  O         -4.1320  -18.0770  -18.0790 O.2    23  LEU23      -0.2867
     16  CB        -1.9730  -18.4500  -16.2480 C.3    23  LEU23       0.0270
     17  CG        -2.6500  -17.5900  -15.1590 C.3    23  LEU23       0.0019
     18  CD1       -3.4680  -18.4000  -14.1520 C.3    23  LEU23       0.0001
     19  CD2       -1.6080  -16.7590  -14.4340 C.3    23  LEU23       0.0001
     20  N         13.8730  -12.5430  -15.6370 N.3    61  HIS61      -0.1241
     21  CA        14.2820  -11.3290  -16.3390 C.3    61  HIS61       0.1621
     22  C         15.3130  -10.4580  -15.6030 C.2    61  HIS61       0.2264
     23  O         15.9260   -9.5820  -16.2160 O.2    61  HIS61      -0.2867
     24  CB        13.0500  -10.4910  -16.6660 C.3    61  HIS61       0.0745
     25  CG        12.2200  -10.1690  -15.4680 C.ar   61  HIS61       0.0817
     26  ND1       12.5420   -9.1540  -14.5950 N.ar   61  HIS61      -0.2268
     27  CD2       11.0960  -10.7440  -14.9830 C.ar   61  HIS61       0.1154
     28  CE1       11.6440   -9.1080  -13.6290 C.ar   61  HIS61       0.1986
     29  NE2       10.7550  -10.0610  -13.8420 N.ar   61  HIS61      -0.2212
     30  N         10.6810   -3.0590  -13.2430 N.3    72  ILE72      -0.1245
     31  CA         9.2980   -3.4990  -13.4280 C.3    72  ILE72       0.1561
     32  C          8.9170   -3.4640  -14.9160 C.2    72  ILE72       0.2260
     33  O          8.3960   -4.4410  -15.4470 O.2    72  ILE72      -0.2867
     34  CB         8.2950   -2.6810  -12.5980 C.3    72  ILE72       0.0252
     35  CG1        8.5400   -2.8890  -11.1010 C.3    72  ILE72       0.0019
     36  CG2        6.8670   -3.0880  -12.9520 C.3    72  ILE72       0.0019
     37  CD1        7.7220   -1.9770  -10.2140 C.3    72  ILE72       0.0001
     38  N         10.4070   -6.1840  -16.8300 N.3    75  GLY75      -0.1210
     39  CA         9.7230   -7.4380  -16.4890 C.3    75  GLY75       0.1956
     40  C          8.5010   -7.6270  -17.3700 C.2    75  GLY75       0.2612
     41  O          8.2230   -8.7340  -17.8470 O.2    75  GLY75      -0.2717
     42  N          7.7750   -6.5280  -17.5740 N.am   76  CYS76      -0.1970
     43  CA         6.5940   -6.5310  -18.4080 C.3    76  CYS76       0.1712
     44  C          6.9650   -6.8690  -19.8600 C.2    76  CYS76       0.2296
     45  O          6.2650   -7.6360  -20.5280 O.2    76  CYS76      -0.2864
     46  CB         5.9240   -5.1680  -18.3010 C.3    76  CYS76       0.0983
     47  SG         4.3890   -5.0810  -19.1360 S.3    76  CYS76      -0.0798
     48  N          7.8690  -10.7100  -20.1200 N.3    79  ARG79      -0.1231
     49  CA         6.6450  -11.4700  -20.1590 C.3    79  ARG79       0.1694
     50  C          5.8590  -11.2200  -21.4650 C.2    79  ARG79       0.2592
     51  O          5.2650  -12.1480  -21.9970 O.2    79  ARG79      -0.2718
     52  CB         5.8110  -11.2470  -18.8850 C.3    79  ARG79       0.0321
     53  CG         4.4260  -11.8800  -18.9230 C.3    79  ARG79       0.0489
     54  CD         4.4230  -13.4070  -18.9670 C.3    79  ARG79       0.2205
     55  NE         3.1010  -13.9070  -19.3780 N.pl3  79  ARG79      -0.0865
     56  CZ         2.8770  -14.8340  -20.3100 C.cat  79  ARG79       0.5346
     57  NH1        3.8860  -15.4290  -20.9350 N.pl3  79  ARG79       0.1354
     58  NH2        1.6300  -15.1920  -20.6030 N.pl3  79  ARG79       0.1354
     59  N          5.9000  -10.0020  -22.0060 N.am   80  SER80      -0.1952
     60  CA         5.2250   -9.7400  -23.2740 C.3    80  SER80       0.1924
     61  C          5.8610  -10.5170  -24.4330 C.2    80  SER80       0.2314
     62  O          5.1560  -11.0790  -25.2600 O.2    80  SER80      -0.2863
     63  CB         5.1650   -8.2520  -23.5870 C.3    80  SER80       0.2116
     64  OG         4.3650   -7.5920  -22.6160 O.3    80  SER80      -0.2180
     65  N          4.6280  -13.9940  -24.0410 N.3    83  ALA83      -0.1245
     66  CA         3.2630  -14.0850  -24.5220 C.3    83  ALA83       0.1562
     67  C          3.1880  -14.1150  -26.0500 C.2    83  ALA83       0.2260
     68  O          2.4010  -14.8610  -26.6180 O.2    83  ALA83      -0.2867
     69  CB         2.4220  -12.9150  -23.9630 C.3    83  ALA83       0.0290
     70  N          3.4030  -17.6250  -27.1910 N.3    86  GLU86      -0.1231
     71  CA         2.2180  -18.4160  -26.8760 C.3    86  GLU86       0.1699
     72  C          1.1170  -18.1000  -27.8880 C.2    86  GLU86       0.2592
     73  O          0.4300  -19.0070  -28.3950 O.2    86  GLU86      -0.2718
     74  CB         1.7290  -18.0880  -25.4640 C.3    86  GLU86       0.0402
     75  CG         2.6450  -18.6490  -24.3790 C.3    86  GLU86       0.1161
     76  CD         2.5230  -17.8980  -23.0550 C.2    86  GLU86       0.3649
     77  OE1        1.4080  -17.4220  -22.7230 O.co2  86  GLU86      -0.2457
     78  OE2        3.5500  -17.7850  -22.3440 O.co2  86  GLU86      -0.2457
     79  N          0.9690  -16.8070  -28.1740 N.am   87  ILE87      -0.1980
     80  CA        -0.0170  -16.3260  -29.1490 C.3    87  ILE87       0.1595
     81  C          0.2620  -16.8850  -30.5580 C.2    87  ILE87       0.2287
     82  O         -0.6610  -17.2930  -31.2810 O.2    87  ILE87      -0.2864
     83  CB        -0.0470  -14.7950  -29.1950 C.3    87  ILE87       0.0276
     84  CG1       -0.5690  -14.2470  -27.8620 C.3    87  ILE87       0.0022
     85  CG2       -0.9810  -14.3260  -30.3010 C.3    87  ILE87       0.0022
     86  CD1       -0.2960  -12.7390  -27.6360 C.3    87  ILE87       0.0001
     87  N         -2.4520   -9.3680  -26.1410 N.3   117  ILE117     -0.1231
     88  CA        -1.7820   -9.2660  -24.8490 C.3   117  ILE117      0.1692
     89  C         -2.6760   -8.5280  -23.8370 C.2   117  ILE117      0.2592
     90  O         -2.9390   -9.0340  -22.7440 O.2   117  ILE117     -0.2718
     91  CB        -0.3960   -8.5950  -24.9980 C.3   117  ILE117      0.0266
     92  CG1        0.6480   -9.6240  -25.4740 C.3   117  ILE117      0.0019
     93  CG2        0.0380   -7.9510  -23.6920 C.3   117  ILE117      0.0020
     94  CD1        1.9730   -8.9710  -25.8950 C.3   117  ILE117      0.0001
     95  N         -3.1800   -7.3570  -24.2120 N.am  118  TYR118     -0.1976
     96  CA        -4.0610   -6.5890  -23.3130 C.3   118  TYR118      0.1639
     97  C         -5.4140   -7.2290  -23.0130 C.2   118  TYR118      0.2290
     98  O         -5.9270   -7.0850  -21.9010 O.2   118  TYR118     -0.2864
     99  CB        -4.2020   -5.1530  -23.8020 C.3   118  TYR118      0.0560
    100  CG        -2.8500   -4.5290  -23.8810 C.ar  118  TYR118     -0.0198
    101  CD1       -1.9300   -4.7020  -22.8340 C.ar  118  TYR118     -0.0009
    102  CD2       -2.4520   -3.8070  -25.0040 C.ar  118  TYR118     -0.0009
    103  CE1       -0.6520   -4.1600  -22.9000 C.ar  118  TYR118      0.0417
    104  CE2       -1.1720   -3.2650  -25.0810 C.ar  118  TYR118      0.0417
    105  CZ        -0.2800   -3.4500  -24.0260 C.ar  118  TYR118      0.1957
    106  OH         0.9800   -2.9060  -24.0840 O.3   118  TYR118     -0.2866
    107  N         -5.8740  -10.6100  -22.8620 N.3   120  MET120     -0.1230
    108  CA        -5.5960  -11.6980  -21.9540 C.3   120  MET120      0.1702
    109  C         -5.1070  -11.1700  -20.6050 C.2   120  MET120      0.2592
    110  O         -5.3390  -11.8030  -19.5760 O.2   120  MET120     -0.2718
    111  CB        -4.6120  -12.6920  -22.5750 C.3   120  MET120      0.0401
    112  CG        -5.0550  -13.1960  -23.9480 C.3   120  MET120      0.0596
    113  SD        -4.1870  -14.6810  -24.4720 S.3   120  MET120     -0.1393
    114  CE        -4.5860  -15.7720  -23.1070 C.3   120  MET120      0.0692
    115  N         -4.4650  -10.0040  -20.6160 N.am  121  LEU121     -0.1980
    116  CA        -3.9970   -9.3740  -19.3750 C.3   121  LEU121      0.1596
    117  C         -5.1980   -9.0220  -18.4700 C.2   121  LEU121      0.2287
    118  O         -5.0880   -9.0580  -17.2480 O.2   121  LEU121     -0.2864
    119  CB        -3.1910   -8.1220  -19.6780 C.3   121  LEU121      0.0297
    120  CG        -2.5980   -7.3510  -18.4850 C.3   121  LEU121      0.0022
    121  CD1       -1.6980   -8.2230  -17.6160 C.3   121  LEU121      0.0001
    122  CD2       -1.8390   -6.1570  -18.9950 C.3   121  LEU121      0.0001
    123  N         -6.2140  -11.4450  -15.8380 N.3   124  LEU124     -0.1245
    124  CA        -5.3110  -11.5120  -14.6940 C.3   124  LEU124      0.1561
    125  C         -5.4330  -10.3000  -13.7870 C.2   124  LEU124      0.2260
    126  O         -4.7200  -10.2020  -12.7870 O.2   124  LEU124     -0.2867
    127  CB        -3.8530  -11.6190  -15.1670 C.3   124  LEU124      0.0270
    128  CG        -3.4960  -12.7050  -16.1810 C.3   124  LEU124      0.0019
    129  CD1       -2.0720  -12.5220  -16.6340 C.3   124  LEU124      0.0001
    130  CD2       -3.6840  -14.0660  -15.5920 C.3   124  LEU124      0.0001
    131  N         -2.7310   -6.9070  -10.4580 N.3   130  VAL130     -0.1231
    132  CA        -2.5280   -7.8780  -11.5270 C.3   130  VAL130      0.1692
    133  C         -1.7190   -9.0970  -11.0690 C.2   130  VAL130      0.2592
    134  O         -0.6790   -8.9640  -10.4290 O.2   130  VAL130     -0.2718
    135  CB        -1.8960   -7.1790  -12.7690 C.3   130  VAL130      0.0266
    136  CG1       -0.5660   -6.4630  -12.4080 C.3   130  VAL130      0.0020
    137  CG2       -1.6980   -8.1530  -13.9200 C.3   130  VAL130      0.0020
    138  N         -2.2240  -10.2870  -11.3650 N.am  131  LEU131     -0.1966
    139  CA        -1.4460  -11.5000  -11.2050 C.3   131  LEU131      0.1728
    140  C         -0.2210  -11.4660  -12.1070 C.2   131  LEU131      0.2616
    141  O         -0.3160  -11.1510  -13.2990 O.2   131  LEU131     -0.2715
    142  CB        -2.2800  -12.7200  -11.5600 C.3   131  LEU131      0.0311
    143  CG        -3.4240  -13.0920  -10.6350 C.3   131  LEU131      0.0022
    144  CD1       -3.9820  -14.4230  -11.0930 C.3   131  LEU131      0.0001
    145  CD2       -2.9380  -13.1750   -9.1880 C.3   131  LEU131      0.0001
    146  N          0.9290  -11.7810  -11.5260 N.am  132  ILE132     -0.1963
    147  CA         2.1950  -11.8110  -12.2520 C.3   132  ILE132      0.1727
    148  C          2.9100  -13.1260  -11.9860 C.2   132  ILE132      0.2617
    149  O          2.5040  -13.8870  -11.1030 O.2   132  ILE132     -0.2715
    150  CB         3.1320  -10.6750  -11.8380 C.3   132  ILE132      0.0290
    151  CG1        3.4510  -10.7830  -10.3380 C.3   132  ILE132      0.0022
    152  CG2        2.5400   -9.3280  -12.2450 C.3   132  ILE132      0.0023
    153  CD1        4.7480  -10.1260   -9.9310 C.3   132  ILE132      0.0001
    154  N          3.9700  -13.3780  -12.7510 N.am  133  SER133     -0.1936
    155  CA         4.7770  -14.5890  -12.6090 C.3   133  SER133      0.2055
    156  C          3.8900  -15.8310  -12.5740 C.2   133  SER133      0.2643
    157  O          3.8940  -16.5950  -11.5980 O.2   133  SER133     -0.2714
    158  CB         5.6470  -14.5070  -11.3470 C.3   133  SER133      0.2130
    159  OG         6.5650  -15.5890  -11.2940 O.3   133  SER133     -0.2179
    160  N          3.1170  -16.0100  -13.6430 N.am  134  GLU134     -0.1963
    161  CA         2.1420  -17.0960  -13.7570 C.3   134  GLU134      0.1733
    162  C          1.3260  -17.2900  -12.4800 C.2   134  GLU134      0.2616
    163  O          1.1480  -18.4170  -11.9980 O.2   134  GLU134     -0.2715
    164  CB         2.8000  -18.4120  -14.2170 C.3   134  GLU134      0.0429
    165  CG         1.7890  -19.4080  -14.8300 C.3   134  GLU134      0.1163
    166  CD         2.4320  -20.4790  -15.7030 C.2   134  GLU134      0.3649
    167  OE1        3.0560  -20.1250  -16.7340 O.co2 134  GLU134     -0.2457
    168  OE2        2.2980  -21.6770  -15.3630 O.co2 134  GLU134     -0.2457
    169  N          0.8400  -16.1790  -11.9320 N.am  135  GLY135     -0.1955
    170  CA        -0.0420  -16.2190  -10.7810 C.3   135  GLY135      0.1869
    171  C          0.6360  -16.4750   -9.4480 C.2   135  GLY135      0.2309
    172  O         -0.0450  -16.6260   -8.4410 O.2   135  GLY135     -0.2863
    173  N          0.6650   -7.9850   -8.0910 N.3   139  MET139     -0.1245
    174  CA         1.2160   -6.6480   -7.9520 C.3   139  MET139      0.1570
    175  C          0.0960   -5.6410   -7.9350 C.2   139  MET139      0.2261
    176  O         -0.7950   -5.6910   -8.7870 O.2   139  MET139     -0.2867
    177  CB         2.2050   -6.3320   -9.0700 C.3   139  MET139      0.0387
    178  CG         2.8930   -4.9900   -8.8740 C.3   139  MET139      0.0595
    179  SD         4.0890   -4.6310  -10.1640 S.3   139  MET139     -0.1393
    180  CE         5.3510   -5.8550   -9.8190 C.3   139  MET139      0.0692
    181  N          1.8790    0.2560   -8.7970 N.3   144  LEU144     -0.1245
    182  CA         2.2090    0.5800  -10.1910 C.3   144  LEU144      0.1561
    183  C          1.9410    2.0440  -10.5000 C.2   144  LEU144      0.2260
    184  O          2.7650    2.7090  -11.1280 O.2   144  LEU144     -0.2867
    185  CB         1.4420   -0.3230  -11.1680 C.3   144  LEU144      0.0270
    186  CG         2.0260   -1.7270  -11.3170 C.3   144  LEU144      0.0019
    187  CD1        0.9750   -2.7000  -11.8110 C.3   144  LEU144      0.0001
    188  CD2        3.2380   -1.7110  -12.2410 C.3   144  LEU144      0.0001
    189  N          1.8600    3.7930  -16.8600 N.3   154  PHE154     -0.1227
    190  CA         2.0500    2.7030  -17.8240 C.3   154  PHE154      0.1736
    191  C          0.9220    1.6640  -17.8010 C.2   154  PHE154      0.2595
    192  O          0.3360    1.3300  -18.8270 O.2   154  PHE154     -0.2718
    193  CB         3.4040    2.0310  -17.5740 C.3   154  PHE154      0.0547
    194  CG         3.7080    0.9000  -18.5080 C.ar  154  PHE154     -0.0202
    195  CD1        4.1250    1.1470  -19.7990 C.ar  154  PHE154     -0.0042
    196  CD2        3.5920   -0.4140  -18.0860 C.ar  154  PHE154     -0.0042
    197  CE1        4.4080    0.1060  -20.6540 C.ar  154  PHE154     -0.0003
    198  CE2        3.8740   -1.4610  -18.9390 C.ar  154  PHE154     -0.0003
    199  CZ         4.2830   -1.2030  -20.2230 C.ar  154  PHE154     -0.0000
    200  N          0.6190    1.1560  -16.6090 N.am  155  MET155     -0.1979
    201  CA        -0.3970    0.0950  -16.4850 C.3   155  MET155      0.1605
    202  C         -1.8230    0.6050  -16.2790 C.2   155  MET155      0.2287
    203  O         -2.7850   -0.1070  -16.5760 O.2   155  MET155     -0.2864
    204  CB        -0.0270   -0.9040  -15.3830 C.3   155  MET155      0.0413
    205  CG         1.1850   -1.7950  -15.6960 C.3   155  MET155      0.0598
    206  SD         0.9810   -2.8280  -17.1730 S.3   155  MET155     -0.1393
    207  CE        -0.5380   -3.6660  -16.8010 C.3   155  MET155      0.0692
@<TRIPOS>BOND
     1    82    81    2
     2    81    80    1
     3    85    83    1
     4    83    80    1
     5    83    84    1
     6    80    79    1
     7    73    72    2
     8    79    72   am
     9    72    71    1
    10    84    86    1
    11    70    71    1
    12    71    74    1
    13    68    67    2
    14    11    10   ar
    15    11     9   ar
    16    10     8   ar
    17    87    88    1
    18    67    66    1
    19    94    92    1
    20     9     7   ar
    21    92    91    1
    22    74    75    1
    23    62    61    2
    24   104   102   ar
    25   104   105   ar
    26   102   100   ar
    27    91    88    1
    28    91    93    1
    29     8     6   ar
    30    88    89    1
    31    66    65    1
    32    66    69    1
    33   113   112    1
    34   113   114    1
    35    61    60    1
    36     7     6   ar
    37    75    76    1
    38    95    89   am
    39    95    96    1
    40   106   105    1
    41     6     5    1
    42   105   103   ar
    43   112   111    1
    44   100    99    1
    45   100   101   ar
    46    89    90    2
    47    99    96    1
    48     1     2    1
    49    63    60    1
    50    63    64    1
    51    96    97    1
    52    60    59    1
    53    76    77   ar
    54    76    78   ar
    55    97    98    2
    56   103   101   ar
    57   107   108    1
    58     5     2    1
    59   111   108    1
    60     2     3    1
    61    59    50   am
    62    51    50    2
    63   108   109    1
    64    50    49    1
    65     3     4    2
    66    57    56    1
    67   197   199   ar
    68   197   195   ar
    69   115   109   am
    70   115   116    1
    71   109   110    2
    72    58    56    1
    73    45    44    2
    74    56    55    2
    75   199   198   ar
    76    49    48    1
    77    49    52    1
    78    44    43    1
    79   195   194   ar
    80   119   116    1
    81   119   120    1
    82    55    54    1
    83   116   117    1
    84    47    46    1
    85   122   120    1
    86    54    53    1
    87   198   196   ar
    88    53    52    1
    89   192   191    2
    90   194   196   ar
    91   194   193    1
    92   120   121    1
    93   117   118    2
    94    43    46    1
    95    43    42    1
    96    15    14    2
    97    12    13    1
    98    41    40    2
    99   190   191    1
   100   190   193    1
   101   190   189    1
   102   191   200   am
   103    42    40   am
   104    14    13    1
   105    40    39    1
   106   206   207    1
   107   206   205    1
   108    13    16    1
   109    38    39    1
   110   167   166   ar
   111    24    21    1
   112    24    25    1
   113   129   128    1
   114   200   201    1
   115   203   202    2
   116   201   202    1
   117   201   204    1
   118    21    20    1
   119    21    22    1
   120    16    17    1
   121    23    22    2
   122   128   130    1
   123   128   127    1
   124   123   124    1
   125   166   168   ar
   126   166   165    1
   127   205   204    1
   128    25    27   ar
   129    25    26   ar
   130    33    32    2
   131   127   124    1
   132    17    19    1
   133    17    18    1
   134    27    29   ar
   135    32    31    1
   136   165   164    1
   137   124   125    1
   138    26    28   ar
   139   164   161    1
   140   137   135    1
   141    29    28   ar
   142   125   126    2
   143   161   160    1
   144   161   162    1
   145   160   156   am
   146    31    30    1
   147    31    34    1
   148   141   140    2
   149    36    34    1
   150   135   136    1
   151   135   132    1
   152   154   155    1
   153   154   148   am
   154   155   156    1
   155   155   158    1
   156    34    35    1
   157   156   157    2
   158   162   163    2
   159   162   169   am
   160   147   148    1
   161   147   150    1
   162   147   146    1
   163   152   150    1
   164   188   186    1
   165   140   146   am
   166   140   139    1
   167   148   149    2
   168   169   170    1
   169   150   151    1
   170   187   186    1
   171   142   139    1
   172   142   143    1
   173   132   133    1
   174   132   131    1
   175   138   139    1
   176   138   133   am
   177   158   159    1
   178   186   185    1
   179   185   182    1
   180   184   183    2
   181    35    37    1
   182   144   143    1
   183   133   134    2
   184   170   171    1
   185   143   145    1
   186   183   182    1
   187   151   153    1
   188   182   181    1
   189   179   180    1
   190   179   178    1
   191   171   172    2
   192   177   178    1
   193   177   174    1
   194   176   175    2
   195   173   174    1
   196   174   175    1
