@<TRIPOS>MOLECULE
tmp/4a4wB00.pdb
 244 234 0 0 0
SMALL
GASTEIGER

@<TRIPOS>ATOM
      1  N        -31.2260  -21.5240  -33.8720 N.3    21  PHE21      -0.1241
      2  CA       -31.2640  -20.5890  -34.9780 C.3    21  PHE21       0.1605
      3  C        -31.0610  -21.3380  -36.2870 C.2    21  PHE21       0.2264
      4  O        -29.9220  -21.6100  -36.6830 O.2    21  PHE21      -0.2867
      5  CB       -30.2260  -19.4740  -34.7790 C.3    21  PHE21       0.0534
      6  CG       -30.2250  -18.8970  -33.3920 C.ar   21  PHE21      -0.0203
      7  CD1      -31.2890  -18.1330  -32.9480 C.ar   21  PHE21      -0.0042
      8  CD2      -29.1670  -19.1340  -32.5250 C.ar   21  PHE21      -0.0042
      9  CE1      -31.3020  -17.5940  -31.6570 C.ar   21  PHE21      -0.0003
     10  CE2      -29.1620  -18.5970  -31.2170 C.ar   21  PHE21      -0.0003
     11  CZ       -30.2350  -17.8320  -30.7910 C.ar   21  PHE21      -0.0000
     12  N        -31.3120  -20.4920  -39.4990 N.3    23  LEU23      -0.1245
     13  CA       -30.5060  -19.7990  -40.4960 C.3    23  LEU23       0.1561
     14  C        -29.1860  -19.3270  -39.8860 C.2    23  LEU23       0.2260
     15  O        -29.1180  -18.2550  -39.2810 O.2    23  LEU23      -0.2867
     16  CB       -31.2900  -18.6360  -41.1270 C.3    23  LEU23       0.0270
     17  CG       -30.6100  -17.8310  -42.2540 C.3    23  LEU23       0.0019
     18  CD1      -29.8010  -18.6950  -43.2200 C.3    23  LEU23       0.0001
     19  CD2      -31.6310  -17.0060  -43.0150 C.3    23  LEU23       0.0001
     20  N        -46.0160  -14.5060  -47.0360 N.3    59  PHE59      -0.1241
     21  CA       -45.5740  -14.0770  -45.7030 C.3    59  PHE59       0.1605
     22  C        -46.6080  -14.3240  -44.6060 C.2    59  PHE59       0.2264
     23  O        -47.8110  -14.1580  -44.8200 O.2    59  PHE59      -0.2867
     24  CB       -45.1650  -12.6020  -45.7140 C.3    59  PHE59       0.0534
     25  CG       -43.9870  -12.3070  -46.5960 C.ar   59  PHE59      -0.0203
     26  CD1      -42.6980  -12.6460  -46.1960 C.ar   59  PHE59      -0.0042
     27  CD2      -44.1650  -11.6950  -47.8310 C.ar   59  PHE59      -0.0042
     28  CE1      -41.6040  -12.3770  -47.0130 C.ar   59  PHE59      -0.0003
     29  CE2      -43.0760  -11.4220  -48.6580 C.ar   59  PHE59      -0.0003
     30  CZ       -41.7960  -11.7660  -48.2490 C.ar   59  PHE59      -0.0000
     31  N        -47.0390  -12.7150  -41.7900 N.3    61  HIS61      -0.1241
     32  CA       -47.4720  -11.4950  -41.1000 C.3    61  HIS61       0.1621
     33  C        -48.5440  -10.6550  -41.8300 C.2    61  HIS61       0.2264
     34  O        -49.1830   -9.8010  -41.2100 O.2    61  HIS61      -0.2867
     35  CB       -46.2570  -10.6120  -40.8190 C.3    61  HIS61       0.0745
     36  CG       -45.7470   -9.9070  -42.0320 C.ar   61  HIS61       0.0817
     37  ND1      -44.8800  -10.4990  -42.9240 N.ar   61  HIS61      -0.2268
     38  CD2      -46.0100   -8.6730  -42.5220 C.ar   61  HIS61       0.1154
     39  CE1      -44.6170   -9.6520  -43.9030 C.ar   61  HIS61       0.1986
     40  NE2      -45.2910   -8.5370  -43.6830 N.ar   61  HIS61      -0.2212
     41  N        -43.8750   -3.2970  -44.1500 N.3    71  ILE71      -0.1245
     42  CA       -42.4900   -3.7210  -43.9490 C.3    71  ILE71       0.1561
     43  C        -42.1150   -3.6380  -42.4640 C.2    71  ILE71       0.2260
     44  O        -41.5450   -4.5770  -41.9150 O.2    71  ILE71      -0.2867
     45  CB       -41.4840   -2.9020  -44.7840 C.3    71  ILE71       0.0252
     46  CG1      -41.7770   -3.0520  -46.2800 C.3    71  ILE71       0.0019
     47  CG2      -40.0630   -3.3410  -44.4680 C.3    71  ILE71       0.0019
     48  CD1      -40.8910   -2.2040  -47.1750 C.3    71  ILE71       0.0001
     49  N        -43.6520   -6.3300  -40.5710 N.3    74  GLY74      -0.1210
     50  CA       -42.9890   -7.5870  -40.9180 C.3    74  GLY74       0.1956
     51  C        -41.7610   -7.8030  -40.0510 C.2    74  GLY74       0.2612
     52  O        -41.5150   -8.9120  -39.5620 O.2    74  GLY74      -0.2717
     53  N        -40.9980   -6.7260  -39.8680 N.am   75  CYS75      -0.1970
     54  CA       -39.8130   -6.7390  -39.0400 C.3    75  CYS75       0.1712
     55  C        -40.1750   -7.1220  -37.6000 C.2    75  CYS75       0.2296
     56  O        -39.4910   -7.9360  -36.9710 O.2    75  CYS75      -0.2864
     57  CB       -39.1680   -5.3600  -39.0940 C.3    75  CYS75       0.0983
     58  SG       -37.6410   -5.2700  -38.2390 S.3    75  CYS75      -0.0798
     59  N        -42.8780   -8.8280  -36.5830 N.3    77  PHE77      -0.1227
     60  CA       -43.2950  -10.2370  -36.5670 C.3    77  PHE77       0.1736
     61  C        -42.0740  -11.1300  -36.4480 C.2    77  PHE77       0.2595
     62  O        -42.0230  -12.0380  -35.6090 O.2    77  PHE77      -0.2718
     63  CB       -44.0720  -10.6040  -37.8520 C.3    77  PHE77       0.0547
     64  CG       -44.5440  -12.0610  -37.9060 C.ar   77  PHE77      -0.0202
     65  CD1      -43.7050  -13.0790  -38.3770 C.ar   77  PHE77      -0.0042
     66  CD2      -45.8400  -12.4050  -37.4920 C.ar   77  PHE77      -0.0042
     67  CE1      -44.1460  -14.4260  -38.4130 C.ar   77  PHE77      -0.0003
     68  CE2      -46.2910  -13.7420  -37.5350 C.ar   77  PHE77      -0.0003
     69  CZ       -45.4430  -14.7530  -37.9930 C.ar   77  PHE77      -0.0000
     70  N        -41.0910  -10.8670  -37.3040 N.am   78  ARG78      -0.1966
     71  CA       -39.8620  -11.6310  -37.2700 C.3    78  ARG78       0.1729
     72  C        -39.0900  -11.4330  -35.9630 C.2    78  ARG78       0.2616
     73  O        -38.5220  -12.3740  -35.4410 O.2    78  ARG78      -0.2715
     74  CB       -38.9860  -11.3250  -38.4840 C.3    78  ARG78       0.0348
     75  CG       -37.6370  -12.0310  -38.4460 C.3    78  ARG78       0.0492
     76  CD       -37.7180  -13.5590  -38.4360 C.3    78  ARG78       0.2205
     77  NE       -36.4160  -14.1200  -38.0630 N.pl3  78  ARG78      -0.0865
     78  CZ       -36.2150  -15.0900  -37.1740 C.cat  78  ARG78       0.5346
     79  NH1      -37.2370  -15.6780  -36.5700 N.pl3  78  ARG78       0.1354
     80  NH2      -34.9800  -15.4980  -36.9150 N.pl3  78  ARG78       0.1354
     81  N        -39.0770  -10.2120  -35.4420 N.am   79  SER79      -0.1950
     82  CA       -38.4020   -9.9320  -34.1740 C.3    79  SER79       0.1924
     83  C        -39.0400  -10.7160  -33.0130 C.2    79  SER79       0.2314
     84  O        -38.3500  -11.2790  -32.1660 O.2    79  SER79      -0.2863
     85  CB       -38.3970   -8.4300  -33.8870 C.3    79  SER79       0.2116
     86  OG       -37.5490   -7.7480  -34.8050 O.3    79  SER79      -0.2180
     87  N        -40.6360  -13.5490  -33.3830 N.3    81  GLU81      -0.1231
     88  CA       -40.1810  -14.9150  -33.6110 C.3    81  GLU81       0.1699
     89  C        -38.7870  -15.1350  -33.0490 C.2    81  GLU81       0.2592
     90  O        -38.5490  -16.1090  -32.3360 O.2    81  GLU81      -0.2718
     91  CB       -40.1190  -15.2280  -35.0960 C.3    81  GLU81       0.0402
     92  CG       -41.3500  -15.7700  -35.6620 C.3    81  GLU81       0.1161
     93  CD       -41.1390  -16.2140  -37.0830 C.2    81  GLU81       0.3649
     94  OE1      -40.5440  -15.4480  -37.8800 O.co2  81  GLU81      -0.2457
     95  OE2      -41.5680  -17.3370  -37.3960 O.co2  81  GLU81      -0.2457
     96  N        -37.8560  -14.2500  -33.4070 N.am   82  ALA82      -0.1980
     97  CA       -36.4840  -14.3450  -32.9260 C.3    82  ALA82       0.1597
     98  C        -36.4200  -14.3490  -31.3970 C.2    82  ALA82       0.2287
     99  O        -35.6400  -15.0950  -30.7990 O.2    82  ALA82      -0.2864
    100  CB       -35.6380  -13.1840  -33.4930 C.3    82  ALA82       0.0319
    101  N        -36.5970  -17.8710  -30.2610 N.3    85  GLU85      -0.1231
    102  CA       -35.4070  -18.6530  -30.5650 C.3    85  GLU85       0.1699
    103  C        -34.3030  -18.3110  -29.5540 C.2    85  GLU85       0.2592
    104  O        -33.5780  -19.1990  -29.0550 O.2    85  GLU85      -0.2718
    105  CB       -34.9270  -18.3320  -31.9810 C.3    85  GLU85       0.0402
    106  CG       -35.9010  -18.7670  -33.0550 C.3    85  GLU85       0.1161
    107  CD       -35.6520  -18.0760  -34.3830 C.2    85  GLU85       0.3649
    108  OE1      -34.4830  -17.7450  -34.7030 O.co2  85  GLU85      -0.2457
    109  OE2      -36.6380  -17.8560  -35.1100 O.co2  85  GLU85      -0.2457
    110  N        -34.1840  -17.0200  -29.2690 N.am   86  ILE86      -0.1980
    111  CA       -33.2090  -16.5030  -28.3180 C.3    86  ILE86       0.1595
    112  C        -33.4830  -17.0400  -26.8960 C.2    86  ILE86       0.2287
    113  O        -32.5580  -17.4020  -26.1570 O.2    86  ILE86      -0.2864
    114  CB       -33.1930  -14.9570  -28.3190 C.3    86  ILE86       0.0276
    115  CG1      -32.7030  -14.4410  -29.6820 C.3    86  ILE86       0.0022
    116  CG2      -32.2440  -14.4530  -27.2390 C.3    86  ILE86       0.0022
    117  CD1      -32.9550  -12.9410  -29.9240 C.3    86  ILE86       0.0001
    118  N        -30.7990   -9.5610  -31.2820 N.3   116  ILE116     -0.1231
    119  CA       -31.4400   -9.4920  -32.5860 C.3   116  ILE116      0.1692
    120  C        -30.5480   -8.7270  -33.5740 C.2   116  ILE116      0.2592
    121  O        -30.3300   -9.1810  -34.6850 O.2   116  ILE116     -0.2718
    122  CB       -32.8240   -8.8540  -32.5020 C.3   116  ILE116      0.0266
    123  CG1      -33.8320   -9.8380  -31.8890 C.3   116  ILE116      0.0019
    124  CG2      -33.2610   -8.3470  -33.8950 C.3   116  ILE116      0.0020
    125  CD1      -35.1480   -9.1770  -31.4750 C.3   116  ILE116      0.0001
    126  N        -30.0190   -7.5680  -33.1840 N.am  117  TYR117     -0.1976
    127  CA       -29.1500   -6.8250  -34.1110 C.3   117  TYR117      0.1639
    128  C        -27.8270   -7.5200  -34.3890 C.2   117  TYR117      0.2290
    129  O        -27.3230   -7.4680  -35.5100 O.2   117  TYR117     -0.2864
    130  CB       -28.9610   -5.3880  -33.6530 C.3   117  TYR117      0.0560
    131  CG       -30.2880   -4.7250  -33.5720 C.ar  117  TYR117     -0.0198
    132  CD1      -31.2080   -4.8440  -34.6230 C.ar  117  TYR117     -0.0009
    133  CD2      -30.6630   -4.0210  -32.4390 C.ar  117  TYR117     -0.0009
    134  CE1      -32.4650   -4.2620  -34.5410 C.ar  117  TYR117      0.0417
    135  CE2      -31.9100   -3.4320  -32.3490 C.ar  117  TYR117      0.0417
    136  CZ       -32.8010   -3.5570  -33.3930 C.ar  117  TYR117      0.1957
    137  OH       -34.0350   -2.9630  -33.2770 O.3   117  TYR117     -0.2866
    138  N        -27.4280  -10.7900  -34.5530 N.3   119  MET119     -0.1230
    139  CA       -27.6660  -11.8660  -35.4840 C.3   119  MET119      0.1702
    140  C        -28.1500  -11.3280  -36.8230 C.2   119  MET119      0.2592
    141  O        -27.9180  -11.9450  -37.8530 O.2   119  MET119     -0.2718
    142  CB       -28.5980  -12.9210  -34.8800 C.3   119  MET119      0.0401
    143  CG       -28.1000  -13.3910  -33.5100 C.3   119  MET119      0.0596
    144  SD       -28.9000  -14.8760  -32.9140 S.3   119  MET119     -0.1393
    145  CE       -28.4620  -16.0200  -34.2210 C.3   119  MET119      0.0692
    146  N        -28.7770  -10.1590  -36.8090 N.am  120  LEU120     -0.1980
    147  CA       -29.2310   -9.5440  -38.0430 C.3   120  LEU120      0.1596
    148  C        -28.0210   -9.2070  -38.9390 C.2   120  LEU120      0.2287
    149  O        -28.1140   -9.2870  -40.1600 O.2   120  LEU120     -0.2864
    150  CB       -30.0470   -8.3050  -37.7390 C.3   120  LEU120      0.0297
    151  CG       -30.5810   -7.4790  -38.9120 C.3   120  LEU120      0.0022
    152  CD1      -31.5110   -8.3060  -39.8110 C.3   120  LEU120      0.0001
    153  CD2      -31.2840   -6.2480  -38.3730 C.3   120  LEU120      0.0001
    154  N        -27.0980  -11.6330  -41.5350 N.3   123  LEU123     -0.1245
    155  CA       -28.0020  -11.6860  -42.6760 C.3   123  LEU123      0.1561
    156  C        -27.8440  -10.4850  -43.5850 C.2   123  LEU123      0.2260
    157  O        -28.5260  -10.3990  -44.6090 O.2   123  LEU123     -0.2867
    158  CB       -29.4600  -11.7430  -42.1910 C.3   123  LEU123      0.0270
    159  CG       -29.8220  -12.8350  -41.1800 C.3   123  LEU123      0.0019
    160  CD1      -31.2670  -12.7100  -40.7450 C.3   123  LEU123      0.0001
    161  CD2      -29.5620  -14.2130  -41.7190 C.3   123  LEU123      0.0001
    162  N        -30.4760   -7.1250  -46.9190 N.3   129  VAL129     -0.1231
    163  CA       -30.7050   -8.1010  -45.8590 C.3   129  VAL129      0.1692
    164  C        -31.5070   -9.3310  -46.3270 C.2   129  VAL129      0.2592
    165  O        -32.5370   -9.2000  -46.9830 O.2   129  VAL129     -0.2718
    166  CB       -31.3670   -7.4100  -44.6230 C.3   129  VAL129      0.0266
    167  CG1      -32.7130   -6.7500  -44.9890 C.3   129  VAL129      0.0020
    168  CG2      -31.5300   -8.3790  -43.4540 C.3   129  VAL129      0.0020
    169  N        -31.0150  -10.5210  -45.9950 N.am  130  LEU130     -0.1966
    170  CA       -31.7750  -11.7510  -46.1760 C.3   130  LEU130      0.1728
    171  C        -33.0260  -11.7410  -45.3080 C.2   130  LEU130      0.2616
    172  O        -32.9500  -11.4900  -44.1030 O.2   130  LEU130     -0.2715
    173  CB       -30.9280  -12.9570  -45.7890 C.3   130  LEU130      0.0311
    174  CG       -29.7910  -13.3390  -46.7180 C.3   130  LEU130      0.0022
    175  CD1      -29.0610  -14.5400  -46.1560 C.3   130  LEU130      0.0001
    176  CD2      -30.3310  -13.6520  -48.1070 C.3   130  LEU130      0.0001
    177  N        -34.1740  -12.0030  -45.9220 N.am  131  ILE131     -0.1963
    178  CA       -35.4410  -12.0530  -45.2020 C.3   131  ILE131      0.1727
    179  C        -36.1310  -13.3900  -45.4380 C.2   131  ILE131      0.2617
    180  O        -35.7650  -14.1380  -46.3540 O.2   131  ILE131     -0.2715
    181  CB       -36.3970  -10.9210  -45.6200 C.3   131  ILE131      0.0290
    182  CG1      -36.6850  -10.9930  -47.1280 C.3   131  ILE131      0.0022
    183  CG2      -35.8270   -9.5690  -45.2040 C.3   131  ILE131      0.0023
    184  CD1      -37.9840  -10.3340  -47.5550 C.3   131  ILE131      0.0001
    185  N        -37.1330  -13.6730  -44.6090 N.am  132  SER132     -0.1936
    186  CA       -37.9770  -14.8570  -44.7520 C.3   132  SER132      0.2055
    187  C        -37.1330  -16.1300  -44.8060 C.2   132  SER132      0.2642
    188  O        -37.1250  -16.8550  -45.8070 O.2   132  SER132     -0.2714
    189  CB       -38.8770  -14.7260  -45.9840 C.3   132  SER132      0.2130
    190  OG       -39.8540  -15.7490  -45.9990 O.3   132  SER132     -0.2179
    191  N        -36.3910  -16.3720  -43.7290 N.am  133  GLU133     -0.1976
    192  CA       -35.5230  -17.5420  -43.6260 C.3   133  GLU133      0.1602
    193  C        -34.6330  -17.6330  -44.8700 C.2   133  GLU133      0.2287
    194  O        -34.3410  -18.7230  -45.3780 O.2   133  GLU133     -0.2864
    195  CB       -36.3610  -18.8170  -43.4010 C.3   133  GLU133      0.0415
    196  CG       -35.5740  -20.1430  -43.3910 C.3   133  GLU133      0.1163
    197  CD       -35.2470  -20.6760  -42.0000 C.2   133  GLU133      0.3649
    198  OE1      -35.9880  -20.3800  -41.0280 O.co2 133  GLU133     -0.2457
    199  OE2      -34.2480  -21.4250  -41.8930 O.co2 133  GLU133     -0.2457
    200  N        -33.9170   -8.2170  -49.3220 N.3   138  MET138     -0.1245
    201  CA       -34.4560   -6.8740  -49.4340 C.3   138  MET138      0.1570
    202  C        -33.3260   -5.8780  -49.4620 C.2   138  MET138      0.2261
    203  O        -32.4500   -5.8930  -48.5930 O.2   138  MET138     -0.2867
    204  CB       -35.4270   -6.5560  -48.3050 C.3   138  MET138      0.0387
    205  CG       -36.2280   -5.2970  -48.5680 C.3   138  MET138      0.0595
    206  SD       -37.3920   -4.9590  -47.2520 S.3   138  MET138     -0.1393
    207  CE       -38.6570   -6.1900  -47.5640 C.3   138  MET138      0.0692
    208  N        -35.0830   -0.1190  -48.6700 N.3   143  LEU143     -0.1245
    209  CA       -35.3850    0.2110  -47.2730 C.3   143  LEU143      0.1561
    210  C        -35.1410    1.6850  -46.9700 C.2   143  LEU143      0.2260
    211  O        -35.9620    2.3230  -46.3070 O.2   143  LEU143     -0.2867
    212  CB       -34.6000   -0.6780  -46.3040 C.3   143  LEU143      0.0270
    213  CG       -35.1720   -2.0780  -46.0720 C.3   143  LEU143      0.0019
    214  CD1      -34.1170   -2.9970  -45.4630 C.3   143  LEU143      0.0001
    215  CD2      -36.4250   -2.0310  -45.2000 C.3   143  LEU143      0.0001
    216  N        -34.9410    3.6070  -40.6620 N.3   153  PHE153     -0.1227
    217  CA       -35.2200    2.6010  -39.6480 C.3   153  PHE153      0.1736
    218  C        -34.2140    1.4460  -39.6610 C.2   153  PHE153      0.2595
    219  O        -33.7830    1.0010  -38.6020 O.2   153  PHE153     -0.2718
    220  CB       -36.7040    2.2010  -39.7330 C.3   153  PHE153      0.0547
    221  CG       -37.0030    0.7720  -39.4300 C.ar  153  PHE153     -0.0202
    222  CD1      -36.9770    0.2930  -38.1220 C.ar  153  PHE153     -0.0042
    223  CD2      -37.3960   -0.0880  -40.4580 C.ar  153  PHE153     -0.0042
    224  CE1      -37.2860   -1.0400  -37.8470 C.ar  153  PHE153     -0.0003
    225  CE2      -37.7090   -1.4170  -40.1960 C.ar  153  PHE153     -0.0003
    226  CZ       -37.6540   -1.8920  -38.8850 C.ar  153  PHE153     -0.0000
    227  N        -33.8000    1.0010  -40.8460 N.am  154  MET154     -0.1979
    228  CA       -32.8410   -0.1090  -40.9550 C.3   154  MET154      0.1605
    229  C        -31.4140    0.3760  -41.1650 C.2   154  MET154      0.2287
    230  O        -30.4620   -0.3670  -40.9210 O.2   154  MET154     -0.2864
    231  CB       -33.2240   -1.0870  -42.0720 C.3   154  MET154      0.0413
    232  CG       -34.4030   -2.0130  -41.7560 C.3   154  MET154      0.0598
    233  SD       -34.1860   -3.0790  -40.2990 S.3   154  MET154     -0.1393
    234  CE       -32.6820   -3.9340  -40.6940 C.3   154  MET154      0.0692
    235  N        -33.1240    2.7390  -31.4930 N.3   239  HIS239     -0.1241
    236  CA       -34.2740    2.0830  -32.0550 C.3   239  HIS239      0.1621
    237  C        -35.4990    2.4390  -31.2310 C.2   239  HIS239      0.2264
    238  O        -36.5360    2.7970  -31.7880 O.2   239  HIS239     -0.2867
    239  CB       -34.0810    0.5710  -32.1230 C.3   239  HIS239      0.0745
    240  CG       -35.2150   -0.1460  -32.7810 C.ar  239  HIS239      0.0817
    241  ND1      -35.3710   -0.1940  -34.1490 N.ar  239  HIS239     -0.2268
    242  CD2      -36.2470   -0.8490  -32.2600 C.ar  239  HIS239      0.1154
    243  CE1      -36.4520   -0.8950  -34.4440 C.ar  239  HIS239      0.1986
    244  NE2      -37.0050   -1.3010  -33.3160 N.ar  239  HIS239     -0.2212
@<TRIPOS>BOND
     1   202   201    1
     2   202   203    2
     3   201   200    1
     4   201   204    1
     5   208   209    1
     6    29    30   ar
     7    29    27   ar
     8   205   204    1
     9   205   206    1
    10    30    28   ar
    11   176   174    1
    12    27    25   ar
    13   207   206    1
    14   184   182    1
    15   209   210    1
    16   209   212    1
    17    48    46    1
    18   182   181    1
    19    20    21    1
    20    28    26   ar
    21   165   164    2
    22   210   211    2
    23   162   163    1
    24   174   175    1
    25   174   173    1
    26    25    26   ar
    27    25    24    1
    28   180   179    2
    29   164   169   am
    30   164   163    1
    31   212   213    1
    32    46    45    1
    33   170   169    1
    34   170   173    1
    35   170   171    1
    36   213   214    1
    37   213   215    1
    38   190   189    1
    39   189   186    1
    40   177   171   am
    41   177   178    1
    42   163   166    1
    43   188   187    2
    44    24    21    1
    45    21    22    1
    46   181   183    1
    47   181   178    1
    48   179   178    1
    49   179   185   am
    50   194   193    2
    51   171   172    2
    52   167   166    1
    53   193   192    1
    54    23    22    2
    55   187   186    1
    56   187   191   am
    57    45    47    1
    58    45    42    1
    59   186   185    1
    60   166   168    1
    61   157   156    2
    62    41    42    1
    63    42    43    1
    64    39    40   ar
    65    39    37   ar
    66   191   192    1
    67    40    38   ar
    68   192   195    1
    69   156   155    1
    70   195   196    1
    71   196   197    1
    72    18    17    1
    73    19    17    1
    74    37    36   ar
    75   155   158    1
    76   155   154    1
    77    38    36   ar
    78    43    44    2
    79    17    16    1
    80   158   159    1
    81   231   232    1
    82   231   228    1
    83    36    35    1
    84   197   199   ar
    85   197   198   ar
    86    33    34    2
    87    33    32    1
    88    31    32    1
    89   232   233    1
    90   161   159    1
    91   159   160    1
    92   229   228    1
    93   229   230    2
    94    16    13    1
    95    32    35    1
    96   228   227    1
    97    50    49    1
    98    50    51    1
    99   227   218   am
   100   234   233    1
   101   216   217    1
   102    13    14    1
   103    13    12    1
   104   223   225   ar
   105   223   221   ar
   106   225   226   ar
   107   149   148    2
   108    51    53   am
   109    51    52    2
   110    14    15    2
   111    53    54    1
   112   152   151    1
   113   220   217    1
   114   220   221    1
   115   218   217    1
   116   218   219    2
   117   221   222   ar
   118    57    54    1
   119    57    58    1
   120    54    55    1
   121   148   147    1
   122   151   153    1
   123   151   150    1
   124   226   224   ar
   125    74    75    1
   126    74    71    1
   127    75    76    1
   128    76    77    1
   129    67    65   ar
   130    67    69   ar
   131    65    64   ar
   132   222   224   ar
   133    77    78    2
   134   147   150    1
   135   147   146    1
   136    69    68   ar
   137    64    63    1
   138    64    66   ar
   139    94    93   ar
   140   141   140    2
   141    63    60    1
   142    55    56    2
   143    68    66   ar
   144    95    93   ar
   145    70    71    1
   146    70    61   am
   147    71    72    1
   148    78    80    1
   149    78    79    1
   150    93    92    1
   151   140   146   am
   152   140   139    1
   153     4     3    2
   154    59    60    1
   155    60    61    1
   156    61    62    2
   157     3     2    1
   158    72    81   am
   159    72    73    2
   160    92    91    1
   161   129   128    2
   162   139   142    1
   163   139   138    1
   164    81    82    1
   165   109   107   ar
   166    91    88    1
   167     2     5    1
   168     2     1    1
   169   142   143    1
   170    86    85    1
   171     5     6    1
   172   108   107   ar
   173   121   120    2
   174   132   134   ar
   175   132   131   ar
   176   134   136   ar
   177   243   241   ar
   178   243   244   ar
   179   128   127    1
   180   107   106    1
   181   145   144    1
   182    82    85    1
   183    82    83    1
   184   241   240   ar
   185   127   130    1
   186   127   126    1
   187   124   122    1
   188   130   131    1
   189    88    87    1
   190    88    89    1
   191   120   126   am
   192   120   119    1
   193   131   133   ar
   194   143   144    1
   195   100    97    1
   196    96    89   am
   197    96    97    1
   198   136   137    1
   199   136   135   ar
   200     6     7   ar
   201     6     8   ar
   202   244   242   ar
   203   106   105    1
   204    89    90    2
   205    83    84    2
   206     7     9   ar
   207    97    98    1
   208   240   242   ar
   209   240   239    1
   210   119   122    1
   211   119   118    1
   212     8    10   ar
   213   122   123    1
   214   133   135   ar
   215   239   236    1
   216   236   235    1
   217   236   237    1
   218   105   102    1
   219   123   125    1
   220   238   237    2
   221     9    11   ar
   222    98    99    2
   223    10    11   ar
   224   102   101    1
   225   102   103    1
   226   117   115    1
   227   115   114    1
   228   103   110   am
   229   103   104    2
   230   110   111    1
   231   114   111    1
   232   114   116    1
   233   111   112    1
   234   112   113    2
