@<TRIPOS>MOLECULE
tmp/4a4xA00.pdb
 172 166 0 0 0
SMALL
GASTEIGER

@<TRIPOS>ATOM
      1  N         -9.5320   -4.3890    9.1130 N.3    10  TYR10      -0.1241
      2  CA        -9.8680   -5.7760    9.4380 C.3    10  TYR10       0.1605
      3  C         -8.7460   -6.4910   10.1870 C.2    10  TYR10       0.2264
      4  O         -7.6490   -5.9820   10.3730 O.2    10  TYR10      -0.2867
      5  CB       -10.2430   -6.5810    8.1850 C.3    10  TYR10       0.0534
      6  CG        -9.1490   -6.6870    7.1510 C.ar   10  TYR10      -0.0201
      7  CD1       -8.1050   -7.6040    7.2920 C.ar   10  TYR10      -0.0009
      8  CD2       -9.1530   -5.8690    6.0280 C.ar   10  TYR10      -0.0009
      9  CE1       -7.0820   -7.7050    6.3240 C.ar   10  TYR10       0.0417
     10  CE2       -8.1580   -5.9710    5.0540 C.ar   10  TYR10       0.0417
     11  CZ        -7.1220   -6.8700    5.2120 C.ar   10  TYR10       0.1957
     12  OH        -6.1460   -6.9370    4.2370 O.3    10  TYR10      -0.2866
     13  N         -5.9990   -9.3650   11.0900 N.3    12  ILE12      -0.1231
     14  CA        -5.0280  -10.1860   10.4360 C.3    12  ILE12       0.1692
     15  C         -4.7080  -11.4280   11.2340 C.2    12  ILE12       0.2592
     16  O         -4.4500  -12.4800   10.6810 O.2    12  ILE12      -0.2718
     17  CB        -3.7170   -9.4050   10.2640 C.3    12  ILE12       0.0266
     18  CG1       -3.8780   -8.2940    9.2530 C.3    12  ILE12       0.0019
     19  CG2       -2.6040  -10.3250    9.7950 C.3    12  ILE12       0.0020
     20  CD1       -2.6550   -7.3990    9.2320 C.3    12  ILE12       0.0001
     21  N         -4.6630  -11.2850   12.5480 N.am   13  GLY13      -0.1957
     22  CA        -4.2770  -12.3820   13.4120 C.3    13  GLY13       0.1869
     23  C         -4.9140  -12.2930   14.7790 C.2    13  GLY13       0.2309
     24  O         -5.2190  -11.1940   15.2560 O.2    13  GLY13      -0.2863
     25  N         -1.6870  -13.7180   22.5610 N.3    17  TYR17      -0.1241
     26  CA        -1.4000  -12.3010   22.8290 C.3    17  TYR17       0.1605
     27  C         -2.6820  -11.4890   22.8840 C.2    17  TYR17       0.2264
     28  O         -3.0100  -10.9100   23.9090 O.2    17  TYR17      -0.2867
     29  CB        -0.4710  -11.7190   21.7590 C.3    17  TYR17       0.0534
     30  CG        -0.9810  -11.9080   20.3480 C.ar   17  TYR17      -0.0201
     31  CD1       -0.9040  -13.1560   19.7190 C.ar   17  TYR17      -0.0009
     32  CD2       -1.5410  -10.8480   19.6420 C.ar   17  TYR17      -0.0009
     33  CE1       -1.3760  -13.3390   18.4320 C.ar   17  TYR17       0.0417
     34  CE2       -2.0120  -11.0180   18.3470 C.ar   17  TYR17       0.0417
     35  CZ        -1.9270  -12.2640   17.7490 C.ar   17  TYR17       0.1957
     36  OH        -2.3880  -12.4570   16.4630 O.3    17  TYR17      -0.2866
     37  N         -4.2430   -8.7340   16.0030 N.3    20  CYS20      -0.1235
     38  CA        -3.5210   -7.8210   15.1170 C.3    20  CYS20       0.1677
     39  C         -4.3810   -7.3860   13.9600 C.2    20  CYS20       0.2270
     40  O         -4.9450   -8.2280   13.2510 O.2    20  CYS20      -0.2867
     41  CB        -2.2470   -8.4420   14.5560 C.3    20  CYS20       0.0956
     42  SG        -0.8220   -8.1390   15.5480 S.3    20  CYS20      -0.0801
     43  N         -0.5820   -1.2450   11.0320 N.3    33  VAL33      -0.1245
     44  CA        -1.2590   -2.2680   11.7940 C.3    33  VAL33       0.1561
     45  C         -1.0090   -1.9970   13.2630 C.2    33  VAL33       0.2260
     46  O         -0.0410   -1.3120   13.6140 O.2    33  VAL33      -0.2867
     47  CB        -0.7810   -3.7100   11.4100 C.3    33  VAL33       0.0252
     48  CG1       -0.5410   -3.7960    9.9440 C.3    33  VAL33       0.0019
     49  CG2        0.4600   -4.0820   12.1630 C.3    33  VAL33       0.0019
     50  N         -1.1390   -4.0800   17.2450 N.3    35  LYS35      -0.1245
     51  CA        -1.3630   -5.2110   18.1230 C.3    35  LYS35       0.1561
     52  C         -2.3180   -4.8020   19.2690 C.2    35  LYS35       0.2260
     53  O         -2.1230   -3.7620   19.9180 O.2    35  LYS35      -0.2867
     54  CB        -0.0160   -5.6530   18.6870 C.3    35  LYS35       0.0271
     55  CG        -0.0270   -6.9930   19.3930 C.3    35  LYS35       0.0035
     56  CD         1.3210   -7.6910   19.2670 C.3    35  LYS35       0.0206
     57  CE         2.4670   -6.7850   19.7250 C.3    35  LYS35       0.1093
     58  NZ         3.7940   -7.3630   19.3390 N.3    35  LYS35      -0.1314
     59  N         11.1890   -4.1510   12.3430 N.3    66  VAL66      -0.1245
     60  CA         9.7930   -3.7280   12.2410 C.3    66  VAL66       0.1561
     61  C          9.5420   -2.4460   13.0470 C.2    66  VAL66       0.2260
     62  O          9.7810   -2.3990   14.2390 O.2    66  VAL66      -0.2867
     63  CB         8.8270   -4.8350   12.6760 C.3    66  VAL66       0.0252
     64  CG1        7.4270   -4.2550   12.8280 C.3    66  VAL66       0.0019
     65  CG2        8.8570   -5.9810   11.6600 C.3    66  VAL66       0.0019
     66  N          2.2590   -0.2580   14.5020 N.3    84  MET84      -0.1230
     67  CA         3.4960   -0.4810   13.7490 C.3    84  MET84       0.1702
     68  C          3.2710   -0.3850   12.2310 C.2    84  MET84       0.2592
     69  O          2.1290   -0.4300   11.7460 O.2    84  MET84      -0.2718
     70  CB         4.0950   -1.8540   14.1350 C.3    84  MET84       0.0401
     71  CG         3.2060   -3.0420   13.8120 C.3    84  MET84       0.0596
     72  SD         3.7590   -4.6340   14.5010 S.3    84  MET84      -0.1393
     73  CE         3.4490   -4.4600   16.2650 C.3    84  MET84       0.0692
     74  N          4.3610   -0.2950   11.4860 N.am   85  GLU85      -0.1966
     75  CA         4.3060   -0.4260   10.0360 C.3    85  GLU85       0.1733
     76  C          3.6310   -1.7220    9.5550 C.2    85  GLU85       0.2616
     77  O          3.6580   -2.7530   10.2190 O.2    85  GLU85      -0.2715
     78  CB         5.7000   -0.3230    9.4470 C.3    85  GLU85       0.0429
     79  CG         6.6520   -1.4720    9.8450 C.3    85  GLU85       0.1163
     80  CD         8.0180   -1.4110    9.0720 C.2    85  GLU85       0.3649
     81  OE1        8.0360   -1.5150    7.8280 O.co2  85  GLU85      -0.2457
     82  OE2        9.0820   -1.2460    9.6980 O.co2  85  GLU85      -0.2457
     83  N          2.9870   -1.6360    8.4050 N.am   86  TYR86      -0.1960
     84  CA         2.3570   -2.7620    7.7670 C.3    86  TYR86       0.1771
     85  C          3.3860   -3.4760    6.8770 C.2    86  TYR86       0.2620
     86  O          3.9970   -2.8590    6.0220 O.2    86  TYR86      -0.2715
     87  CB         1.1830   -2.2720    6.9180 C.3    86  TYR86       0.0574
     88  CG         0.4860   -3.3480    6.0780 C.ar   86  TYR86      -0.0198
     89  CD1        0.0740   -4.5500    6.6490 C.ar   86  TYR86      -0.0009
     90  CD2        0.2030   -3.1400    4.7270 C.ar   86  TYR86      -0.0009
     91  CE1       -0.6040   -5.4970    5.9250 C.ar   86  TYR86       0.0417
     92  CE2       -0.4920   -4.0850    3.9940 C.ar   86  TYR86       0.0417
     93  CZ        -0.9100   -5.2640    4.6060 C.ar   86  TYR86       0.1957
     94  OH        -1.5760   -6.2420    3.8660 O.3    86  TYR86      -0.2866
     95  N          3.5650   -4.7740    7.0870 N.am   87  CYS87      -0.1954
     96  CA         4.4540   -5.5780    6.2570 C.3    87  CYS87       0.1843
     97  C          3.6300   -6.4620    5.3460 C.2    87  CYS87       0.2625
     98  O          3.2530   -7.5830    5.7280 O.2    87  CYS87      -0.2714
     99  CB         5.3150   -6.4270    7.1570 C.3    87  CYS87       0.0997
    100  SG         6.2780   -5.4140    8.2240 S.3    87  CYS87      -0.0797
    101  N          3.3210   -5.9560    4.1550 N.am   88  GLU88      -0.1963
    102  CA         2.2990   -6.6010    3.3330 C.3    88  GLU88       0.1733
    103  C          2.6290   -8.0610    2.9350 C.2    88  GLU88       0.2617
    104  O          1.7430   -8.8450    2.5900 O.2    88  GLU88      -0.2715
    105  CB         1.9950   -5.7560    2.0960 C.3    88  GLU88       0.0429
    106  CG         2.8940   -6.0160    0.9000 C.3    88  GLU88       0.1163
    107  CD         2.4070   -5.3330   -0.3910 C.2    88  GLU88       0.3649
    108  OE1        1.7190   -4.2880   -0.2810 O.co2  88  GLU88      -0.2457
    109  OE2        2.7370   -5.8300   -1.5030 O.co2  88  GLU88      -0.2457
    110  N          3.9000   -8.4380    2.9860 N.am   89  GLY89      -0.1940
    111  CA         4.2860   -9.7570    2.5220 C.3    89  GLY89       0.2014
    112  C          4.1320  -10.8680    3.5570 C.2    89  GLY89       0.2639
    113  O          4.3430  -12.0480    3.2660 O.2    89  GLY89      -0.2714
    114  N          3.7730  -10.5000    4.7750 N.am   90  GLY90      -0.1939
    115  CA         3.7140  -11.4680    5.8420 C.3    90  GLY90       0.2014
    116  C          5.0240  -11.8870    6.5260 C.2    90  GLY90       0.2638
    117  O          6.0840  -11.2200    6.4440 O.2    90  GLY90      -0.2714
    118  N          4.9220  -13.0140    7.2220 N.am   91  ASP91      -0.1971
    119  CA         6.0380  -13.6210    7.9210 C.3    91  ASP91       0.1709
    120  C          6.6960  -14.6840    7.0320 C.2    91  ASP91       0.2293
    121  O          6.0920  -15.1410    6.0770 O.2    91  ASP91      -0.2864
    122  CB         5.5360  -14.2550    9.2300 C.3    91  ASP91       0.1436
    123  CG         4.5360  -15.3850    8.9840 C.2    91  ASP91       0.3671
    124  OD1        3.4120  -15.0790    8.5010 O.co2  91  ASP91      -0.2456
    125  OD2        4.8730  -16.5730    9.2630 O.co2  91  ASP91      -0.2456
    126  N          8.9760  -17.1350   11.9840 N.3   136  ALA136     -0.1231
    127  CA         7.7660  -16.4860   12.4370 C.3   136  ALA136      0.1694
    128  C          8.0040  -15.0280   12.8190 C.2   136  ALA136      0.2592
    129  O          7.0760  -14.2440   12.7920 O.2   136  ALA136     -0.2718
    130  CB         7.1530  -17.2720   13.6060 C.3   136  ALA136      0.0304
    131  N          9.2350  -14.6810   13.1850 N.am  137  ASN137     -0.1974
    132  CA         9.5570  -13.3360   13.6090 C.3   137  ASN137      0.1688
    133  C         10.2670  -12.5250   12.5210 C.2   137  ASN137      0.2292
    134  O         11.0100  -11.6130   12.8110 O.2   137  ASN137     -0.2864
    135  CB        10.3890  -13.3490   14.8980 C.3   137  ASN137      0.1181
    136  CG        10.5110  -11.9470   15.5380 C.2   137  ASN137      0.2629
    137  OD1       11.5460  -11.5900   16.1120 O.2   137  ASN137     -0.2716
    138  ND2        9.4500  -11.1650   15.4370 N.am  137  ASN137     -0.0877
    139  N          9.5730  -10.4640    8.7650 N.3   139  PHE139     -0.1241
    140  CA         8.4570   -9.9700    7.9830 C.3   139  PHE139      0.1605
    141  C          8.9560   -9.3010    6.7090 C.2   139  PHE139      0.2264
    142  O         10.1000   -8.8620    6.6410 O.2   139  PHE139     -0.2867
    143  CB         7.6040   -9.0370    8.8490 C.3   139  PHE139      0.0534
    144  CG         7.1470   -9.6910   10.1330 C.ar  139  PHE139     -0.0203
    145  CD1        8.0140   -9.8010   11.2080 C.ar  139  PHE139     -0.0042
    146  CD2        5.8760  -10.2760   10.2270 C.ar  139  PHE139     -0.0042
    147  CE1        7.6140  -10.4420   12.3770 C.ar  139  PHE139     -0.0003
    148  CE2        5.4480  -10.9120   11.3960 C.ar  139  PHE139     -0.0003
    149  CZ         6.3160  -10.9990   12.4740 C.ar  139  PHE139     -0.0000
    150  N         10.9730   -8.9260   13.6720 N.3   149  GLY149     -0.1210
    151  CA         9.9490   -8.4820   14.6100 C.3   149  GLY149      0.1956
    152  C         10.3760   -8.5450   16.0780 C.2   149  GLY149      0.2612
    153  O         11.5660   -8.6570   16.4040 O.2   149  GLY149     -0.2717
    154  N          9.3930   -8.4980   16.9790 N.am  150  ASP150     -0.1959
    155  CA         9.6970   -8.3490   18.3920 C.3   150  ASP150      0.1840
    156  C          9.6100   -9.6240   19.2270 C.2   150  ASP150      0.2622
    157  O          9.7340   -9.5470   20.4570 O.2   150  ASP150     -0.2715
    158  CB         8.8210   -7.2490   19.0150 C.3   150  ASP150      0.1450
    159  CG         7.3500   -7.6830   19.2110 C.2   150  ASP150      0.3671
    160  OD1        7.0430   -8.8990   19.1290 O.co2 150  ASP150     -0.2456
    161  OD2        6.4940   -6.7950   19.4620 O.co2 150  ASP150     -0.2456
    162  N          9.3600  -10.7740   18.5940 N.am  151  PHE151     -0.1974
    163  CA         9.2610  -12.0290   19.3470 C.3   151  PHE151      0.1639
    164  C         10.5430  -12.2800   20.1240 C.2   151  PHE151      0.2290
    165  O         11.6300  -12.1480   19.5830 O.2   151  PHE151     -0.2864
    166  CB         8.9960  -13.2070   18.4290 C.3   151  PHE151      0.0560
    167  CG         7.6060  -13.2540   17.8990 C.ar  151  PHE151     -0.0200
    168  CD1        6.5280  -13.2160   18.7640 C.ar  151  PHE151     -0.0042
    169  CD2        7.3690  -13.3290   16.5280 C.ar  151  PHE151     -0.0042
    170  CE1        5.2150  -13.2650   18.2750 C.ar  151  PHE151     -0.0003
    171  CE2        6.0760  -13.3710   16.0190 C.ar  151  PHE151     -0.0003
    172  CZ         4.9880  -13.3410   16.8960 C.ar  151  PHE151     -0.0000
@<TRIPOS>BOND
     1   109   107   ar
     2   107   108   ar
     3   107   106    1
     4   106   105    1
     5   105   102    1
     6   111   110    1
     7   111   112    1
     8   104   103    2
     9   103   110   am
    10   103   102    1
    11   113   112    2
    12   102   101    1
    13   112   114   am
    14    94    93    1
    15    92    93   ar
    16    92    90   ar
    17   101    97   am
    18    12    11    1
    19    93    91   ar
    20    90    88   ar
    21   114   115    1
    22    10    11   ar
    23    10     8   ar
    24    11     9   ar
    25    97    98    2
    26    97    96    1
    27   115   116    1
    28    91    89   ar
    29    86    85    2
    30     8     6   ar
    31   121   120    2
    32    88    89   ar
    33    88    87    1
    34    96    95    1
    35    96    99    1
    36     9     7   ar
    37   117   116    2
    38   116   118   am
    39   142   141    2
    40   141   140    1
    41    85    95   am
    42    85    84    1
    43    87    84    1
    44   120   119    1
    45     6     7   ar
    46     6     5    1
    47    99   100    1
    48   118   119    1
    49    84    83    1
    50    81    80   ar
    51   119   122    1
    52   140   139    1
    53   140   143    1
    54     5     2    1
    55    83    76   am
    56   124   123   ar
    57   143   144    1
    58   123   122    1
    59   123   125   ar
    60    80    82   ar
    61    80    79    1
    62     1     2    1
    63    20    18    1
    64    18    17    1
    65     2     3    1
    66    78    79    1
    67    78    75    1
    68    76    75    1
    69    76    77    2
    70    19    17    1
    71    48    47    1
    72    75    74    1
    73   144   146   ar
    74   144   145   ar
    75     3     4    2
    76   146   148   ar
    77    17    14    1
    78    14    13    1
    79    14    15    1
    80    16    15    2
    81    43    44    1
    82   145   147   ar
    83    15    21   am
    84   148   149   ar
    85    47    44    1
    86    47    49    1
    87    74    68   am
    88    65    63    1
    89    69    68    2
    90    44    45    1
    91   126   127    1
    92    68    67    1
    93    60    59    1
    94    60    63    1
    95    60    61    1
    96   147   149   ar
    97   127   128    1
    98   127   130    1
    99   133   134    2
   100   133   132    1
   101    21    22    1
   102    63    64    1
   103   129   128    2
   104   128   131   am
   105    61    62    2
   106   131   132    1
   107    40    39    2
   108    45    46    2
   109    22    23    1
   110   132   135    1
   111   150   151    1
   112    67    70    1
   113    67    66    1
   114    71    70    1
   115    71    72    1
   116    39    38    1
   117    72    73    1
   118    41    38    1
   119    41    42    1
   120   151   152    1
   121    23    24    2
   122   135   136    1
   123    38    37    1
   124   138   136   am
   125   136   137    2
   126   171   169   ar
   127   171   172   ar
   128   152   153    2
   129   152   154   am
   130    36    35    1
   131   169   167   ar
   132   172   170   ar
   133   154   155    1
   134    50    51    1
   135    35    34   ar
   136    35    33   ar
   137   167   166    1
   138   167   168   ar
   139    51    54    1
   140    51    52    1
   141   170   168   ar
   142    34    32   ar
   143   155   158    1
   144   155   156    1
   145   166   163    1
   146    33    31   ar
   147   162   156   am
   148   162   163    1
   149    54    55    1
   150   158   159    1
   151   160   159   ar
   152   159   161   ar
   153   156   157    2
   154    56    55    1
   155    56    57    1
   156    52    53    2
   157    58    57    1
   158   163   164    1
   159   165   164    2
   160    32    30   ar
   161    31    30   ar
   162    30    29    1
   163    29    26    1
   164    25    26    1
   165    26    27    1
   166    27    28    2
