@<TRIPOS>MOLECULE
tmp/4a4zA00.pdb
 175 167 0 0 0
SMALL
GASTEIGER

@<TRIPOS>ATOM
      1  N         54.3830   30.0120   50.8560 N.3    30  PHE30      -0.1227
      2  CA        55.3720   30.8260   50.1570 C.3    30  PHE30       0.1736
      3  C         54.9100   31.1800   48.7490 C.2    30  PHE30       0.2595
      4  O         53.8580   30.7290   48.2960 O.2    30  PHE30      -0.2718
      5  CB        56.7130   30.0900   50.0890 C.3    30  PHE30       0.0547
      6  CG        56.6010   28.6640   49.6200 C.ar   30  PHE30      -0.0202
      7  CD1       56.4580   28.3700   48.2740 C.ar   30  PHE30      -0.0042
      8  CD2       56.6440   27.6180   50.5280 C.ar   30  PHE30      -0.0042
      9  CE1       56.3560   27.0600   47.8430 C.ar   30  PHE30      -0.0003
     10  CE2       56.5420   26.3060   50.1030 C.ar   30  PHE30      -0.0003
     11  CZ        56.3980   26.0280   48.7580 C.ar   30  PHE30      -0.0000
     12  N         55.7050   31.9950   48.0640 N.am   31  GLU31      -0.1965
     13  CA        55.4160   32.3710   46.6880 C.3    31  GLU31       0.1733
     14  C         56.1830   31.4600   45.7400 C.2    31  GLU31       0.2616
     15  O         57.3960   31.2950   45.8680 O.2    31  GLU31      -0.2715
     16  CB        55.7970   33.8310   46.4400 C.3    31  GLU31       0.0429
     17  CG        55.4270   34.3620   45.0700 C.3    31  GLU31       0.1163
     18  CD        53.9280   34.4270   44.8440 C.2    31  GLU31       0.3649
     19  OE1       53.1840   34.6160   45.8370 O.co2  31  GLU31      -0.2457
     20  OE2       53.4990   34.2820   43.6760 O.co2  31  GLU31      -0.2457
     21  N         55.4670   30.8660   44.7910 N.am   32  LEU32      -0.1963
     22  CA        56.0710   29.9460   43.8370 C.3    32  LEU32       0.1728
     23  C         57.1160   30.6480   42.9780 C.2    32  LEU32       0.2616
     24  O         56.9440   31.8070   42.6000 O.2    32  LEU32      -0.2715
     25  CB        54.9940   29.3440   42.9330 C.3    32  LEU32       0.0311
     26  CG        53.8620   28.5990   43.6400 C.3    32  LEU32       0.0022
     27  CD1       52.8000   28.1720   42.6390 C.3    32  LEU32       0.0001
     28  CD2       54.4030   27.3980   44.3950 C.3    32  LEU32       0.0001
     29  N         58.2000   29.9410   42.6770 N.am   33  ASP33      -0.1971
     30  CA        59.1870   30.4350   41.7260 C.3    33  ASP33       0.1709
     31  C         58.5770   30.4250   40.3320 C.2    33  ASP33       0.2293
     32  O         57.5410   29.7970   40.1040 O.2    33  ASP33      -0.2864
     33  CB        60.4450   29.5670   41.7510 C.3    33  ASP33       0.1436
     34  CG        61.2630   29.7600   43.0100 C.2    33  ASP33       0.3671
     35  OD1       60.7330   30.3320   43.9860 O.co2  33  ASP33      -0.2456
     36  OD2       62.4380   29.3330   43.0260 O.co2  33  ASP33      -0.2456
     37  N         57.9460   26.9430   38.7910 N.3    36  GLN36      -0.1245
     38  CA        56.8050   26.2460   39.3710 C.3    36  GLN36       0.1566
     39  C         55.5090   26.7920   38.7780 C.2    36  GLN36       0.2260
     40  O         54.5630   26.0420   38.5190 O.2    36  GLN36      -0.2867
     41  CB        56.8070   26.4070   40.8920 C.3    36  GLN36       0.0367
     42  CG        58.1210   26.0000   41.5430 C.3    36  GLN36       0.0905
     43  CD        58.1600   26.2990   43.0280 C.2    36  GLN36       0.2608
     44  OE1       58.7760   27.2730   43.4610 O.2    36  GLN36      -0.2717
     45  NE2       57.5070   25.4570   43.8180 N.am   36  GLN36      -0.0878
     46  N         67.4040   22.6490   39.4830 N.3    54  HIS54      -0.1226
     47  CA        68.5280   22.5160   40.4010 C.3    54  HIS54       0.1752
     48  C         68.0640   21.9650   41.7410 C.2    54  HIS54       0.2597
     49  O         66.8790   22.0100   42.0700 O.2    54  HIS54      -0.2718
     50  CB        69.2210   23.8660   40.6100 C.3    54  HIS54       0.0759
     51  CG        70.0330   24.3190   39.4380 C.ar   54  HIS54       0.0818
     52  ND1       69.4930   25.0270   38.3850 N.ar   54  HIS54      -0.2268
     53  CD2       71.3480   24.1650   39.1510 C.ar   54  HIS54       0.1154
     54  CE1       70.4400   25.2890   37.5010 C.ar   54  HIS54       0.1986
     55  NE2       71.5740   24.7770   37.9420 N.ar   54  HIS54      -0.2212
     56  N         69.0100   21.4430   42.5100 N.am   55  THR55      -0.1939
     57  CA        68.7150   20.9210   43.8360 C.3    55  THR55       0.2028
     58  C         68.4050   22.0720   44.7920 C.2    55  THR55       0.2643
     59  O         69.1780   23.0250   44.8950 O.2    55  THR55      -0.2714
     60  CB        69.9030   20.1130   44.3820 C.3    55  THR55       0.1808
     61  OG1       70.2700   19.0960   43.4400 O.3    55  THR55      -0.2208
     62  CG2       69.5520   19.4750   45.7140 C.3    55  THR55       0.0379
     63  N         67.2610   21.9770   45.4680 N.am   56  SER56      -0.1935
     64  CA        66.8340   22.9600   46.4650 C.3    56  SER56       0.2055
     65  C         65.8500   23.9780   45.8880 C.2    56  SER56       0.2643
     66  O         65.6160   25.0280   46.4890 O.2    56  SER56      -0.2714
     67  CB        68.0350   23.6890   47.0800 C.3    56  SER56       0.2130
     68  OG        68.5630   24.6660   46.1990 O.3    56  SER56      -0.2179
     69  N         65.2740   23.6670   44.7300 N.am   57  ALA57      -0.1963
     70  CA        64.3480   24.5830   44.0690 C.3    57  ALA57       0.1728
     71  C         62.8980   24.2910   44.4440 C.2    57  ALA57       0.2617
     72  O         62.0850   25.2070   44.5630 O.2    57  ALA57      -0.2715
     73  CB        64.5310   24.5270   42.5590 C.3    57  ALA57       0.0334
     74  N         62.5750   23.0150   44.6220 N.am   58  GLY58      -0.1940
     75  CA        61.2440   22.6240   45.0500 C.3    58  GLY58       0.2014
     76  C         60.4360   21.9600   43.9550 C.2    58  GLY58       0.2639
     77  O         59.3900   22.4670   43.5510 O.2    58  GLY58      -0.2714
     78  N         60.9140   20.8150   43.4800 N.am   59  LYS59      -0.1963
     79  CA        60.2240   20.0810   42.4280 C.3    59  LYS59       0.1728
     80  C         58.9600   19.4110   42.9610 C.2    59  LYS59       0.2617
     81  O         57.9420   19.3540   42.2690 O.2    59  LYS59      -0.2715
     82  CB        61.1540   19.0390   41.8030 C.3    59  LYS59       0.0311
     83  CG        62.2270   19.6410   40.9020 C.3    59  LYS59       0.0038
     84  CD        63.0880   18.5710   40.2450 C.3    59  LYS59       0.0206
     85  CE        64.1120   17.9960   41.2140 C.3    59  LYS59       0.1093
     86  NZ        65.2980   18.8830   41.3760 N.3    59  LYS59      -0.1314
     87  N         59.0250   18.9170   44.1940 N.am   60  THR60      -0.1937
     88  CA        57.8950   18.2200   44.8030 C.3    60  THR60       0.2028
     89  C         56.6060   19.0150   44.6240 C.2    60  THR60       0.2642
     90  O         55.5430   18.4420   44.3730 O.2    60  THR60      -0.2714
     91  CB        58.1230   17.9760   46.3070 C.3    60  THR60       0.1808
     92  OG1       59.3650   17.2900   46.5040 O.3    60  THR60      -0.2208
     93  CG2       56.9910   17.1460   46.9010 C.3    60  THR60       0.0379
     94  N         56.7080   20.3360   44.7390 N.am   61  VAL61      -0.1977
     95  CA        55.5540   21.2130   44.5640 C.3    61  VAL61       0.1596
     96  C         54.7800   20.8770   43.2920 C.2    61  VAL61       0.2287
     97  O         53.5480   20.8830   43.2900 O.2    61  VAL61      -0.2864
     98  CB        55.9780   22.6940   44.5090 C.3    61  VAL61       0.0276
     99  CG1       54.7910   23.5790   44.1400 C.3    61  VAL61       0.0022
    100  CG2       56.5790   23.1210   45.8400 C.3    61  VAL61       0.0022
    101  N         63.1010   11.4860   39.8480 N.3   145  GLU145     -0.1245
    102  CA        64.5070   11.1040   39.7810 C.3   145  GLU145      0.1567
    103  C         64.8560   10.5070   38.4180 C.2   145  GLU145      0.2260
    104  O         65.5310    9.4810   38.3360 O.2   145  GLU145     -0.2867
    105  CB        64.8390   10.1010   40.8870 C.3   145  GLU145      0.0388
    106  CG        64.3290   10.5030   42.2650 C.3   145  GLU145      0.1160
    107  CD        64.9680   11.7810   42.7810 C.2   145  GLU145      0.3649
    108  OE1       64.4450   12.8750   42.4830 O.co2 145  GLU145     -0.2457
    109  OE2       65.9920   11.6920   43.4910 O.co2 145  GLU145     -0.2457
    110  N         66.9360   11.4290   36.3910 N.3   147  HIS147     -0.1241
    111  CA        68.3850   11.4300   36.2170 C.3   147  HIS147      0.1621
    112  C         69.0660   10.2730   36.9510 C.2   147  HIS147      0.2264
    113  O         70.2760   10.0840   36.8290 O.2   147  HIS147     -0.2867
    114  CB        68.9690   12.7520   36.7100 C.3   147  HIS147      0.0745
    115  CG        68.8340   12.9570   38.1870 C.ar  147  HIS147      0.0817
    116  ND1       67.6240   13.2140   38.7960 N.ar  147  HIS147     -0.2268
    117  CD2       69.7580   12.9470   39.1770 C.ar  147  HIS147      0.1154
    118  CE1       67.8090   13.3520   40.0960 C.ar  147  HIS147      0.1986
    119  NE2       69.0940   13.1940   40.3540 N.ar  147  HIS147     -0.2212
    120  N         67.0300   16.3130   38.0240 N.3   176  ALA176     -0.1245
    121  CA        68.0470   17.3050   38.3280 C.3   176  ALA176      0.1562
    122  C         68.4120   18.0170   37.0300 C.2   176  ALA176      0.2260
    123  O         67.9960   17.5930   35.9480 O.2   176  ALA176     -0.2867
    124  CB        69.2690   16.6420   38.9350 C.3   176  ALA176      0.0290
    125  N         71.1790    9.9560   47.1900 N.3   362  MET362     -0.1245
    126  CA        70.3980    9.8150   45.9620 C.3   362  MET362      0.1570
    127  C         68.9040    9.9870   46.2110 C.2   362  MET362      0.2261
    128  O         68.3340   11.0350   45.9090 O.2   362  MET362     -0.2867
    129  CB        70.6670    8.4720   45.2750 C.3   362  MET362      0.0387
    130  CG        69.6720    8.1400   44.1600 C.3   362  MET362      0.0595
    131  SD        69.1420    9.5690   43.1830 S.3   362  MET362     -0.1393
    132  CE        70.5960    9.8840   42.1830 C.3   362  MET362      0.0692
    133  N         65.1180   12.3070   50.8830 N.3   365  ASN365     -0.1240
    134  CA        64.9050   13.7470   50.8770 C.3   365  ASN365      0.1653
    135  C         65.3120   14.3590   52.2140 C.2   365  ASN365      0.2266
    136  O         64.5110   15.0170   52.8780 O.2   365  ASN365     -0.2867
    137  CB        63.4380   14.0650   50.5720 C.3   365  ASN365      0.1155
    138  CG        62.4760   13.2870   51.4540 C.2   365  ASN365      0.2627
    139  OD1       62.8330   12.8570   52.5520 O.2   365  ASN365     -0.2716
    140  ND2       61.2520   13.0960   50.9740 N.am  365  ASN365     -0.0877
    141  N         75.3850   15.4690   43.0640 N.3   394  GLN394     -0.1245
    142  CA        74.3450   14.7550   43.7990 C.3   394  GLN394      0.1566
    143  C         74.5830   14.7900   45.3110 C.2   394  GLN394      0.2260
    144  O         73.6660   15.0880   46.0750 O.2   394  GLN394     -0.2867
    145  CB        74.2420   13.3060   43.3130 C.3   394  GLN394      0.0367
    146  CG        73.1090   12.5260   43.9570 C.3   394  GLN394      0.0905
    147  CD        71.7580   13.1820   43.7440 C.2   394  GLN394      0.2608
    148  OE1       71.2920   13.3180   42.6130 O.2   394  GLN394     -0.2717
    149  NE2       71.1240   13.5990   44.8340 N.am  394  GLN394     -0.0878
    150  N         73.1830   18.2090   48.5860 N.3   398  ARG398     -0.1245
    151  CA        72.3520   17.9820   49.7690 C.3   398  ARG398      0.1563
    152  C         72.5770   19.0620   50.8330 C.2   398  ARG398      0.2260
    153  O         71.8490   19.1250   51.8230 O.2   398  ARG398     -0.2867
    154  CB        72.6430   16.6080   50.3860 C.3   398  ARG398      0.0307
    155  CG        72.7040   15.4490   49.3970 C.3   398  ARG398      0.0489
    156  CD        71.4170   15.3040   48.6040 C.3   398  ARG398      0.2205
    157  NE        70.2360   15.3700   49.4610 N.pl3 398  ARG398     -0.0865
    158  CZ        69.1390   16.0670   49.1790 C.cat 398  ARG398      0.5346
    159  NH1       69.0540   16.7660   48.0530 N.pl3 398  ARG398      0.1354
    160  NH2       68.1210   16.0640   50.0270 N.pl3 398  ARG398      0.1354
    161  N         66.5350   24.9360   51.9440 N.3   402  ARG402     -0.1231
    162  CA        65.7850   26.1400   51.6110 C.3   402  ARG402      0.1694
    163  C         64.8570   26.5480   52.7490 C.2   402  ARG402      0.2592
    164  O         64.0050   25.7700   53.1800 O.2   402  ARG402     -0.2718
    165  CB        64.9800   25.9230   50.3280 C.3   402  ARG402      0.0321
    166  CG        64.1450   27.1180   49.9160 C.3   402  ARG402      0.0489
    167  CD        63.6830   26.9940   48.4770 C.3   402  ARG402      0.2205
    168  NE        63.1900   28.2640   47.9550 N.pl3 402  ARG402     -0.0865
    169  CZ        62.8400   28.4680   46.6890 C.cat 402  ARG402      0.5346
    170  NH1       62.9290   27.4840   45.8050 N.pl3 402  ARG402      0.1354
    171  NH2       62.4030   29.6600   46.3070 N.pl3 402  ARG402      0.1354
    172  N         65.0310   27.7740   53.2310 N.am  403  GLY403     -0.1957
    173  CA        64.2250   28.2880   54.3230 C.3   403  GLY403      0.1869
    174  C         64.9440   28.2130   55.6570 C.2   403  GLY403      0.2309
    175  O         64.6090   28.9400   56.5910 O.2   403  GLY403     -0.2863
@<TRIPOS>BOND
     1   123   122    2
     2   111   110    1
     3   111   114    1
     4   111   112    1
     5   114   115    1
     6   113   112    2
     7   122   121    1
     8    54    55   ar
     9    54    52   ar
    10    55    53   ar
    11   120   121    1
    12   115   116   ar
    13   115   117   ar
    14   121   124    1
    15   104   103    2
    16    52    51   ar
    17   103   102    1
    18    40    39    2
    19    39    38    1
    20    37    38    1
    21   116   118   ar
    22    53    51   ar
    23   117   119   ar
    24    38    41    1
    25    51    50    1
    26    46    47    1
    27   102   101    1
    28   102   105    1
    29   118   119   ar
    30    32    31    2
    31    84    83    1
    32    84    85    1
    33    31    30    1
    34    47    50    1
    35    47    48    1
    36   105   106    1
    37    41    42    1
    38    83    82    1
    39    85    86    1
    40    42    43    1
    41    30    33    1
    42    30    29    1
    43    48    49    2
    44    48    56   am
    45    33    34    1
    46    82    79    1
    47   132   131    1
    48   106   107    1
    49    81    80    2
    50    79    80    1
    51    79    78    1
    52   108   107   ar
    53    56    57    1
    54    73    70    1
    55    24    23    2
    56   148   147    2
    57    27    26    1
    58    29    23   am
    59   107   109   ar
    60    25    26    1
    61    25    22    1
    62    80    87   am
    63    23    22    1
    64    34    36   ar
    65    34    35   ar
    66    43    44    2
    67    43    45   am
    68   141   142    1
    69   131   130    1
    70    97    96    2
    71    96    95    1
    72   145   142    1
    73   145   146    1
    74    61    60    1
    75    78    76   am
    76    77    76    2
    77    26    28    1
    78    20    18   ar
    79   147   146    1
    80   147   149   am
    81   142   143    1
    82    57    60    1
    83    57    58    1
    84    22    21    1
    85    76    75    1
    86    70    71    1
    87    70    69    1
    88    99    98    1
    89   130   129    1
    90    87    88    1
    91    90    89    2
    92    60    62    1
    93    71    72    2
    94    71    74   am
    95    98    95    1
    96    98   100    1
    97    95    94    1
    98    74    75    1
    99    89    94   am
   100    89    88    1
   101    69    65   am
   102    21    14   am
   103    58    59    2
   104    58    63   am
   105    88    91    1
   106    18    17    1
   107    18    19   ar
   108    17    16    1
   109   129   126    1
   110   143   144    2
   111    63    64    1
   112    14    15    2
   113    14    13    1
   114   170   169    1
   115    65    64    1
   116    65    66    2
   117   128   127    2
   118   126   127    1
   119   126   125    1
   120    68    67    1
   121   171   169    1
   122    91    92    1
   123    91    93    1
   124    16    13    1
   125    64    67    1
   126    13    12    1
   127   169   168    2
   128     9     7   ar
   129     9    11   ar
   130   168   167    1
   131   159   158    1
   132    12     3   am
   133     7     6   ar
   134     4     3    2
   135   167   166    1
   136   150   151    1
   137   156   155    1
   138   156   157    1
   139     3     2    1
   140    11    10   ar
   141   158   157    2
   142   158   160    1
   143   155   154    1
   144     6     5    1
   145     6     8   ar
   146   151   154    1
   147   151   152    1
   148   166   165    1
   149     5     2    1
   150    10     8   ar
   151     2     1    1
   152   165   162    1
   153   137   134    1
   154   137   138    1
   155   152   153    2
   156   134   133    1
   157   134   135    1
   158   140   138   am
   159   138   139    2
   160   162   161    1
   161   162   163    1
   162   135   136    2
   163   163   164    2
   164   163   172   am
   165   172   173    1
   166   173   174    1
   167   174   175    2
