@<TRIPOS>MOLECULE
tmp/4a50A01.pdb
 165 157 0 0 0
SMALL
GASTEIGER

@<TRIPOS>ATOM
      1  N         10.7490   14.4730  -16.2770 N.3    96  THR96      -0.1218
      2  CA        11.1570   13.3520  -17.0890 C.3    96  THR96       0.1862
      3  C         10.5430   13.5120  -18.4720 C.2    96  THR96       0.2287
      4  O         11.2030   13.3270  -19.4890 O.2    96  THR96      -0.2866
      5  CB        10.8840   11.9980  -16.3930 C.3    96  THR96       0.1770
      6  OG1       11.7200   11.8910  -15.2240 O.3    96  THR96      -0.2211
      7  CG2       11.2230   10.8580  -17.3170 C.3    96  THR96       0.0375
      8  N         13.3020   13.5170  -21.3000 N.3   100  GLU100     -0.1231
      9  CA        13.3520   12.2800  -22.0480 C.3   100  GLU100      0.1699
     10  C         12.1500   12.2360  -22.9380 C.2   100  GLU100      0.2593
     11  O         12.2410   11.9880  -24.1340 O.2   100  GLU100     -0.2718
     12  CB        13.2830   11.0850  -21.1160 C.3   100  GLU100      0.0402
     13  CG        14.4980   10.9560  -20.2400 C.3   100  GLU100      0.1161
     14  CD        14.4500    9.7060  -19.3830 C.2   100  GLU100      0.3649
     15  OE1       13.4140    8.9960  -19.3750 O.co2 100  GLU100     -0.2457
     16  OE2       15.4720    9.4310  -18.7150 O.co2 100  GLU100     -0.2457
     17  N         11.0020   12.5030  -22.3520 N.am  101  GLY101     -0.1942
     18  CA         9.7970   12.3930  -23.1190 C.3   101  GLY101      0.2014
     19  C          9.3280   10.9730  -22.9490 C.2   101  GLY101      0.2639
     20  O          9.8240   10.2240  -22.0770 O.2   101  GLY101     -0.2714
     21  N          8.3560   10.6260  -23.7830 N.am  102  GLU102     -0.1963
     22  CA         7.6680    9.3510  -23.6870 C.3   102  GLU102      0.1733
     23  C          7.3900    8.7940  -25.0880 C.2   102  GLU102      0.2616
     24  O          7.5070    9.5080  -26.0810 O.2   102  GLU102     -0.2715
     25  CB         6.3560    9.5410  -22.9280 C.3   102  GLU102      0.0429
     26  CG         6.5220    9.8840  -21.4690 C.3   102  GLU102      0.1163
     27  CD         5.1840   10.0530  -20.7720 C.2   102  GLU102      0.3649
     28  OE1        4.1570    9.6270  -21.3550 O.co2 102  GLU102     -0.2457
     29  OE2        5.1600   10.6030  -19.6430 O.co2 102  GLU102     -0.2457
     30  N          7.0080    7.5260  -25.1680 N.am  103  ARG103     -0.1977
     31  CA         6.6920    6.9260  -26.4590 C.3   103  ARG103      0.1597
     32  C          5.1920    6.9360  -26.6760 C.2   103  ARG103      0.2287
     33  O          4.4490    6.5040  -25.8030 O.2   103  ARG103     -0.2864
     34  CB         7.2540    5.5060  -26.5480 C.3   103  ARG103      0.0334
     35  CG         8.7420    5.4710  -26.8640 C.3   103  ARG103      0.0492
     36  CD         8.9810    5.9440  -28.2790 C.3   103  ARG103      0.2205
     37  NE         9.2430    4.8310  -29.1990 N.pl3 103  ARG103     -0.0865
     38  CZ         8.8300    4.7910  -30.4610 C.cat 103  ARG103      0.5346
     39  NH1        8.0980    5.7860  -30.9570 N.pl3 103  ARG103      0.1354
     40  NH2        9.1400    3.7470  -31.2180 N.pl3 103  ARG103      0.1354
     41  N         10.5760    6.5270  -33.5850 N.3   111  TRP111     -0.1241
     42  CA        11.0970    7.3320  -32.4920 C.3   111  TRP111      0.1605
     43  C         11.6170    8.7270  -32.8670 C.2   111  TRP111      0.2264
     44  O         11.4000    9.6720  -32.0990 O.2   111  TRP111     -0.2867
     45  CB        12.1120    6.5670  -31.6690 C.3   111  TRP111      0.0550
     46  CG        13.3930    6.3940  -32.3570 C.ar  111  TRP111      0.0003
     47  CD1       13.7490    5.3480  -33.1410 C.ar  111  TRP111      0.0946
     48  CD2       14.5100    7.2960  -32.3470 C.ar  111  TRP111      0.0152
     49  NE1       15.0270    5.5310  -33.6180 N.ar  111  TRP111     -0.2442
     50  CE2       15.5150    6.7220  -33.1540 C.ar  111  TRP111      0.0810
     51  CE3       14.7570    8.5340  -31.7390 C.ar  111  TRP111      0.0012
     52  CZ2       16.7610    7.3270  -33.3520 C.ar  111  TRP111      0.0191
     53  CZ3       15.9960    9.1350  -31.9330 C.ar  111  TRP111      0.0001
     54  CH2       16.9860    8.5250  -32.7260 C.ar  111  TRP111      0.0015
     55  N          8.3000   11.0010  -33.1330 N.3   114  ASP114     -0.1239
     56  CA         7.3610   11.0190  -32.0030 C.3   114  ASP114      0.1674
     57  C          7.2420   12.4230  -31.4280 C.2   114  ASP114      0.2266
     58  O          8.2300   13.0190  -30.9940 O.2   114  ASP114     -0.2867
     59  CB         7.8080   10.0490  -30.9050 C.3   114  ASP114      0.1410
     60  CG         6.6410    9.4330  -30.1570 C.2   114  ASP114      0.3668
     61  OD1        5.6450   10.1360  -29.9070 O.co2 114  ASP114     -0.2456
     62  OD2        6.7120    8.2340  -29.8090 O.co2 114  ASP114     -0.2456
     63  N          8.5800   12.8740  -27.9590 N.3   117  ALA117     -0.1245
     64  CA         9.9940   12.7400  -27.6030 C.3   117  ALA117      0.1562
     65  C         10.5230   13.9840  -26.8870 C.2   117  ALA117      0.2260
     66  O         10.1990   15.1040  -27.2520 O.2   117  ALA117     -0.2867
     67  CB        10.8740   12.3590  -28.8050 C.3   117  ALA117      0.0290
     68  N         16.3630   14.5920  -24.8450 N.3   120  ILE120     -0.1231
     69  CA        17.4890   13.6870  -25.0580 C.3   120  ILE120      0.1678
     70  C         17.4390   12.9900  -26.4190 C.2   120  ILE120      0.2434
     71  O         18.3870   13.0920  -27.2160 O.2   120  ILE120     -0.2733
     72  CB        17.5740   12.6340  -23.9640 C.3   120  ILE120      0.0265
     73  CG1       18.1260   13.2660  -22.6900 C.3   120  ILE120      0.0019
     74  CG2       18.4610   11.4770  -24.3870 C.3   120  ILE120      0.0020
     75  CD1       17.7000   12.5210  -21.4660 C.3   120  ILE120      0.0001
     76  N         16.3170   12.3150  -26.7150 N.am  121  PRO121     -0.2729
     77  CA        16.1660   11.7070  -28.0380 C.3   121  PRO121      0.1401
     78  C         16.2960   12.7310  -29.1850 C.2   121  PRO121      0.2269
     79  O         17.1030   12.5380  -30.0920 O.2   121  PRO121     -0.2865
     80  CB        14.7660   11.1060  -27.9850 C.3   121  PRO121      0.0296
     81  CG        14.0620   11.9240  -27.0040 C.3   121  PRO121      0.0237
     82  CD        15.0700   12.2520  -25.9470 C.3   121  PRO121      0.0939
     83  N         25.1000    7.3550  -19.1560 N.3   144  LEU144     -0.1245
     84  CA        23.8700    7.5610  -18.3910 C.3   144  LEU144      0.1561
     85  C         23.9660    6.9910  -16.9890 C.2   144  LEU144      0.2260
     86  O         23.7950    5.8030  -16.8140 O.2   144  LEU144     -0.2867
     87  CB        22.6430    6.9410  -19.0700 C.3   144  LEU144      0.0270
     88  CG        21.3760    7.1260  -18.2350 C.3   144  LEU144      0.0019
     89  CD1       21.3290    8.5250  -17.6070 C.3   144  LEU144      0.0001
     90  CD2       20.1290    6.8880  -19.0470 C.3   144  LEU144      0.0001
     91  N         23.9420    2.0250  -18.5570 N.3   156  LEU156     -0.1245
     92  CA        24.3400    1.6030  -19.8880 C.3   156  LEU156      0.1561
     93  C         25.4320    0.5340  -19.8360 C.2   156  LEU156      0.2260
     94  O         25.9830    0.1360  -20.8530 O.2   156  LEU156     -0.2867
     95  CB        24.8020    2.8050  -20.6990 C.3   156  LEU156      0.0270
     96  CG        23.7370    3.8600  -20.9650 C.3   156  LEU156      0.0019
     97  CD1       24.2050    4.8490  -22.0110 C.3   156  LEU156      0.0001
     98  CD2       22.3880    3.3140  -21.3510 C.3   156  LEU156      0.0001
     99  N         18.1090    4.1620  -30.4700 N.3   195  TYR195     -0.1241
    100  CA        17.0390    3.5540  -29.7320 C.3   195  TYR195      0.1605
    101  C         17.4860    2.3280  -28.9420 C.2   195  TYR195      0.2264
    102  O         17.0340    2.1090  -27.8240 O.2   195  TYR195     -0.2867
    103  CB        15.9440    3.1710  -30.6970 C.3   195  TYR195      0.0534
    104  CG        14.5900    3.0430  -30.0510 C.ar  195  TYR195     -0.0201
    105  CD1       13.8230    4.1810  -29.7990 C.ar  195  TYR195     -0.0009
    106  CD2       14.0650    1.8080  -29.7020 C.ar  195  TYR195     -0.0009
    107  CE1       12.5710    4.0980  -29.2280 C.ar  195  TYR195      0.0417
    108  CE2       12.8060    1.7120  -29.1380 C.ar  195  TYR195      0.0417
    109  CZ        12.0640    2.8660  -28.9050 C.ar  195  TYR195      0.1957
    110  OH        10.8080    2.8380  -28.3290 O.3   195  TYR195     -0.2866
    111  N         19.3250    3.4800  -25.7090 N.3   198  LEU198     -0.1231
    112  CA        18.2950    3.9810  -24.8270 C.3   198  LEU198      0.1693
    113  C         17.4680    2.8640  -24.2260 C.2   198  LEU198      0.2591
    114  O         17.3100    2.7980  -23.0160 O.2   198  LEU198     -0.2718
    115  CB        17.3740    4.9440  -25.5670 C.3   198  LEU198      0.0284
    116  CG        18.0500    6.2140  -26.0820 C.3   198  LEU198      0.0019
    117  CD1       17.0170    7.2110  -26.4740 C.3   198  LEU198      0.0001
    118  CD2       19.0280    6.8330  -25.0970 C.3   198  LEU198      0.0001
    119  N         16.9280    1.9880  -25.0630 N.am  199  GLU199     -0.1979
    120  CA        16.0680    0.8920  -24.6130 C.3   199  GLU199      0.1602
    121  C         16.7340    0.0290  -23.5620 C.2   199  GLU199      0.2287
    122  O         16.1040   -0.4020  -22.5950 O.2   199  GLU199     -0.2864
    123  CB        15.7830   -0.0010  -25.7970 C.3   199  GLU199      0.0415
    124  CG        14.5510   -0.8530  -25.6580 C.3   199  GLU199      0.1163
    125  CD        13.8900   -1.0250  -27.0090 C.2   199  GLU199      0.3649
    126  OE1       14.5980   -0.8590  -28.0250 O.co2 199  GLU199     -0.2457
    127  OE2       12.6650   -1.2520  -27.0640 O.co2 199  GLU199     -0.2457
    128  N         18.9480    1.0870  -21.5220 N.3   201  GLY201     -0.1210
    129  CA        19.0460    1.9580  -20.3480 C.3   201  GLY201      0.1956
    130  C         17.7190    2.0180  -19.6280 C.2   201  GLY201      0.2611
    131  O         17.6350    1.7870  -18.4160 O.2   201  GLY201     -0.2717
    132  N         16.6600    2.2600  -20.3830 N.am  202  ALA202     -0.1979
    133  CA        15.3310    2.1410  -19.8240 C.3   202  ALA202      0.1597
    134  C         15.0390    0.8150  -19.1260 C.2   202  ALA202      0.2287
    135  O         14.2700    0.7910  -18.1660 O.2   202  ALA202     -0.2864
    136  CB        14.2910    2.4390  -20.8460 C.3   202  ALA202      0.0319
    137  N         16.8280    0.6770  -15.9250 N.3   205  ARG205     -0.1231
    138  CA        16.1220    1.5450  -14.9950 C.3   205  ARG205      0.1694
    139  C         14.8160    0.9900  -14.4420 C.2   205  ARG205      0.2592
    140  O         14.4670    1.2450  -13.2860 O.2   205  ARG205     -0.2718
    141  CB        15.8480    2.9010  -15.6160 C.3   205  ARG205      0.0321
    142  CG        15.0910    3.8180  -14.6560 C.3   205  ARG205      0.0489
    143  CD        14.5970    5.0280  -15.3830 C.3   205  ARG205      0.2205
    144  NE        15.7160    5.9320  -15.6100 N.pl3 205  ARG205     -0.0865
    145  CZ        15.8360    6.7450  -16.6560 C.cat 205  ARG205      0.5346
    146  NH1       14.9080    6.7630  -17.6110 N.pl3 205  ARG205      0.1354
    147  NH2       16.8910    7.5410  -16.7300 N.pl3 205  ARG205      0.1354
    148  N         14.0670    0.2560  -15.2550 N.am  206  THR206     -0.1953
    149  CA        12.8820   -0.4000  -14.7260 C.3   206  THR206      0.1897
    150  C         13.2290   -1.3590  -13.5920 C.2   206  THR206      0.2313
    151  O         12.5670   -1.3570  -12.5570 O.2   206  THR206     -0.2863
    152  CB        12.0970   -1.0610  -15.8410 C.3   206  THR206      0.1794
    153  OG1       11.8500   -0.0580  -16.8330 O.3   206  THR206     -0.2208
    154  CG2       10.7550   -1.6360  -15.3600 C.3   206  THR206      0.0378
    155  N         22.3850   12.1720  -17.9330 N.3   223  PHE223     -0.1241
    156  CA        22.7720   11.7990  -19.2660 C.3   223  PHE223      0.1605
    157  C         23.8250   12.7240  -19.8760 C.2   223  PHE223      0.2264
    158  O         23.5610   13.9130  -20.0100 O.2   223  PHE223     -0.2867
    159  CB        21.5490   11.8770  -20.1450 C.3   223  PHE223      0.0534
    160  CG        21.7520   11.2010  -21.4530 C.ar  223  PHE223     -0.0203
    161  CD1       22.5660   11.7890  -22.4210 C.ar  223  PHE223     -0.0042
    162  CD2       21.2190    9.9340  -21.6770 C.ar  223  PHE223     -0.0042
    163  CE1       22.8020   11.1560  -23.6090 C.ar  223  PHE223     -0.0003
    164  CE2       21.4520    9.2910  -22.8730 C.ar  223  PHE223     -0.0003
    165  CZ        22.2360    9.9170  -23.8460 C.ar  223  PHE223     -0.0000
@<TRIPOS>BOND
     1    49    50   ar
     2    49    47   ar
     3    41    42    1
     4    52    50   ar
     5    52    54   ar
     6    50    48   ar
     7    47    46   ar
     8    55    56    1
     9    43    42    1
    10    43    44    2
    11    54    53   ar
    12    42    45    1
    13    46    48   ar
    14    46    45    1
    15    48    51   ar
    16    56    57    1
    17    56    59    1
    18    53    51   ar
    19    57    58    2
    20    40    38    1
    21    39    38    1
    22    59    60    1
    23   103   104    1
    24   103   100    1
    25    99   100    1
    26    38    37    2
    27    60    61   ar
    28    60    62   ar
    29    79    78    2
    30   104   105   ar
    31   104   106   ar
    32   105   107   ar
    33   100   101    1
    34   106   108   ar
    35   107   109   ar
    36    37    36    1
    37    78    77    1
    38   108   109   ar
    39   101   102    2
    40   109   110    1
    41    67    64    1
    42    36    35    1
    43    77    80    1
    44    77    76    1
    45   126   125   ar
    46    80    81    1
    47    63    64    1
    48    64    65    1
    49    66    65    2
    50    71    70    2
    51   127   125   ar
    52   125   124    1
    53    81    82    1
    54    35    34    1
    55    76    70   am
    56    76    82    1
    57    32    31    1
    58    32    33    2
    59    34    31    1
    60   117   116    1
    61    31    30    1
    62    70    69    1
    63   116   115    1
    64   116   118    1
    65    24    23    2
    66   123   124    1
    67   123   120    1
    68   111   112    1
    69   115   112    1
    70    30    23   am
    71    23    22    1
    72   119   120    1
    73   119   113   am
    74    69    68    1
    75    69    72    1
    76   112   113    1
    77   120   121    1
    78    74    72    1
    79   113   114    2
    80    11    10    2
    81    72    73    1
    82   165   163   ar
    83   165   164   ar
    84    21    22    1
    85    21    19   am
    86    22    25    1
    87   163   161   ar
    88   121   122    2
    89    18    19    1
    90    18    17    1
    91    19    20    2
    92    10    17   am
    93    10     9    1
    94    25    26    1
    95   164   162   ar
    96    73    75    1
    97   161   160   ar
    98     9     8    1
    99     9    12    1
   100    97    96    1
   101   162   160   ar
   102   128   129    1
   103    26    27    1
   104   160   159    1
   105    28    27   ar
   106    98    96    1
   107    12    13    1
   108    96    95    1
   109    94    93    2
   110   136   133    1
   111    27    29   ar
   112    95    92    1
   113   132   133    1
   114   132   130   am
   115   129   130    1
   116    13    14    1
   117   159   156    1
   118   158   157    2
   119    92    93    1
   120    92    91    1
   121   157   156    1
   122   133   134    1
   123   130   131    2
   124     4     3    2
   125    14    15   ar
   126    14    16   ar
   127   156   155    1
   128    83    84    1
   129   134   135    2
   130    87    84    1
   131    87    88    1
   132    90    88    1
   133     3     2    1
   134    84    85    1
   135    88    89    1
   136   146   145    1
   137     7     5    1
   138     2     5    1
   139     2     1    1
   140    85    86    2
   141   153   152    1
   142   147   145    1
   143   145   144    2
   144     5     6    1
   145   137   138    1
   146   152   154    1
   147   152   149    1
   148   141   138    1
   149   141   142    1
   150   144   143    1
   151   143   142    1
   152   148   149    1
   153   148   139   am
   154   138   139    1
   155   149   150    1
   156   139   140    2
   157   150   151    2
