@<TRIPOS>MOLECULE
tmp/4a51D01.pdb
 158 150 0 0 0
SMALL
GASTEIGER

@<TRIPOS>ATOM
      1  N        -27.4550  -24.3430  -24.1590 N.3    95  THR95      -0.1218
      2  CA       -27.1750  -23.3460  -25.2010 C.3    95  THR95       0.1862
      3  C        -27.8070  -21.9610  -24.8790 C.2    95  THR95       0.2287
      4  O        -27.1740  -20.9240  -25.1040 O.2    95  THR95      -0.2866
      5  CB       -27.5650  -23.8690  -26.5970 C.3    95  THR95       0.1770
      6  OG1      -26.8920  -25.1020  -26.8090 O.3    95  THR95      -0.2211
      7  CG2      -27.1330  -22.9360  -27.6800 C.3    95  THR95       0.0375
      8  N        -25.1710  -18.8030  -25.0500 N.3    99  GLU99      -0.1231
      9  CA       -25.3450  -18.0160  -26.2750 C.3    99  GLU99       0.1699
     10  C        -26.6130  -17.2370  -26.0910 C.2    99  GLU99       0.2593
     11  O        -26.6290  -16.0320  -26.1640 O.2    99  GLU99      -0.2718
     12  CB       -25.4480  -18.9020  -27.5140 C.3    99  GLU99       0.0402
     13  CG       -24.2210  -19.7640  -27.7320 C.3    99  GLU99       0.1161
     14  CD       -24.2990  -20.6540  -29.0010 C.2    99  GLU99       0.3649
     15  OE1      -25.3540  -20.6300  -29.6970 O.co2  99  GLU99      -0.2457
     16  OE2      -23.2830  -21.3530  -29.3000 O.co2  99  GLU99      -0.2457
     17  N        -27.7080  -17.9370  -25.9010 N.am  100  GLY100     -0.1942
     18  CA       -28.9650  -17.2590  -25.7400 C.3   100  GLY100      0.2014
     19  C        -29.7440  -17.2190  -27.0280 C.2   100  GLY100      0.2639
     20  O        -29.5350  -18.0000  -27.9330 O.2   100  GLY100     -0.2714
     21  N        -30.6880  -16.3120  -27.0730 N.am  101  GLU101     -0.1963
     22  CA       -31.5700  -16.1930  -28.1970 C.3   101  GLU101      0.1733
     23  C        -31.6870  -14.7120  -28.5930 C.2   101  GLU101      0.2616
     24  O        -31.1890  -13.8450  -27.8900 O.2   101  GLU101     -0.2715
     25  CB       -32.9070  -16.8200  -27.8200 C.3   101  GLU101      0.0429
     26  CG       -32.6960  -18.2010  -27.2580 C.3   101  GLU101      0.1163
     27  CD       -33.9170  -19.1230  -27.3330 C.2   101  GLU101      0.3649
     28  OE1      -35.0880  -18.6790  -27.1870 O.co2 101  GLU101     -0.2457
     29  OE2      -33.6800  -20.3350  -27.5130 O.co2 101  GLU101     -0.2457
     30  N        -32.2700  -14.4260  -29.7470 N.am  102  ARG102     -0.1977
     31  CA       -32.6430  -13.0500  -30.0510 C.3   102  ARG102      0.1597
     32  C        -34.1330  -12.9550  -29.8020 C.2   102  ARG102      0.2287
     33  O        -34.8720  -13.8790  -30.1680 O.2   102  ARG102     -0.2864
     34  CB       -32.3260  -12.6980  -31.4830 C.3   102  ARG102      0.0334
     35  CG       -30.8630  -12.6740  -31.7760 C.3   102  ARG102      0.0492
     36  CD       -30.2640  -11.3180  -31.4000 C.3   102  ARG102      0.2205
     37  NE       -30.5740  -10.2460  -32.3630 N.pl3 102  ARG102     -0.0865
     38  CZ       -31.2330   -9.1380  -32.0360 C.cat 102  ARG102      0.5346
     39  NH1      -31.6320   -8.9660  -30.7790 N.pl3 102  ARG102      0.1354
     40  NH2      -31.4890   -8.2030  -32.9520 N.pl3 102  ARG102      0.1354
     41  N        -28.5140   -6.2490  -30.5370 N.3   110  TRP110     -0.1241
     42  CA       -27.9420   -7.4630  -29.9640 C.3   110  TRP110      0.1605
     43  C        -27.2070   -7.2510  -28.6390 C.2   110  TRP110      0.2264
     44  O        -27.0800   -8.1750  -27.8600 O.2   110  TRP110     -0.2867
     45  CB       -27.0260   -8.1630  -30.9500 C.3   110  TRP110      0.0550
     46  CG       -25.7030   -7.5300  -31.0820 C.ar  110  TRP110      0.0003
     47  CD1      -25.3160   -6.6650  -32.0470 C.ar  110  TRP110      0.0946
     48  CD2      -24.5680   -7.7260  -30.2390 C.ar  110  TRP110      0.0152
     49  NE1      -24.0120   -6.3080  -31.8720 N.ar  110  TRP110     -0.2442
     50  CE2      -23.5230   -6.9390  -30.7640 C.ar  110  TRP110      0.0810
     51  CE3      -24.3310   -8.4810  -29.0910 C.ar  110  TRP110      0.0012
     52  CZ2      -22.2570   -6.8840  -30.1830 C.ar  110  TRP110      0.0191
     53  CZ3      -23.0720   -8.4240  -28.5140 C.ar  110  TRP110      0.0001
     54  CH2      -22.0500   -7.6310  -29.0650 C.ar  110  TRP110      0.0015
     55  N        -30.3020   -7.1090  -26.1450 N.3   113  ASP113     -0.1239
     56  CA       -31.3130   -8.1560  -26.0680 C.3   113  ASP113      0.1674
     57  C        -31.2840   -8.8510  -24.7120 C.2   113  ASP113      0.2266
     58  O        -30.2580   -9.3810  -24.2940 O.2   113  ASP113     -0.2867
     59  CB       -31.1610   -9.1740  -27.2170 C.3   113  ASP113      0.1410
     60  CG       -32.4530   -9.9880  -27.4660 C.2   113  ASP113      0.3668
     61  OD1      -33.3340  -10.0290  -26.5810 O.co2 113  ASP113     -0.2456
     62  OD2      -32.5970  -10.5870  -28.5460 O.co2 113  ASP113     -0.2456
     63  N        -30.1670  -12.4590  -24.6460 N.3   116  ALA116     -0.1245
     64  CA       -28.7660  -12.7280  -24.9430 C.3   116  ALA116      0.1562
     65  C        -28.0740  -13.4920  -23.8090 C.2   116  ALA116      0.2260
     66  O        -28.2910  -13.2240  -22.6140 O.2   116  ALA116     -0.2867
     67  CB       -28.0270  -11.4520  -25.2480 C.3   116  ALA116      0.0290
     68  N        -22.1540  -15.5170  -24.1790 N.3   119  ILE119     -0.1231
     69  CA       -21.1500  -15.2380  -25.1990 C.3   119  ILE119      0.1678
     70  C        -21.2560  -13.8520  -25.7790 C.2   119  ILE119      0.2434
     71  O        -20.3110  -13.0860  -25.7090 O.2   119  ILE119     -0.2733
     72  CB       -21.1900  -16.2800  -26.3190 C.3   119  ILE119      0.0265
     73  CG1      -20.5960  -17.6050  -25.8120 C.3   119  ILE119      0.0019
     74  CG2      -20.4470  -15.7940  -27.5430 C.3   119  ILE119      0.0020
     75  CD1      -20.6160  -18.7140  -26.8200 C.3   119  ILE119      0.0001
     76  N        -22.4210  -13.4950  -26.3040 N.am  120  PRO120     -0.2729
     77  CA       -22.4370  -12.1440  -26.8320 C.3   120  PRO120      0.1401
     78  C        -22.0420  -11.1390  -25.7530 C.2   120  PRO120      0.2269
     79  O        -21.3460  -10.1750  -26.0670 O.2   120  PRO120     -0.2865
     80  CB       -23.8890  -11.9590  -27.3050 C.3   120  PRO120      0.0296
     81  CG       -24.6570  -13.0220  -26.6300 C.3   120  PRO120      0.0237
     82  CD       -23.7140  -14.1650  -26.4660 C.3   120  PRO120      0.0939
     83  N        -14.1950  -20.7790  -32.8760 N.3   143  LEU143     -0.1245
     84  CA       -15.3130  -21.6350  -32.4890 C.3   143  LEU143      0.1561
     85  C        -15.1260  -23.0000  -33.0550 C.2   143  LEU143      0.2260
     86  O        -15.2670  -23.1410  -34.2380 O.2   143  LEU143     -0.2867
     87  CB       -16.5950  -21.0850  -33.0970 C.3   143  LEU143      0.0270
     88  CG       -17.9170  -21.7480  -32.7320 C.3   143  LEU143      0.0019
     89  CD1      -17.8390  -22.3620  -31.3650 C.3   143  LEU143      0.0001
     90  CD2      -18.9970  -20.6810  -32.7790 C.3   143  LEU143      0.0001
     91  N        -15.9040  -21.0410  -37.6740 N.3   155  LEU155     -0.1245
     92  CA       -15.6130  -19.6930  -38.1400 C.3   155  LEU155      0.1561
     93  C        -14.7590  -19.6990  -39.3870 C.2   155  LEU155      0.2260
     94  O        -14.4340  -18.6500  -39.9490 O.2   155  LEU155     -0.2867
     95  CB       -14.9630  -18.8660  -37.0430 C.3   155  LEU155      0.0270
     96  CG       -15.8950  -18.6470  -35.8600 C.3   155  LEU155      0.0019
     97  CD1      -15.2050  -17.8280  -34.7800 C.3   155  LEU155      0.0001
     98  CD2      -17.1720  -17.9980  -36.3350 C.3   155  LEU155      0.0001
     99  N        -21.5500   -9.2610  -34.1260 N.3   194  TYR194     -0.1241
    100  CA       -22.7410   -9.9760  -34.5460 C.3   194  TYR194      0.1605
    101  C        -22.5360  -10.7160  -35.8460 C.2   194  TYR194      0.2264
    102  O        -23.0030  -11.8340  -35.9780 O.2   194  TYR194     -0.2867
    103  CB       -23.9220   -9.0410  -34.6870 C.3   194  TYR194      0.0534
    104  CG       -25.2490   -9.7370  -34.7410 C.ar  194  TYR194     -0.0201
    105  CD1      -25.9080  -10.0800  -33.5640 C.ar  194  TYR194     -0.0009
    106  CD2      -25.8540  -10.0580  -35.9560 C.ar  194  TYR194     -0.0009
    107  CE1      -27.1320  -10.7170  -33.5820 C.ar  194  TYR194      0.0417
    108  CE2      -27.0920  -10.7010  -35.9900 C.ar  194  TYR194      0.0417
    109  CZ       -27.7220  -11.0340  -34.7860 C.ar  194  TYR194      0.1957
    110  OH       -28.9500  -11.6600  -34.7500 O.3   194  TYR194     -0.2866
    111  N        -20.6970  -13.9680  -35.1150 N.3   197  LEU197     -0.1231
    112  CA       -21.6320  -14.9340  -34.5720 C.3   197  LEU197      0.1693
    113  C        -22.5040  -15.5030  -35.7080 C.2   197  LEU197      0.2591
    114  O        -22.6850  -16.7260  -35.8270 O.2   197  LEU197     -0.2718
    115  CB       -22.4710  -14.3250  -33.4440 C.3   197  LEU197      0.0284
    116  CG       -21.6460  -13.8050  -32.2490 C.3   197  LEU197      0.0019
    117  CD1      -22.4820  -13.6600  -30.9850 C.3   197  LEU197      0.0001
    118  CD2      -20.4350  -14.6670  -31.9640 C.3   197  LEU197      0.0001
    119  N        -23.0120  -14.6110  -36.5560 N.am  198  GLU198     -0.1979
    120  CA       -24.0030  -14.9730  -37.5640 C.3   198  GLU198      0.1602
    121  C        -23.3860  -15.9590  -38.5470 C.2   198  GLU198      0.2287
    122  O        -24.0280  -16.9350  -38.9900 O.2   198  GLU198     -0.2864
    123  CB       -24.4480  -13.7170  -38.3090 C.3   198  GLU198      0.0415
    124  CG       -25.9320  -13.6640  -38.6800 C.3   198  GLU198      0.1163
    125  CD       -26.3790  -12.2820  -39.2020 C.2   198  GLU198      0.3649
    126  OE1      -25.5410  -11.3430  -39.2310 O.co2 198  GLU198     -0.2457
    127  OE2      -27.5630  -12.1370  -39.5910 O.co2 198  GLU198     -0.2457
    128  N        -21.1850  -18.0200  -37.8400 N.3   200  GLY200     -0.1210
    129  CA       -21.1820  -19.2200  -37.0190 C.3   200  GLY200      0.1956
    130  C        -22.4970  -19.9720  -37.0270 C.2   200  GLY200      0.2611
    131  O        -22.5140  -21.1540  -37.3540 O.2   200  GLY200     -0.2717
    132  N        -23.5960  -19.2960  -36.7060 N.am  201  ALA201     -0.1979
    133  CA       -24.8870  -19.9530  -36.7210 C.3   201  ALA201      0.1597
    134  C        -25.1100  -20.7020  -38.0120 C.2   201  ALA201      0.2287
    135  O        -25.3790  -21.8870  -38.0000 O.2   201  ALA201     -0.2864
    136  CB       -25.9810  -18.9620  -36.5450 C.3   201  ALA201      0.0319
    137  N        -23.1760  -23.7630  -38.5620 N.3   204  ARG204     -0.1245
    138  CA       -23.6570  -24.7780  -37.6500 C.3   204  ARG204      0.1563
    139  C        -24.9610  -25.4020  -38.1230 C.2   204  ARG204      0.2260
    140  O        -25.1580  -26.6240  -38.0080 O.2   204  ARG204     -0.2867
    141  CB       -23.8080  -24.2320  -36.2330 C.3   204  ARG204      0.0307
    142  CG       -24.3820  -25.2740  -35.2740 C.3   204  ARG204      0.0489
    143  CD       -24.5880  -24.7260  -33.9260 C.3   204  ARG204      0.2205
    144  NE       -23.3130  -24.5160  -33.2670 N.pl3 204  ARG204     -0.0865
    145  CZ       -23.0850  -23.5200  -32.4160 C.cat 204  ARG204      0.5346
    146  NH1      -24.0590  -22.6420  -32.1670 N.pl3 204  ARG204      0.1354
    147  NH2      -21.8960  -23.4050  -31.8170 N.pl3 204  ARG204      0.1354
    148  N        -16.2260  -22.2360  -27.6380 N.3   222  PHE222     -0.1241
    149  CA       -16.0910  -20.8670  -28.1460 C.3   222  PHE222      0.1605
    150  C        -14.9900  -20.2290  -27.3380 C.2   222  PHE222      0.2264
    151  O        -14.9820  -20.3320  -26.1200 O.2   222  PHE222     -0.2867
    152  CB       -17.3910  -20.0660  -27.9530 C.3   222  PHE222      0.0534
    153  CG       -17.3330  -18.6770  -28.5200 C.ar  222  PHE222     -0.0203
    154  CD1      -16.7140  -17.6570  -27.8240 C.ar  222  PHE222     -0.0042
    155  CD2      -17.8750  -18.3930  -29.7730 C.ar  222  PHE222     -0.0042
    156  CE1      -16.6540  -16.3900  -28.3480 C.ar  222  PHE222     -0.0003
    157  CE2      -17.8080  -17.1130  -30.3050 C.ar  222  PHE222     -0.0003
    158  CZ       -17.2010  -16.1180  -29.5930 C.ar  222  PHE222     -0.0000
@<TRIPOS>BOND
     1    94    93    2
     2   127   125   ar
     3    93    92    1
     4   126   125   ar
     5   125   124    1
     6   122   121    2
     7   124   123    1
     8   137   138    1
     9   121   120    1
    10   123   120    1
    11    92    91    1
    12    92    95    1
    13   139   140    2
    14   139   138    1
    15   134   135    2
    16   134   133    1
    17   128   129    1
    18   138   141    1
    19   120   119    1
    20   131   130    2
    21    95    96    1
    22   130   129    1
    23   130   132   am
    24   133   132    1
    25   133   136    1
    26   119   113   am
    27    98    96    1
    28   141   142    1
    29   108   106   ar
    30   108   109   ar
    31   102   101    2
    32   106   104   ar
    33    96    97    1
    34   101   100    1
    35   114   113    2
    36   113   112    1
    37   142   143    1
    38   111   112    1
    39   109   110    1
    40   109   107   ar
    41   104   103    1
    42   104   105   ar
    43   103   100    1
    44   112   115    1
    45   100    99    1
    46    86    85    2
    47   143   144    1
    48   107   105   ar
    49   115   116    1
    50   144   145    2
    51    87    88    1
    52    87    84    1
    53    85    84    1
    54    40    38    1
    55    83    84    1
    56    90    88    1
    57    88    89    1
    58   145   146    1
    59   145   147    1
    60    37    38    2
    61    37    36    1
    62   116   118    1
    63   116   117    1
    64    47    49   ar
    65    47    46   ar
    66    38    39    1
    67    49    50   ar
    68    35    34    1
    69    35    36    1
    70    34    31    1
    71    46    45    1
    72    46    48   ar
    73    45    42    1
    74    50    48   ar
    75    50    52   ar
    76    41    42    1
    77   157   155   ar
    78   157   158   ar
    79    48    51   ar
    80    52    54   ar
    81    33    32    2
    82    31    32    1
    83    31    30    1
    84    42    43    1
    85   155   153   ar
    86    30    23   am
    87    15    14   ar
    88   158   156   ar
    89    16    14   ar
    90    51    53   ar
    91    54    53   ar
    92    14    13    1
    93    43    44    2
    94    23    22    1
    95    23    24    2
    96    62    60   ar
    97   153   152    1
    98   153   154   ar
    99   156   154   ar
   100    22    25    1
   101    22    21    1
   102   149   152    1
   103   149   148    1
   104   149   150    1
   105    20    19    2
   106    25    26    1
   107    13    12    1
   108     7     5    1
   109    74    72    1
   110    12     9    1
   111    29    27   ar
   112    60    59    1
   113    60    61   ar
   114   150   151    2
   115    27    26    1
   116    27    28   ar
   117    80    77    1
   118    80    81    1
   119    59    56    1
   120    21    19   am
   121    19    18    1
   122    77    76    1
   123    77    78    1
   124    75    73    1
   125     6     5    1
   126    81    82    1
   127     5     2    1
   128    82    76    1
   129    72    73    1
   130    72    69    1
   131    76    70   am
   132     9    10    1
   133     9     8    1
   134    11    10    2
   135    55    56    1
   136    10    17   am
   137    56    57    1
   138    79    78    2
   139    17    18    1
   140    70    71    2
   141    70    69    1
   142    67    64    1
   143     2     3    1
   144     2     1    1
   145    69    68    1
   146     4     3    2
   147    64    63    1
   148    64    65    1
   149    57    58    2
   150    65    66    2
