@<TRIPOS>MOLECULE
tmp/4a51F01.pdb
 158 150 0 0 0
SMALL
GASTEIGER

@<TRIPOS>ATOM
      1  N        -27.1610  -49.3020  -56.7560 N.3    95  THR95      -0.1218
      2  CA       -28.3460  -49.5300  -57.5710 C.3    95  THR95       0.1862
      3  C        -28.2580  -48.8550  -58.9420 C.2    95  THR95       0.2287
      4  O        -28.2540  -49.5300  -59.9630 O.2    95  THR95      -0.2866
      5  CB       -29.6160  -49.1480  -56.8140 C.3    95  THR95       0.1770
      6  OG1      -30.0910  -50.3070  -56.1230 O.3    95  THR95      -0.2211
      7  CG2      -30.6960  -48.6600  -57.7600 C.3    95  THR95       0.0375
      8  N        -28.7190  -51.0350  -62.0090 N.3    99  GLU99      -0.1231
      9  CA       -30.0290  -50.9770  -62.6500 C.3    99  GLU99       0.1699
     10  C        -30.1380  -49.6910  -63.4120 C.2    99  GLU99       0.2593
     11  O        -30.2200  -49.7020  -64.6330 O.2    99  GLU99      -0.2718
     12  CB       -31.1750  -51.0440  -61.6400 C.3    99  GLU99       0.0402
     13  CG       -31.2060  -52.3260  -60.8160 C.3    99  GLU99       0.1161
     14  CD       -32.3430  -52.3480  -59.7870 C.2    99  GLU99       0.3649
     15  OE1      -33.1590  -51.3830  -59.7460 O.co2  99  GLU99      -0.2457
     16  OE2      -32.4170  -53.3400  -59.0230 O.co2  99  GLU99      -0.2457
     17  N        -30.1330  -48.5700  -62.6980 N.am  100  GLY100     -0.1942
     18  CA       -30.2150  -47.2730  -63.3450 C.3   100  GLY100      0.2014
     19  C        -31.6210  -46.7610  -63.1830 C.2   100  GLY100      0.2639
     20  O        -32.3890  -47.3200  -62.4040 O.2   100  GLY100     -0.2714
     21  N        -31.9650  -45.6930  -63.8830 N.am  101  GLU101     -0.1963
     22  CA       -33.2940  -45.1430  -63.7270 C.3   101  GLU101      0.1733
     23  C        -33.9700  -44.9120  -65.0850 C.2   101  GLU101      0.2616
     24  O        -33.4270  -45.2860  -66.1240 O.2   101  GLU101     -0.2715
     25  CB       -33.2120  -43.8720  -62.8890 C.3   101  GLU101      0.0429
     26  CG       -32.3010  -44.0440  -61.6690 C.3   101  GLU101      0.1163
     27  CD       -31.8680  -42.7250  -61.0490 C.2   101  GLU101      0.3649
     28  OE1      -30.9880  -42.0540  -61.6380 O.co2 101  GLU101     -0.2457
     29  OE2      -32.4020  -42.3660  -59.9710 O.co2 101  GLU101     -0.2457
     30  N        -35.1640  -44.3280  -65.0720 N.am  102  ARG102     -0.1977
     31  CA       -35.8680  -44.0260  -66.3120 C.3   102  ARG102      0.1597
     32  C        -36.0870  -42.5270  -66.4180 C.2   102  ARG102      0.2287
     33  O        -36.6130  -41.9070  -65.4890 O.2   102  ARG102     -0.2864
     34  CB       -37.2020  -44.7680  -66.3650 C.3   102  ARG102      0.0334
     35  CG       -37.0460  -46.2690  -66.5570 C.3   102  ARG102      0.0492
     36  CD       -36.9160  -46.6400  -68.0390 C.3   102  ARG102      0.2205
     37  NE       -38.1490  -46.3760  -68.7960 N.pl3 102  ARG102     -0.0865
     38  CZ       -38.3000  -45.3860  -69.6790 C.cat 102  ARG102      0.5346
     39  NH1      -37.2910  -44.5550  -69.9380 N.pl3 102  ARG102      0.1354
     40  NH2      -39.4600  -45.2270  -70.3150 N.pl3 102  ARG102      0.1354
     41  N        -36.7270  -47.2160  -73.3790 N.3   110  TRP110     -0.1241
     42  CA       -35.8290  -47.9100  -72.4730 C.3   110  TRP110      0.1605
     43  C        -34.7750  -48.6770  -73.2500 C.2   110  TRP110      0.2264
     44  O        -33.7960  -49.1620  -72.6810 O.2   110  TRP110     -0.2867
     45  CB       -36.6130  -48.8960  -71.6300 C.3   110  TRP110      0.0550
     46  CG       -36.9250  -50.1580  -72.3650 C.ar  110  TRP110      0.0003
     47  CD1      -38.0750  -50.4450  -73.0350 C.ar  110  TRP110      0.0946
     48  CD2      -36.0740  -51.3130  -72.5080 C.ar  110  TRP110      0.0152
     49  NE1      -37.9990  -51.7070  -73.5780 N.ar  110  TRP110     -0.2442
     50  CE2      -36.7850  -52.2610  -73.2680 C.ar  110  TRP110      0.0810
     51  CE3      -34.7900  -51.6370  -72.0620 C.ar  110  TRP110      0.0012
     52  CZ2      -36.2540  -53.5120  -73.5890 C.ar  110  TRP110      0.0191
     53  CZ3      -34.2670  -52.8760  -72.3840 C.ar  110  TRP110      0.0001
     54  CH2      -34.9970  -53.7980  -73.1390 C.ar  110  TRP110      0.0015
     55  N        -31.7600  -45.7170  -72.7250 N.3   113  ASP113     -0.1239
     56  CA       -31.9680  -44.5820  -71.8540 C.3   113  ASP113      0.1674
     57  C        -30.5570  -44.1620  -71.5310 C.2   113  ASP113      0.2266
     58  O        -29.7090  -45.0100  -71.2300 O.2   113  ASP113     -0.2867
     59  CB       -32.7390  -44.9770  -70.5940 C.3   113  ASP113      0.1410
     60  CG       -33.3080  -43.7740  -69.8630 C.2   113  ASP113      0.3668
     61  OD1      -32.5950  -42.7600  -69.7700 O.co2 113  ASP113     -0.2456
     62  OD2      -34.4630  -43.8270  -69.3870 O.co2 113  ASP113     -0.2456
     63  N        -29.0380  -45.9950  -67.5890 N.3   116  ALA116     -0.1245
     64  CA       -29.5600  -47.2950  -67.2320 C.3   116  ALA116      0.1562
     65  C        -28.3570  -48.2210  -67.1320 C.2   116  ALA116      0.2260
     66  O        -27.4400  -48.1280  -67.9340 O.2   116  ALA116     -0.2867
     67  CB       -30.5230  -47.7670  -68.2990 C.3   116  ALA116      0.0290
     68  N        -28.0540  -54.0780  -65.7880 N.3   119  ILE119     -0.1231
     69  CA       -29.2010  -54.9970  -65.9980 C.3   119  ILE119      0.1678
     70  C        -29.8890  -54.9010  -67.3760 C.2   119  ILE119      0.2434
     71  O        -29.9080  -55.8810  -68.1330 O.2   119  ILE119     -0.2733
     72  CB       -30.3100  -54.8740  -64.9000 C.3   119  ILE119      0.0265
     73  CG1      -29.7880  -55.2210  -63.4960 C.3   119  ILE119      0.0019
     74  CG2      -31.4830  -55.7520  -65.2320 C.3   119  ILE119      0.0020
     75  CD1      -29.3160  -56.6310  -63.3360 C.3   119  ILE119      0.0001
     76  N        -30.4660  -53.7310  -67.7060 N.am  120  PRO120     -0.2729
     77  CA       -31.1390  -53.6380  -69.0070 C.3   120  PRO120      0.1401
     78  C        -30.1980  -53.8410  -70.2070 C.2   120  PRO120      0.2269
     79  O        -30.4780  -54.6520  -71.0820 O.2   120  PRO120     -0.2865
     80  CB       -31.7020  -52.2150  -69.0080 C.3   120  PRO120      0.0296
     81  CG       -31.8390  -51.8590  -67.5930 C.3   120  PRO120      0.0237
     82  CD       -30.7000  -52.5380  -66.8820 C.3   120  PRO120      0.0939
     83  N        -35.0500  -62.9990  -59.9700 N.3   143  LEU143     -0.1245
     84  CA       -34.6940  -61.9400  -59.0230 C.3   143  LEU143      0.1561
     85  C        -35.0360  -62.2750  -57.5430 C.2   143  LEU143      0.2260
     86  O        -36.2060  -62.2950  -57.1280 O.2   143  LEU143     -0.2867
     87  CB       -35.3690  -60.6530  -59.4640 C.3   143  LEU143      0.0270
     88  CG       -34.7510  -59.4060  -58.8780 C.3   143  LEU143      0.0019
     89  CD1      -33.2400  -59.4710  -58.9660 C.3   143  LEU143      0.0001
     90  CD2      -35.2980  -58.1810  -59.5680 C.3   143  LEU143      0.0001
     91  N        -39.8210  -61.9550  -58.7130 N.3   155  LEU155     -0.1245
     92  CA       -40.4330  -62.3340  -59.9920 C.3   155  LEU155      0.1561
     93  C        -41.5200  -63.4100  -59.8890 C.2   155  LEU155      0.2260
     94  O        -42.0030  -63.9220  -60.8970 O.2   155  LEU155     -0.2867
     95  CB       -39.3310  -62.7980  -60.9420 C.3   155  LEU155      0.0270
     96  CG       -38.3200  -61.6930  -61.2190 C.3   155  LEU155      0.0019
     97  CD1      -37.1960  -62.1680  -62.1050 C.3   155  LEU155      0.0001
     98  CD2      -39.0270  -60.5520  -61.8450 C.3   155  LEU155      0.0001
     99  N        -39.3320  -55.2060  -70.3820 N.3   194  TYR194     -0.1241
    100  CA       -39.5240  -54.0460  -69.5270 C.3   194  TYR194      0.1605
    101  C        -40.8110  -54.2060  -68.6990 C.2   194  TYR194      0.2264
    102  O        -41.2330  -53.2850  -68.0080 O.2   194  TYR194     -0.2867
    103  CB       -39.5360  -52.7520  -70.3520 C.3   194  TYR194      0.0534
    104  CG       -39.7680  -51.4700  -69.5700 C.ar  194  TYR194     -0.0201
    105  CD1      -41.0480  -51.1000  -69.1750 C.ar  194  TYR194     -0.0009
    106  CD2      -38.7150  -50.6090  -69.2600 C.ar  194  TYR194     -0.0009
    107  CE1      -41.2790  -49.9310  -68.4640 C.ar  194  TYR194      0.0417
    108  CE2      -38.9400  -49.4270  -68.5490 C.ar  194  TYR194      0.0417
    109  CZ       -40.2330  -49.1010  -68.1570 C.ar  194  TYR194      0.1957
    110  OH       -40.5320  -47.9570  -67.4560 O.3   194  TYR194     -0.2866
    111  N        -39.6020  -56.7810  -65.5410 N.3   197  LEU197     -0.1231
    112  CA       -38.8860  -55.8170  -64.7170 C.3   197  LEU197      0.1693
    113  C        -39.8330  -54.8130  -64.0690 C.2   197  LEU197      0.2591
    114  O        -39.6950  -54.4630  -62.8960 O.2   197  LEU197     -0.2718
    115  CB       -37.8940  -55.0400  -65.5720 C.3   197  LEU197      0.0284
    116  CG       -36.4140  -55.4050  -65.5440 C.3   197  LEU197      0.0019
    117  CD1      -36.2050  -56.8810  -65.7730 C.3   197  LEU197      0.0001
    118  CD2      -35.6680  -54.5740  -66.5700 C.3   197  LEU197      0.0001
    119  N        -40.7840  -54.3200  -64.8400 N.am  198  GLU198     -0.1979
    120  CA       -41.7040  -53.3210  -64.3280 C.3   198  GLU198      0.1602
    121  C        -42.4620  -53.8390  -63.1120 C.2   198  GLU198      0.2287
    122  O        -42.7770  -53.0780  -62.2020 O.2   198  GLU198     -0.2864
    123  CB       -42.6810  -52.8860  -65.4280 C.3   198  GLU198      0.0415
    124  CG       -43.5900  -51.7020  -65.0780 C.3   198  GLU198      0.1163
    125  CD       -44.3710  -51.1960  -66.2940 C.2   198  GLU198      0.3649
    126  OE1      -45.4230  -51.8020  -66.6250 O.co2 198  GLU198     -0.2457
    127  OE2      -43.9210  -50.1980  -66.9160 O.co2 198  GLU198     -0.2457
    128  N        -41.4130  -56.3550  -61.0790 N.3   200  GLY200     -0.1210
    129  CA       -40.4900  -56.6300  -59.9890 C.3   200  GLY200      0.1956
    130  C        -40.3220  -55.3460  -59.1900 C.2   200  GLY200      0.2611
    131  O        -40.4320  -55.3220  -57.9710 O.2   200  GLY200     -0.2717
    132  N        -40.0910  -54.2560  -59.8970 N.am  201  ALA201     -0.1979
    133  CA       -40.0100  -52.9860  -59.2430 C.3   201  ALA201      0.1597
    134  C        -41.2570  -52.7700  -58.3760 C.2   201  ALA201      0.2287
    135  O        -41.2030  -52.0910  -57.3360 O.2   201  ALA201     -0.2864
    136  CB       -39.8680  -51.8750  -60.2820 C.3   201  ALA201      0.0319
    137  N        -40.8410  -54.6710  -55.1910 N.3   204  ARG204     -0.1245
    138  CA       -39.9740  -53.9810  -54.2320 C.3   204  ARG204      0.1563
    139  C        -40.7730  -52.9690  -53.4670 C.2   204  ARG204      0.2260
    140  O        -40.9610  -53.0670  -52.2480 O.2   204  ARG204     -0.2867
    141  CB       -38.8630  -53.2130  -54.9200 C.3   204  ARG204      0.0307
    142  CG       -37.7420  -54.0850  -55.2940 C.3   204  ARG204      0.0489
    143  CD       -36.4560  -53.3540  -55.3670 C.3   204  ARG204      0.2205
    144  NE       -35.4640  -54.4020  -55.4360 N.pl3 204  ARG204     -0.0865
    145  CZ       -34.5710  -54.5420  -56.4030 C.cat 204  ARG204      0.5346
    146  NH1      -34.4980  -53.6540  -57.4060 N.pl3 204  ARG204      0.1354
    147  NH2      -33.7350  -55.5730  -56.3390 N.pl3 204  ARG204      0.1354
    148  N        -29.6890  -60.4100  -59.1280 N.3   222  PHE222     -0.1241
    149  CA       -30.4520  -60.6140  -60.3720 C.3   222  PHE222      0.1605
    150  C        -29.7450  -61.5890  -61.3040 C.2   222  PHE222      0.2264
    151  O        -28.7560  -61.2460  -61.9100 O.2   222  PHE222     -0.2867
    152  CB       -30.6270  -59.2850  -61.1240 C.3   222  PHE222      0.0534
    153  CG       -31.5110  -59.3890  -62.3270 C.ar  222  PHE222     -0.0203
    154  CD1      -32.0270  -60.6090  -62.7170 C.ar  222  PHE222     -0.0042
    155  CD2      -31.8330  -58.2690  -63.0690 C.ar  222  PHE222     -0.0042
    156  CE1      -32.8460  -60.7030  -63.8200 C.ar  222  PHE222     -0.0003
    157  CE2      -32.6510  -58.3620  -64.1820 C.ar  222  PHE222     -0.0003
    158  CZ       -33.1600  -59.5750  -64.5550 C.ar  222  PHE222     -0.0000
@<TRIPOS>BOND
     1    52    50   ar
     2    52    54   ar
     3    49    50   ar
     4    49    47   ar
     5    41    42    1
     6    50    48   ar
     7    43    44    2
     8    43    42    1
     9    54    53   ar
    10    47    46   ar
    11    55    56    1
    12    48    46   ar
    13    48    51   ar
    14    42    45    1
    15    53    51   ar
    16    46    45    1
    17    56    57    1
    18    56    59    1
    19    57    58    2
    20    79    78    2
    21    59    60    1
    22    99   100    1
    23   103   104    1
    24   103   100    1
    25    40    38    1
    26    78    77    1
    27    39    38    1
    28    60    61   ar
    29    60    62   ar
    30    38    37    2
    31   104   106   ar
    32   104   105   ar
    33   100   101    1
    34   106   108   ar
    35   105   107   ar
    36    80    77    1
    37    80    81    1
    38    77    76    1
    39    37    36    1
    40   101   102    2
    41   108   109   ar
    42   107   109   ar
    43    67    64    1
    44   109   110    1
    45    71    70    2
    46    36    35    1
    47    66    65    2
    48    76    70   am
    49    76    82    1
    50    81    82    1
    51    63    64    1
    52    70    69    1
    53    64    65    1
    54   127   125   ar
    55   126   125   ar
    56   118   116    1
    57    35    34    1
    58    32    31    1
    59    32    33    2
    60    34    31    1
    61    31    30    1
    62   125   124    1
    63    24    23    2
    64    69    68    1
    65    69    72    1
    66   117   116    1
    67   115   116    1
    68   115   112    1
    69   111   112    1
    70   123   124    1
    71   123   120    1
    72    74    72    1
    73    23    30   am
    74    23    22    1
    75    72    73    1
    76   119   120    1
    77   119   113   am
    78   112   113    1
    79    11    10    2
    80   158   157   ar
    81   158   156   ar
    82   120   121    1
    83   157   155   ar
    84   113   114    2
    85    21    22    1
    86    21    19   am
    87   156   154   ar
    88    22    25    1
    89    73    75    1
    90    10    17   am
    91    10     9    1
    92    18    19    1
    93    18    17    1
    94    19    20    2
    95   121   122    2
    96   155   153   ar
    97    25    26    1
    98   154   153   ar
    99     9     8    1
   100     9    12    1
   101   153   152    1
   102    97    96    1
   103   151   150    2
   104    98    96    1
   105    26    27    1
   106    12    13    1
   107    28    27   ar
   108   150   149    1
   109    96    95    1
   110   152   149    1
   111   128   129    1
   112    27    29   ar
   113    95    92    1
   114    94    93    2
   115    13    14    1
   116   149   148    1
   117   136   133    1
   118    92    93    1
   119    92    91    1
   120   129   130    1
   121    83    84    1
   122     4     3    2
   123   132   133    1
   124   132   130   am
   125    14    15   ar
   126    14    16   ar
   127    90    88    1
   128    87    84    1
   129    87    88    1
   130   133   134    1
   131   130   131    2
   132    84    85    1
   133    89    88    1
   134     3     2    1
   135   134   135    2
   136     7     5    1
   137     2     5    1
   138     2     1    1
   139    85    86    2
   140   146   145    1
   141     5     6    1
   142   145   147    1
   143   145   144    2
   144   144   143    1
   145   143   142    1
   146   142   141    1
   147   137   138    1
   148   141   138    1
   149   138   139    1
   150   139   140    2
