@<TRIPOS>MOLECULE
tmp/4a59D01.pdb
 87 85 0 0 0
SMALL
GASTEIGER

@<TRIPOS>ATOM
      1  N         27.8630   11.2150   83.6590 N.3   161  HIS161     -0.1226
      2  CA        27.3450    9.8710   83.9630 C.3   161  HIS161      0.1752
      3  C         25.9760    9.7150   84.6700 C.2   161  HIS161      0.2595
      4  O         25.7110    8.6580   85.2790 O.2   161  HIS161     -0.2718
      5  CB        28.4310    8.9690   84.5650 C.3   161  HIS161      0.0759
      6  CG        29.6750    8.8910   83.7280 C.ar  161  HIS161      0.0818
      7  ND1       29.6440    8.4240   82.4200 N.ar  161  HIS161     -0.2268
      8  CD2       30.9520    9.2020   84.0510 C.ar  161  HIS161      0.1154
      9  CE1       30.8890    8.4920   81.9840 C.ar  161  HIS161      0.1986
     10  NE2       31.7160    8.9440   82.9320 N.ar  161  HIS161     -0.2212
     11  N         25.1110   10.7540   84.5820 N.am  162  GLU162     -0.1979
     12  CA        23.7500   10.7060   85.1300 C.3   162  GLU162      0.1602
     13  C         22.8020   11.1490   84.0130 C.2   162  GLU162      0.2287
     14  O         23.1960   11.1490   82.8570 O.2   162  GLU162     -0.2864
     15  CB        23.5790   11.5520   86.4160 C.3   162  GLU162      0.0415
     16  CG        24.4510   11.1350   87.5900 C.3   162  GLU162      0.1163
     17  CD        24.1100    9.8510   88.3280 C.2   162  GLU162      0.3649
     18  OE1       23.0730    9.2230   88.0200 O.co2 162  GLU162     -0.2457
     19  OE2       24.8870    9.4770   89.2340 O.co2 162  GLU162     -0.2457
     20  N         23.4390   15.1540   81.0210 N.3   165  ARG165     -0.1245
     21  CA        23.8920   15.4910   79.6620 C.3   165  ARG165      0.1563
     22  C         22.7610   15.3720   78.6750 C.2   165  ARG165      0.2260
     23  O         22.5260   16.3020   77.8990 O.2   165  ARG165     -0.2867
     24  CB        25.1170   14.6600   79.1930 C.3   165  ARG165      0.0307
     25  CG        25.5450   15.0190   77.7490 C.3   165  ARG165      0.0489
     26  CD        26.7760   14.3010   77.2440 C.3   165  ARG165      0.2205
     27  NE        26.4280   13.1020   76.4850 N.pl3 165  ARG165     -0.0865
     28  CZ        27.3150   12.2870   75.9220 C.cat 165  ARG165      0.5346
     29  NH1       28.6120   12.5510   76.0020 N.pl3 165  ARG165      0.1354
     30  NH2       26.9100   11.2180   75.2510 N.pl3 165  ARG165      0.1354
     31  N         38.5140   10.2650   86.3130 N.3   360  THR360     -0.1203
     32  CA        37.0680    9.9670   86.3200 C.3   360  THR360      0.1994
     33  C         36.8620    8.5500   85.7410 C.2   360  THR360      0.2617
     34  O         35.9640    7.8210   86.1810 O.2   360  THR360     -0.2717
     35  CB        36.2770   11.0580   85.5730 C.3   360  THR360      0.1784
     36  OG1       36.5260   12.3020   86.2120 O.3   360  THR360     -0.2211
     37  CG2       34.7560   10.7950   85.5410 C.3   360  THR360      0.0376
     38  N         37.7190    8.1670   84.7740 N.am  361  TYR361     -0.1975
     39  CA        37.6930    6.8410   84.2000 C.3   361  TYR361      0.1639
     40  C         38.3520    5.8280   85.1850 C.2   361  TYR361      0.2290
     41  O         37.8060    4.7480   85.3960 O.2   361  TYR361     -0.2864
     42  CB        38.3350    6.8020   82.7890 C.3   361  TYR361      0.0560
     43  CG        38.6390    5.3850   82.3440 C.ar  361  TYR361     -0.0198
     44  CD1       37.6590    4.5940   81.7500 C.ar  361  TYR361     -0.0009
     45  CD2       39.8720    4.7970   82.6220 C.ar  361  TYR361     -0.0009
     46  CE1       37.9040    3.2600   81.4240 C.ar  361  TYR361      0.0417
     47  CE2       40.1300    3.4660   82.2990 C.ar  361  TYR361      0.0417
     48  CZ        39.1420    2.6990   81.7040 C.ar  361  TYR361      0.1957
     49  OH        39.4060    1.3840   81.4020 O.3   361  TYR361     -0.2866
     50  N         38.3700    5.0020   88.2920 N.3   363  SER363     -0.1217
     51  CA        37.6360    5.0710   89.5610 C.3   363  SER363      0.1889
     52  C         36.9080    3.7550   89.8390 C.2   363  SER363      0.2288
     53  O         36.6040    3.0320   88.8910 O.2   363  SER363     -0.2866
     54  CB        36.6280    6.2210   89.5040 C.3   363  SER363      0.2089
     55  OG        35.9080    6.3800   90.7150 O.3   363  SER363     -0.2183
     56  N         33.8970    3.7400   91.0040 N.3   365  ASN365     -0.1225
     57  CA        32.5730    4.1800   90.5470 C.3   365  ASN365      0.1785
     58  C         32.3180    3.8920   89.0570 C.2   365  ASN365      0.2597
     59  O         31.1690    3.9560   88.6110 O.2   365  ASN365     -0.2718
     60  CB        32.3700    5.6650   90.8710 C.3   365  ASN365      0.1169
     61  CG        32.1390    5.9290   92.3410 C.2   365  ASN365      0.2627
     62  OD1       30.9990    6.0600   92.8000 O.2   365  ASN365     -0.2716
     63  ND2       33.2120    5.9930   93.1180 N.am  365  ASN365     -0.0877
     64  N         33.3940    3.5850   88.2930 N.am  366  ASN366     -0.1961
     65  CA        33.3250    3.2160   86.8830 C.3   366  ASN366      0.1804
     66  C         33.2110    1.6890   86.8240 C.2   366  ASN366      0.2463
     67  O         34.1610    0.9990   87.2130 O.2   366  ASN366     -0.2730
     68  CB        34.5750    3.6970   86.1010 C.3   366  ASN366      0.1195
     69  CG        34.6000    3.3500   84.6060 C.2   366  ASN366      0.2630
     70  OD1       35.6200    3.5000   83.9190 O.2   366  ASN366     -0.2716
     71  ND2       33.4810    2.9150   84.0400 N.am  366  ASN366     -0.0877
     72  N         32.0760    1.1380   86.3310 N.am  367  PRO367     -0.2716
     73  CA        31.9560   -0.3350   86.2390 C.3   367  PRO367      0.1536
     74  C         32.9830   -1.0370   85.3180 C.2   367  PRO367      0.2598
     75  O         33.1820   -2.2520   85.4580 O.2   367  PRO367     -0.2715
     76  CB        30.5070   -0.5520   85.7780 C.3   367  PRO367      0.0310
     77  CG        30.0980    0.7420   85.1290 C.3   367  PRO367      0.0237
     78  CD        30.8490    1.8190   85.8580 C.3   367  PRO367      0.0939
     79  N         33.6500   -0.2780   84.4060 N.am  368  GLU368     -0.1978
     80  CA        34.6510   -0.7980   83.4660 C.3   368  GLU368      0.1602
     81  C         35.9440   -1.3410   84.0860 C.2   368  GLU368      0.2287
     82  O         36.5430   -2.2660   83.5250 O.2   368  GLU368     -0.2864
     83  CB        34.9650    0.2030   82.3390 C.3   368  GLU368      0.0415
     84  CG        33.9510    0.1870   81.2050 C.3   368  GLU368      0.1163
     85  CD        33.9240   -0.9750   80.2230 C.2   368  GLU368      0.3649
     86  OE1       34.6230   -1.9940   80.4400 O.co2 368  GLU368     -0.2457
     87  OE2       33.1890   -0.8540   79.2180 O.co2 368  GLU368     -0.2457
@<TRIPOS>BOND
     1    30    28    1
     2    28    29    1
     3    28    27    2
     4    27    26    1
     5    26    25    1
     6    25    24    1
     7    23    22    2
     8    22    21    1
     9    24    21    1
    10    87    85   ar
    11    21    20    1
    12    85    86   ar
    13    85    84    1
    14    84    83    1
    15    49    48    1
    16    46    48   ar
    17    46    44   ar
    18    48    47   ar
    19    44    43   ar
    20     9     7   ar
    21     9    10   ar
    22    47    45   ar
    23    83    80    1
    24    43    45   ar
    25    43    42    1
    26     7     6   ar
    27    42    39    1
    28    14    13    2
    29    10     8   ar
    30    80    81    1
    31    80    79    1
    32    82    81    2
    33     1     2    1
    34     6     8   ar
    35     6     5    1
    36    70    69    2
    37     2     5    1
    38     2     3    1
    39    13    12    1
    40    71    69   am
    41    39    38    1
    42    39    40    1
    43    79    74   am
    44    11     3   am
    45    11    12    1
    46    69    68    1
    47     3     4    2
    48    38    33   am
    49    77    76    1
    50    77    78    1
    51    12    15    1
    52    40    41    2
    53    74    75    2
    54    74    73    1
    55    37    35    1
    56    35    36    1
    57    35    32    1
    58    33    34    2
    59    33    32    1
    60    76    73    1
    61    78    72    1
    62    68    65    1
    63    73    72    1
    64    31    32    1
    65    72    66   am
    66    15    16    1
    67    66    65    1
    68    66    67    2
    69    65    64    1
    70    16    17    1
    71    18    17   ar
    72    50    51    1
    73    64    58   am
    74    17    19   ar
    75    59    58    2
    76    53    52    2
    77    58    57    1
    78    54    51    1
    79    54    55    1
    80    51    52    1
    81    57    60    1
    82    57    56    1
    83    60    61    1
    84    61    62    2
    85    61    63   am
