@<TRIPOS>MOLECULE
tmp/4a59D00.pdb
 80 73 0 0 0
SMALL
GASTEIGER

@<TRIPOS>ATOM
      1  N         34.1350   33.3900   71.9930 N.3    74  ARG74      -0.1245
      2  CA        34.2630   32.1670   72.7760 C.3    74  ARG74       0.1563
      3  C         33.4910   32.3630   74.0800 C.2    74  ARG74       0.2260
      4  O         33.9330   33.0880   74.9680 O.2    74  ARG74      -0.2867
      5  CB        35.7530   31.8270   73.0590 C.3    74  ARG74       0.0307
      6  CG        36.4970   31.2930   71.8320 C.3    74  ARG74       0.0489
      7  CD        37.8020   30.6190   72.2090 C.3    74  ARG74       0.2205
      8  NE        38.7260   30.5250   71.0750 N.pl3  74  ARG74      -0.0865
      9  CZ        39.9570   30.0190   71.1470 C.cat  74  ARG74       0.5346
     10  NH1       40.4220   29.5440   72.2980 N.pl3  74  ARG74       0.1354
     11  NH2       40.7300   29.9810   70.0680 N.pl3  74  ARG74       0.1354
     12  N         45.3730   17.4050   66.7860 N.3   244  VAL244     -0.1231
     13  CA        45.6210   17.4350   68.2190 C.3   244  VAL244      0.1692
     14  C         44.7900   18.5390   68.8660 C.2   244  VAL244      0.2593
     15  O         45.0810   19.7260   68.6840 O.2   244  VAL244     -0.2718
     16  CB        47.1260   17.4680   68.6110 C.3   244  VAL244      0.0266
     17  CG1       47.3050   17.3780   70.1370 C.3   244  VAL244      0.0020
     18  CG2       47.9070   16.3560   67.9160 C.3   244  VAL244      0.0020
     19  N         43.7320   18.1300   69.5710 N.am  245  GLY245     -0.1942
     20  CA        42.8440   19.0320   70.2990 C.3   245  GLY245      0.2014
     21  C         43.2320   19.1580   71.7620 C.2   245  GLY245      0.2639
     22  O         44.3170   18.7440   72.1590 O.2   245  GLY245     -0.2714
     23  N         42.3360   19.7160   72.5660 N.am  246  GLY246     -0.1954
     24  CA        42.5750   19.9180   73.9890 C.3   246  GLY246      0.1869
     25  C         42.4060   18.6640   74.8030 C.2   246  GLY246      0.2309
     26  O         43.1470   18.4380   75.7560 O.2   246  GLY246     -0.2863
     27  N         46.0010   18.2520   74.3260 N.3   295  MET295     -0.1230
     28  CA        46.8660   19.2780   74.9470 C.3   295  MET295      0.1702
     29  C         46.7610   19.2950   76.4810 C.2   295  MET295      0.2592
     30  O         47.7870   19.3500   77.1640 O.2   295  MET295     -0.2718
     31  CB        46.5800   20.6830   74.3940 C.3   295  MET295      0.0401
     32  CG        46.7790   20.8220   72.9060 C.3   295  MET295      0.0596
     33  SD        48.4680   20.5280   72.3250 S.3   295  MET295     -0.1393
     34  CE        49.3540   21.8580   73.1670 C.3   295  MET295      0.0692
     35  N         45.5290   19.2480   77.0200 N.am  296  ALA296     -0.1980
     36  CA        45.3340   19.3390   78.4690 C.3   296  ALA296      0.1597
     37  C         45.5270   18.0080   79.1890 C.2   296  ALA296      0.2287
     38  O         46.1560   17.9780   80.2360 O.2   296  ALA296     -0.2864
     39  CB        43.9810   19.9570   78.7880 C.3   296  ALA296      0.0319
     40  N         45.9030   21.5130   64.4020 N.3   457  GLY457     -0.1210
     41  CA        45.6370   21.8770   65.7920 C.3   457  GLY457      0.1956
     42  C         46.5220   23.0230   66.2230 C.2   457  GLY457      0.2612
     43  O         47.7150   23.0210   65.9120 O.2   457  GLY457     -0.2717
     44  N         45.9310   23.9880   66.9310 N.am  458  GLY458     -0.1942
     45  CA        46.5950   25.2040   67.4090 C.3   458  GLY458      0.2014
     46  C         47.9620   25.0350   68.0490 C.2   458  GLY458      0.2639
     47  O         48.8670   25.8190   67.7650 O.2   458  GLY458     -0.2714
     48  N         48.1170   24.0010   68.8830 N.am  459  GLY459     -0.1954
     49  CA        49.3730   23.7020   69.5680 C.3   459  GLY459      0.1869
     50  C         50.4700   23.1550   68.6730 C.2   459  GLY459      0.2309
     51  O         51.6350   23.5420   68.8110 O.2   459  GLY459     -0.2863
     52  N         51.5760   26.0280   66.4950 N.3   462  ALA462     -0.1245
     53  CA        52.3330   27.0010   67.3040 C.3   462  ALA462      0.1562
     54  C         53.7440   26.5210   67.5820 C.2   462  ALA462      0.2260
     55  O         54.6540   27.3340   67.6660 O.2   462  ALA462     -0.2867
     56  CB        51.6140   27.3020   68.6040 C.3   462  ALA462      0.0290
     57  N         49.8220   29.9010   77.6690 N.3   519  LEU519     -0.1231
     58  CA        49.6970   29.0450   76.4950 C.3   519  LEU519      0.1693
     59  C         51.0100   28.4200   75.9920 C.2   519  LEU519      0.2592
     60  O         50.9700   27.3120   75.4510 O.2   519  LEU519     -0.2718
     61  CB        48.9890   29.7980   75.3440 C.3   519  LEU519      0.0284
     62  CG        47.4980   29.4890   75.0790 C.3   519  LEU519      0.0019
     63  CD1       47.2640   28.0060   74.7780 C.3   519  LEU519      0.0001
     64  CD2       46.6000   29.9490   76.2440 C.3   519  LEU519      0.0001
     65  N         52.1620   29.1160   76.1560 N.am  520  ASN520     -0.1974
     66  CA        53.4540   28.6690   75.6020 C.3   520  ASN520      0.1688
     67  C         54.5300   28.1330   76.5630 C.2   520  ASN520      0.2292
     68  O         55.5560   27.6390   76.0740 O.2   520  ASN520     -0.2864
     69  CB        54.0560   29.7770   74.7170 C.3   520  ASN520      0.1181
     70  CG        54.4520   31.0560   75.4530 C.2   520  ASN520      0.2629
     71  OD1       54.6630   31.1020   76.6820 O.2   520  ASN520     -0.2716
     72  ND2       54.5920   32.1350   74.7050 N.am  520  ASN520     -0.0877
     73  N         55.1080   24.5280   75.7070 N.3   523  LEU523     -0.1245
     74  CA        55.3060   24.2770   74.2700 C.3   523  LEU523      0.1561
     75  C         56.3330   23.2350   73.8210 C.2   523  LEU523      0.2260
     76  O         56.1240   22.6080   72.7810 O.2   523  LEU523     -0.2867
     77  CB        55.4450   25.5880   73.4940 C.3   523  LEU523      0.0270
     78  CG        54.9270   25.6300   72.0480 C.3   523  LEU523      0.0019
     79  CD1       53.4340   25.2360   71.9550 C.3   523  LEU523      0.0001
     80  CD2       55.1440   27.0020   71.4520 C.3   523  LEU523      0.0001
@<TRIPOS>BOND
     1    40    41    1
     2    41    42    1
     3    43    42    2
     4    42    44   am
     5    52    53    1
     6    12    13    1
     7    44    45    1
     8    53    54    1
     9    53    56    1
    10    45    46    1
    11    54    55    2
    12    47    46    2
    13    18    16    1
    14    46    48   am
    15    13    16    1
    16    13    14    1
    17    16    17    1
    18    50    51    2
    19    50    49    1
    20    15    14    2
    21    14    19   am
    22    48    49    1
    23    19    20    1
    24    11     9    1
    25    20    21    1
    26     8     9    2
    27     8     7    1
    28     9    10    1
    29    80    78    1
    30    21    22    2
    31    21    23   am
    32     6     7    1
    33     6     5    1
    34    79    78    1
    35     1     2    1
    36    78    77    1
    37    33    32    1
    38    33    34    1
    39    23    24    1
    40     2     5    1
    41     2     3    1
    42    76    75    2
    43    32    31    1
    44    77    74    1
    45    75    74    1
    46    24    25    1
    47     3     4    2
    48    74    73    1
    49    27    28    1
    50    31    28    1
    51    72    70   am
    52    69    70    1
    53    69    66    1
    54    63    62    1
    55    25    26    2
    56    28    29    1
    57    62    61    1
    58    62    64    1
    59    61    58    1
    60    60    59    2
    61    70    71    2
    62    66    65    1
    63    66    67    1
    64    59    65   am
    65    59    58    1
    66    68    67    2
    67    29    35   am
    68    29    30    2
    69    58    57    1
    70    35    36    1
    71    36    39    1
    72    36    37    1
    73    37    38    2
