@<TRIPOS>MOLECULE
tmp/4a5aB00.pdb
 167 155 0 0 0
SMALL
GASTEIGER

@<TRIPOS>ATOM
      1  N         66.0440  -27.1020  -18.0860 N.3    27  ASP27      -0.1239
      2  CA        66.2430  -26.5860  -19.4340 C.3    27  ASP27       0.1674
      3  C         65.4220  -27.4220  -20.3930 C.2    27  ASP27       0.2266
      4  O         65.7380  -28.5720  -20.6360 O.2    27  ASP27      -0.2867
      5  CB        67.7230  -26.6360  -19.8150 C.3    27  ASP27       0.1410
      6  CG        68.0280  -25.8200  -21.0420 C.2    27  ASP27       0.3668
      7  OD1       67.2020  -25.8040  -21.9820 O.co2  27  ASP27      -0.2456
      8  OD2       69.0980  -25.1830  -21.0790 O.co2  27  ASP27      -0.2456
      9  N         65.1970  -27.2630  -23.6040 N.3    29  GLY29      -0.1210
     10  CA        65.8050  -26.8520  -24.8750 C.3    29  GLY29       0.1956
     11  C         65.3630  -27.7030  -26.0510 C.2    29  GLY29       0.2613
     12  O         64.6100  -28.6630  -25.9020 O.2    29  GLY29      -0.2717
     13  N         65.8280  -27.3510  -27.2350 N.am   30  SER30      -0.1938
     14  CA        65.4140  -28.0600  -28.4370 C.3    30  SER30       0.2055
     15  C         65.8550  -29.5140  -28.4030 C.2    30  SER30       0.2643
     16  O         65.0550  -30.4090  -28.6590 O.2    30  SER30      -0.2714
     17  CB        65.9870  -27.3820  -29.6700 C.3    30  SER30       0.2130
     18  OG        67.3840  -27.6260  -29.7650 O.3    30  SER30      -0.2179
     19  N         67.1210  -29.7480  -28.0630 N.am   31  SER31      -0.1949
     20  CA        67.7200  -31.0860  -28.1840 C.3    31  SER31       0.1924
     21  C         67.2670  -32.1000  -27.1300 C.2    31  SER31       0.2314
     22  O         67.4590  -33.2950  -27.3230 O.2    31  SER31      -0.2863
     23  CB        69.2670  -31.0150  -28.2360 C.3    31  SER31       0.2116
     24  OG        69.8520  -30.7430  -26.9700 O.3    31  SER31      -0.2180
     25  N         66.3760  -31.3320  -19.4990 N.3    34  ARG34      -0.1245
     26  CA        67.3570  -31.7150  -18.4620 C.3    34  ARG34       0.1563
     27  C         67.3910  -30.7590  -17.2610 C.2    34  ARG34       0.2260
     28  O         67.2020  -29.5410  -17.4210 O.2    34  ARG34      -0.2867
     29  CB        68.7870  -31.8910  -19.0440 C.3    34  ARG34       0.0307
     30  CG        69.5090  -30.6260  -19.5180 C.3    34  ARG34       0.0489
     31  CD        69.1400  -30.2730  -20.9580 C.3    34  ARG34       0.2205
     32  NE        69.7910  -29.0650  -21.4700 N.pl3  34  ARG34      -0.0865
     33  CZ        69.5690  -28.5420  -22.6800 C.cat  34  ARG34       0.5346
     34  NH1       68.7100  -29.1080  -23.5250 N.pl3  34  ARG34       0.1354
     35  NH2       70.2140  -27.4440  -23.0580 N.pl3  34  ARG34       0.1354
     36  N         69.9250  -36.0590  -20.1500 N.3    65  ARG65      -0.1245
     37  CA        69.2010  -35.4210  -21.2540 C.3    65  ARG65       0.1563
     38  C         68.0080  -36.2690  -21.7180 C.2    65  ARG65       0.2260
     39  O         68.1610  -37.1780  -22.5100 O.2    65  ARG65      -0.2867
     40  CB        70.1740  -35.0820  -22.4140 C.3    65  ARG65       0.0307
     41  CG        71.2380  -34.0420  -22.0510 C.3    65  ARG65       0.0489
     42  CD        72.1250  -33.6560  -23.2240 C.3    65  ARG65       0.2205
     43  NE        72.7140  -32.3120  -23.0820 N.pl3  65  ARG65      -0.0865
     44  CZ        72.4510  -31.2650  -23.8750 C.cat  65  ARG65       0.5346
     45  NH1       71.6010  -31.3820  -24.8940 N.pl3  65  ARG65       0.1354
     46  NH2       73.0470  -30.0930  -23.6580 N.pl3  65  ARG65       0.1354
     47  N         62.9110  -23.2070  -24.6650 N.3   145  THR145     -0.1203
     48  CA        63.5910  -22.2840  -25.5700 C.3   145  THR145      0.1994
     49  C         63.2180  -22.5710  -27.0280 C.2   145  THR145      0.2617
     50  O         62.0440  -22.8070  -27.3200 O.2   145  THR145     -0.2717
     51  CB        65.1210  -22.2190  -25.2980 C.3   145  THR145      0.1784
     52  OG1       65.6880  -23.5300  -25.2940 O.3   145  THR145     -0.2211
     53  CG2       65.3790  -21.6140  -23.9480 C.3   145  THR145      0.0376
     54  N         64.1980  -22.5730  -27.9290 N.am  146  ALA146     -0.1979
     55  CA        63.9360  -22.6230  -29.3850 C.3   146  ALA146      0.1597
     56  C         63.2270  -23.8800  -29.8820 C.2   146  ALA146      0.2287
     57  O         62.5310  -23.8390  -30.8990 O.2   146  ALA146     -0.2864
     58  CB        65.2270  -22.4170  -30.1620 C.3   146  ALA146      0.0319
     59  N         66.2590  -15.3350  -23.4300 N.3   193  GLU193     -0.1245
     60  CA        67.2730  -16.3680  -23.4850 C.3   193  GLU193      0.1567
     61  C         68.6410  -15.6880  -23.6630 C.2   193  GLU193      0.2260
     62  O         69.6430  -16.1080  -23.0920 O.2   193  GLU193     -0.2867
     63  CB        66.9640  -17.3520  -24.6210 C.3   193  GLU193      0.0388
     64  CG        67.8610  -18.5780  -24.6480 C.3   193  GLU193      0.1160
     65  CD        67.5420  -19.5400  -25.7750 C.2   193  GLU193      0.3649
     66  OE1       66.6650  -19.2230  -26.6250 O.co2 193  GLU193     -0.2457
     67  OE2       68.1830  -20.6250  -25.7930 O.co2 193  GLU193     -0.2457
     68  N         75.7470  -17.1380  -28.0680 N.3   234  GLU234     -0.1231
     69  CA        75.4980  -18.5160  -27.7150 C.3   234  GLU234      0.1699
     70  C         74.7670  -19.1830  -28.8510 C.2   234  GLU234      0.2592
     71  O         73.7060  -18.7360  -29.2890 O.2   234  GLU234     -0.2718
     72  CB        74.7160  -18.6240  -26.4170 C.3   234  GLU234      0.0402
     73  CG        74.2630  -20.0230  -26.0600 C.3   234  GLU234      0.1161
     74  CD        73.5120  -20.0770  -24.7320 C.2   234  GLU234      0.3649
     75  OE1       73.9880  -19.4320  -23.7730 O.co2 234  GLU234     -0.2457
     76  OE2       72.4560  -20.7670  -24.6270 O.co2 234  GLU234     -0.2457
     77  N         75.3770  -20.2460  -29.3470 N.am  235  VAL235     -0.1966
     78  CA        74.8030  -21.0210  -30.4120 C.3   235  VAL235      0.1727
     79  C         74.3340  -22.3140  -29.7760 C.2   235  VAL235      0.2617
     80  O         75.1400  -23.1260  -29.3320 O.2   235  VAL235     -0.2715
     81  CB        75.8250  -21.2950  -31.5420 C.3   235  VAL235      0.0290
     82  CG1       75.1940  -22.1280  -32.6360 C.3   235  VAL235      0.0023
     83  CG2       76.3280  -19.9960  -32.1410 C.3   235  VAL235      0.0023
     84  N         73.0240  -22.4960  -29.7160 N.am  236  GLY236     -0.1940
     85  CA        72.4690  -23.7170  -29.1410 C.3   236  GLY236      0.2014
     86  C         72.1850  -24.7620  -30.2040 C.2   236  GLY236      0.2639
     87  O         72.8060  -24.7570  -31.2810 O.2   236  GLY236     -0.2714
     88  N         71.2400  -25.6500  -29.9020 N.am  237  GLY237     -0.1939
     89  CA        70.7820  -26.6500  -30.8510 C.3   237  GLY237      0.2014
     90  C         69.9680  -26.0510  -31.9830 C.2   237  GLY237      0.2639
     91  O         70.2780  -26.2960  -33.1530 O.2   237  GLY237     -0.2714
     92  N         68.9320  -25.2750  -31.6440 N.am  238  ALA238     -0.1963
     93  CA        68.0300  -24.7410  -32.6590 C.3   238  ALA238      0.1728
     94  C         68.2020  -23.2500  -32.9280 C.2   238  ALA238      0.2616
     95  O         67.9940  -22.8150  -34.0660 O.2   238  ALA238     -0.2715
     96  CB        66.5860  -25.0750  -32.3340 C.3   238  ALA238      0.0334
     97  N         68.5880  -22.4720  -31.9080 N.am  239  SER239     -0.1950
     98  CA        68.8260  -21.0410  -32.1230 C.3   239  SER239      0.1924
     99  C         70.1680  -20.5480  -31.6050 C.2   239  SER239      0.2314
    100  O         70.8410  -21.2370  -30.8350 O.2   239  SER239     -0.2863
    101  CB        67.6790  -20.1790  -31.5910 C.3   239  SER239      0.2116
    102  OG        67.7160  -20.0650  -30.1900 O.3   239  SER239     -0.2180
    103  N         71.8950  -16.8540  -29.9730 N.3   241  GLN241     -0.1245
    104  CA        71.6570  -15.5350  -29.4200 C.3   241  GLN241      0.1566
    105  C         72.8920  -14.6800  -29.5620 C.2   241  GLN241      0.2260
    106  O         74.0210  -15.1560  -29.3700 O.2   241  GLN241     -0.2867
    107  CB        71.3060  -15.6150  -27.9390 C.3   241  GLN241      0.0367
    108  CG        69.9150  -16.1360  -27.6520 C.3   241  GLN241      0.0905
    109  CD        69.7720  -17.6100  -27.9690 C.2   241  GLN241      0.2608
    110  OE1       69.1030  -17.9720  -28.9360 O.2   241  GLN241     -0.2717
    111  NE2       70.4100  -18.4700  -27.1650 N.am  241  GLN241     -0.0878
    112  N         72.9650  -25.3700  -34.0170 N.3   286  MET286     -0.1230
    113  CA        73.7390  -26.4380  -34.6490 C.3   286  MET286      0.1702
    114  C         72.8830  -27.3790  -35.4870 C.2   286  MET286      0.2592
    115  O         73.1230  -27.5320  -36.6970 O.2   286  MET286     -0.2718
    116  CB        74.5110  -27.2500  -33.6050 C.3   286  MET286      0.0401
    117  CG        75.5400  -26.4620  -32.8010 C.3   286  MET286      0.0596
    118  SD        76.8780  -25.7490  -33.7920 S.3   286  MET286     -0.1393
    119  CE        77.6980  -27.2320  -34.3650 C.3   286  MET286      0.0692
    120  N         71.8950  -28.0050  -34.8480 N.am  287  ALA287     -0.1980
    121  CA        70.9900  -28.9050  -35.5440 C.3   287  ALA287      0.1597
    122  C         70.1230  -28.2050  -36.6030 C.2   287  ALA287      0.2287
    123  O         70.0500  -28.6710  -37.7360 O.2   287  ALA287     -0.2864
    124  CB        70.1310  -29.6600  -34.5490 C.3   287  ALA287      0.0319
    125  N         78.9100  -25.5200  -27.3220 N.3   449  GLY449     -0.1210
    126  CA        79.8000  -26.6580  -27.5940 C.3   449  GLY449      0.1956
    127  C         80.4100  -26.6320  -28.9960 C.2   449  GLY449      0.2612
    128  O         81.6460  -26.6550  -29.1450 O.2   449  GLY449     -0.2717
    129  N         79.5360  -26.5880  -30.0150 N.am  450  GLY450     -0.1956
    130  CA        79.9610  -26.4340  -31.4030 C.3   450  GLY450      0.1869
    131  C         81.0600  -25.3820  -31.5660 C.2   450  GLY450      0.2309
    132  O         82.2150  -25.7080  -31.8900 O.2   450  GLY450     -0.2863
    133  N         84.3460  -26.3180  -29.8980 N.3   453  ALA453     -0.1245
    134  CA        85.0110  -27.4170  -30.6010 C.3   453  ALA453      0.1562
    135  C         85.7280  -26.9150  -31.8710 C.2   453  ALA453      0.2260
    136  O         86.8230  -27.3500  -32.2080 O.2   453  ALA453     -0.2867
    137  CB        83.9940  -28.5040  -30.9350 C.3   453  ALA453      0.0290
    138  N         80.3460  -36.0480  -34.3970 N.3   510  LEU510     -0.1245
    139  CA        80.3250  -34.6590  -33.8820 C.3   510  LEU510      0.1561
    140  C         81.1840  -33.6910  -34.7150 C.2   510  LEU510      0.2260
    141  O         80.8280  -32.5150  -34.8890 O.2   510  LEU510     -0.2867
    142  CB        80.7590  -34.5930  -32.4020 C.3   510  LEU510      0.0270
    143  CG        79.8210  -34.8600  -31.2190 C.3   510  LEU510      0.0019
    144  CD1       79.1900  -36.2590  -31.2030 C.3   510  LEU510      0.0001
    145  CD2       80.6200  -34.6380  -29.9460 C.3   510  LEU510      0.0001
    146  N         82.0800  -29.9920  -38.6850 N.3   514  LEU514     -0.1245
    147  CA        82.5700  -28.8720  -37.8510 C.3   514  LEU514      0.1561
    148  C         83.0760  -27.6250  -38.6330 C.2   514  LEU514      0.2260
    149  O         83.0460  -26.4950  -38.1150 O.2   514  LEU514     -0.2867
    150  CB        83.6460  -29.3770  -36.8760 C.3   514  LEU514      0.0270
    151  CG        84.0640  -28.5010  -35.6890 C.3   514  LEU514      0.0019
    152  CD1       82.9900  -28.5460  -34.6050 C.3   514  LEU514      0.0001
    153  CD2       85.4140  -28.9480  -35.1450 C.3   514  LEU514      0.0001
    154  N         71.7860  -19.6000  -19.8110 N.3   557  TRP557     -0.1241
    155  CA        70.7680  -18.6970  -19.3280 C.3   557  TRP557      0.1605
    156  C         70.2390  -19.1100  -17.9980 C.2   557  TRP557      0.2264
    157  O         69.3620  -18.4370  -17.4650 O.2   557  TRP557     -0.2867
    158  CB        69.6320  -18.6100  -20.3290 C.3   557  TRP557      0.0550
    159  CG        69.0100  -19.9470  -20.6410 C.ar  557  TRP557      0.0003
    160  CD1       69.2490  -20.7620  -21.7450 C.ar  557  TRP557      0.0946
    161  CD2       68.0120  -20.6710  -19.8480 C.ar  557  TRP557      0.0152
    162  NE1       68.4860  -21.8970  -21.6900 N.ar  557  TRP557     -0.2442
    163  CE2       67.7230  -21.9080  -20.5870 C.ar  557  TRP557      0.0810
    164  CE3       67.3410  -20.4240  -18.6540 C.ar  557  TRP557      0.0012
    165  CZ2       66.8220  -22.8470  -20.1230 C.ar  557  TRP557      0.0191
    166  CZ3       66.4190  -21.3810  -18.1990 C.ar  557  TRP557      0.0001
    167  CH2       66.1720  -22.5630  -18.9160 C.ar  557  TRP557      0.0015
@<TRIPOS>BOND
     1   146   147    1
     2   148   149    2
     3   148   147    1
     4   147   150    1
     5   123   122    2
     6   150   151    1
     7   115   114    2
     8   122   121    1
     9   151   153    1
    10   151   152    1
    11   121   120    1
    12   121   124    1
    13   114   120   am
    14   114   113    1
    15   141   140    2
    16   140   139    1
    17   113   112    1
    18   113   116    1
    19   138   139    1
    20   119   118    1
    21    95    94    2
    22   139   142    1
    23   118   117    1
    24   116   117    1
    25    91    90    2
    26    94    93    1
    27    94    97   am
    28    93    96    1
    29    93    92    1
    30    82    81    1
    31   142   143    1
    32   136   135    2
    33    83    81    1
    34    98    97    1
    35    98    99    1
    36    98   101    1
    37    90    92   am
    38    90    89    1
    39   132   131    2
    40   135   134    1
    41    99   100    2
    42   101   102    1
    43   131   130    1
    44    81    78    1
    45   130   129    1
    46    87    86    2
    47   143   144    1
    48   143   145    1
    49   137   134    1
    50    57    56    2
    51    89    88    1
    52   134   133    1
    53    78    79    1
    54    78    77    1
    55    86    88   am
    56    86    85    1
    57    58    55    1
    58   129   127   am
    59   103   104    1
    60    56    55    1
    61    79    84   am
    62    79    80    2
    63    18    17    1
    64    84    85    1
    65    17    14    1
    66   105   104    1
    67   105   106    2
    68   104   107    1
    69    55    54    1
    70    77    70   am
    71    71    70    2
    72   128   127    2
    73   127   126    1
    74   110   109    2
    75    70    69    1
    76    16    15    2
    77    14    15    1
    78    14    13    1
    79    15    19   am
    80    23    20    1
    81    23    24    1
    82    20    19    1
    83    20    21    1
    84    68    69    1
    85   109   108    1
    86   109   111   am
    87   107   108    1
    88    54    49   am
    89    69    72    1
    90   126   125    1
    91    22    21    2
    92    50    49    2
    93    13    11   am
    94    49    48    1
    95    66    65   ar
    96    72    73    1
    97    73    74    1
    98    11    12    2
    99    11    10    1
   100    67    65   ar
   101    65    64    1
   102    48    51    1
   103    48    47    1
   104    51    52    1
   105    51    53    1
   106    45    44    1
   107    10     9    1
   108    74    76   ar
   109    74    75   ar
   110    64    63    1
   111    63    60    1
   112    44    46    1
   113    44    43    2
   114    61    60    1
   115    61    62    2
   116    34    33    1
   117    60    59    1
   118    42    43    1
   119    42    41    1
   120    35    33    1
   121    33    32    2
   122    39    38    2
   123    40    41    1
   124    40    37    1
   125     7     6   ar
   126   160   162   ar
   127   160   159   ar
   128    38    37    1
   129   162   163   ar
   130    32    31    1
   131    37    36    1
   132     8     6   ar
   133     6     5    1
   134    31    30    1
   135   159   158    1
   136   159   161   ar
   137     4     3    2
   138   163   165   ar
   139   163   161   ar
   140     3     2    1
   141   158   155    1
   142   165   167   ar
   143   161   164   ar
   144     5     2    1
   145   154   155    1
   146    30    29    1
   147    25    26    1
   148     2     1    1
   149   155   156    1
   150    29    26    1
   151   167   166   ar
   152   164   166   ar
   153    26    27    1
   154   156   157    2
   155    28    27    2
