@<TRIPOS>MOLECULE
tmp/4a5rB00.pdb
 113 107 0 0 0
SMALL
GASTEIGER

@<TRIPOS>ATOM
      1  N         11.4080   19.6250   58.7150 N.3    40  SER40      -0.1217
      2  CA        10.0190   19.4890   58.2350 C.3    40  SER40       0.1889
      3  C          9.8520   18.9270   56.8230 C.2    40  SER40       0.2288
      4  O          8.7290   18.6210   56.4060 O.2    40  SER40      -0.2866
      5  CB         9.3000   20.8220   58.3230 C.3    40  SER40       0.2089
      6  OG         9.0430   21.1790   59.6600 O.3    40  SER40      -0.2183
      7  N          7.7680   15.8870   56.2830 N.3    43  LYS43      -0.1245
      8  CA         6.3040   15.9540   56.2440 C.3    43  LYS43       0.1561
      9  C          5.7580   15.5440   54.8660 C.2    43  LYS43       0.2260
     10  O          4.7030   14.9120   54.7650 O.2    43  LYS43      -0.2867
     11  CB         5.8140   17.3590   56.6440 C.3    43  LYS43       0.0271
     12  CG         6.0340   17.6760   58.1280 C.3    43  LYS43       0.0035
     13  CD         5.6420   19.0860   58.4980 C.3    43  LYS43       0.0206
     14  CE         5.8410   19.3130   59.9880 C.3    43  LYS43       0.1093
     15  NZ         6.2620   20.6910   60.2940 N.3    43  LYS43      -0.1314
     16  N          4.2310   22.4080   69.7790 N.3    72  ASN72      -0.1225
     17  CA         4.7300   23.7900   69.8210 C.3    72  ASN72       0.1785
     18  C          4.2450   24.7120   68.7040 C.2    72  ASN72       0.2597
     19  O          4.3190   25.9340   68.8430 O.2    72  ASN72      -0.2718
     20  CB         6.2600   23.8120   69.8280 C.3    72  ASN72       0.1169
     21  CG         6.8530   23.3190   68.5130 C.2    72  ASN72       0.2627
     22  OD1        6.4070   22.3100   67.9600 O.2    72  ASN72      -0.2716
     23  ND2        7.8520   24.0360   68.0010 N.am   72  ASN72      -0.0877
     24  N          3.7810   24.1440   67.5940 N.am   73  TYR73      -0.1976
     25  CA         3.3410   24.9580   66.4580 C.3    73  TYR73       0.1639
     26  C          2.1350   24.3390   65.7540 C.2    73  TYR73       0.2290
     27  O          2.2660   23.3450   65.0280 O.2    73  TYR73      -0.2864
     28  CB         4.4980   25.2090   65.4790 C.3    73  TYR73       0.0560
     29  CG         4.1450   26.1700   64.3700 C.ar   73  TYR73      -0.0198
     30  CD1        3.8820   27.5170   64.6450 C.ar   73  TYR73      -0.0009
     31  CD2        4.0630   25.7370   63.0450 C.ar   73  TYR73      -0.0009
     32  CE1        3.5400   28.4060   63.6240 C.ar   73  TYR73       0.0417
     33  CE2        3.7280   26.6190   62.0210 C.ar   73  TYR73       0.0417
     34  CZ         3.4650   27.9480   62.3190 C.ar   73  TYR73       0.1957
     35  OH         3.1310   28.8200   61.3110 O.3    73  TYR73      -0.2866
     36  N          3.0770   23.5740   57.5370 N.3    98  SER98      -0.1217
     37  CA         4.0390   22.8570   58.3790 C.3    98  SER98       0.1889
     38  C          3.5560   22.7490   59.8320 C.2    98  SER98       0.2288
     39  O          4.3520   22.8400   60.7760 O.2    98  SER98      -0.2866
     40  CB         5.4320   23.4880   58.2970 C.3    98  SER98       0.2089
     41  OG         6.4360   22.5580   58.6640 O.3    98  SER98      -0.2183
     42  N          2.8000   21.1730   63.0880 N.3   100  ASN100     -0.1240
     43  CA         3.5550   20.1080   63.7620 C.3   100  ASN100      0.1653
     44  C          2.6870   19.0090   64.3530 C.2   100  ASN100      0.2266
     45  O          3.0510   17.8360   64.3160 O.2   100  ASN100     -0.2867
     46  CB         4.4710   20.6980   64.8410 C.3   100  ASN100      0.1155
     47  CG         5.8450   21.1100   64.2960 C.2   100  ASN100      0.2627
     48  OD1        6.1880   20.8370   63.1410 O.2   100  ASN100     -0.2716
     49  ND2        6.6320   21.7670   65.1310 N.am  100  ASN100     -0.0877
     50  N          7.6180   15.5150   65.9030 N.3   134  GLU134     -0.1231
     51  CA         7.8650   16.9700   65.9270 C.3   134  GLU134      0.1684
     52  C          7.5740   17.4830   67.3290 C.2   134  GLU134      0.2434
     53  O          6.6220   16.9990   67.9590 O.2   134  GLU134     -0.2733
     54  CB         6.9470   17.7180   64.9260 C.3   134  GLU134      0.0402
     55  CG         7.2240   17.5080   63.4200 C.3   134  GLU134      0.1161
     56  CD         8.4150   18.3120   62.8720 C.2   134  GLU134      0.3649
     57  OE1        9.1750   18.9300   63.6500 O.co2 134  GLU134     -0.2457
     58  OE2        8.5970   18.3220   61.6360 O.co2 134  GLU134     -0.2457
     59  N          8.3480   18.4890   67.8230 N.am  135  PRO135     -0.2729
     60  CA         9.4510   19.2160   67.2020 C.3   135  PRO135      0.1401
     61  C         10.8350   18.6390   67.5290 C.2   135  PRO135      0.2269
     62  O         11.8450   19.1800   67.0810 O.2   135  PRO135     -0.2865
     63  CB         9.3140   20.6020   67.8210 C.3   135  PRO135      0.0296
     64  CG         8.8870   20.3180   69.2370 C.3   135  PRO135      0.0237
     65  CD         8.0350   19.0490   69.1550 C.3   135  PRO135      0.0939
     66  N         13.6700   17.9440   64.9400 N.3   138  ASN138     -0.1225
     67  CA        14.3560   19.0950   64.3290 C.3   138  ASN138      0.1785
     68  C         15.7440   19.3770   64.9260 C.2   138  ASN138      0.2597
     69  O         16.5190   20.1520   64.3400 O.2   138  ASN138     -0.2718
     70  CB        13.5060   20.3890   64.3980 C.3   138  ASN138      0.1169
     71  CG        12.1240   20.2780   63.7050 C.2   138  ASN138      0.2627
     72  OD1       11.9180   19.5190   62.7450 O.2   138  ASN138     -0.2716
     73  ND2       11.1780   21.0780   64.1870 N.am  138  ASN138     -0.0877
     74  N         16.0390   18.7700   66.0830 N.am  139  GLU139     -0.1979
     75  CA        17.2870   18.9840   66.8300 C.3   139  GLU139      0.1602
     76  C         18.2820   17.8290   66.6460 C.2   139  GLU139      0.2287
     77  O         18.1580   16.7730   67.2830 O.2   139  GLU139     -0.2864
     78  CB        16.9970   19.1560   68.3340 C.3   139  GLU139      0.0415
     79  CG        16.0630   20.3130   68.7130 C.3   139  GLU139      0.1163
     80  CD        16.7920   21.5860   69.1780 C.2   139  GLU139      0.3649
     81  OE1       17.9800   21.5150   69.5830 O.co2 139  GLU139     -0.2457
     82  OE2       16.1580   22.6690   69.1560 O.co2 139  GLU139     -0.2457
     83  N         12.0660   23.2230   55.3600 N.3   204  GLY204     -0.1210
     84  CA        12.4840   22.7530   56.6690 C.3   204  GLY204      0.1956
     85  C         13.3470   23.7850   57.3620 C.2   204  GLY204      0.2612
     86  O         14.0940   24.5200   56.6990 O.2   204  GLY204     -0.2717
     87  N         13.2220   23.8520   58.6910 N.am  205  ALA205     -0.1965
     88  CA        14.1060   24.6600   59.5510 C.3   205  ALA205      0.1728
     89  C         14.4440   23.8590   60.8110 C.2   205  ALA205      0.2617
     90  O         13.5590   23.2560   61.4030 O.2   205  ALA205     -0.2715
     91  CB        13.4500   25.9710   59.9290 C.3   205  ALA205      0.0334
     92  N         15.7150   23.8630   61.2230 N.am  206  GLY206     -0.1940
     93  CA        16.1610   23.0500   62.3750 C.3   206  GLY206      0.2014
     94  C         17.3740   23.6130   63.0990 C.2   206  GLY206      0.2639
     95  O         17.8380   24.6850   62.7630 O.2   206  GLY206     -0.2714
     96  N         17.9090   22.8670   64.0690 N.am  207  SER207     -0.1949
     97  CA        19.0470   23.3240   64.8780 C.3   207  SER207      0.1924
     98  C         20.3330   23.3990   64.0550 C.2   207  SER207      0.2314
     99  O         20.4030   22.8490   62.9530 O.2   207  SER207     -0.2863
    100  CB        19.2480   22.4140   66.1030 C.3   207  SER207      0.2116
    101  OG        19.6600   21.1040   65.7150 O.3   207  SER207     -0.2180
    102  N         19.8650   31.0010   60.2480 N.3   240  TYR240     -0.1241
    103  CA        19.8980   30.7310   58.8180 C.3   240  TYR240      0.1605
    104  C         19.5060   31.9850   58.0080 C.2   240  TYR240      0.2264
    105  O         18.9240   32.9310   58.5420 O.2   240  TYR240     -0.2867
    106  CB        19.0190   29.5180   58.4640 C.3   240  TYR240      0.0534
    107  CG        17.5390   29.6880   58.7770 C.ar  240  TYR240     -0.0201
    108  CD1       16.7310   30.5240   58.0020 C.ar  240  TYR240     -0.0009
    109  CD2       16.9460   29.0060   59.8430 C.ar  240  TYR240     -0.0009
    110  CE1       15.3650   30.6870   58.2820 C.ar  240  TYR240      0.0417
    111  CE2       15.5730   29.1580   60.1330 C.ar  240  TYR240      0.0417
    112  CZ        14.7990   29.9940   59.3410 C.ar  240  TYR240      0.1957
    113  OH        13.4640   30.1490   59.6070 O.3   240  TYR240     -0.2866
@<TRIPOS>BOND
     1    10     9    2
     2     9     8    1
     3    83    84    1
     4     8     7    1
     5     8    11    1
     6     4     3    2
     7    11    12    1
     8    84    85    1
     9    86    85    2
    10     3     2    1
    11    85    87   am
    12    36    37    1
    13   108   110   ar
    14   108   107   ar
    15   104   105    2
    16   104   103    1
    17    12    13    1
    18     2     5    1
    19     2     1    1
    20   110   112   ar
    21    40    37    1
    22    40    41    1
    23     5     6    1
    24    37    38    1
    25   106   107    1
    26   106   103    1
    27    13    14    1
    28    87    88    1
    29   107   109   ar
    30   103   102    1
    31   112   113    1
    32   112   111   ar
    33    88    91    1
    34    88    89    1
    35    38    39    2
    36   109   111   ar
    37    14    15    1
    38    89    92   am
    39    89    90    2
    40    92    93    1
    41    35    34    1
    42    58    56   ar
    43    33    34   ar
    44    33    31   ar
    45    34    32   ar
    46    93    94    1
    47    72    71    2
    48    95    94    2
    49    56    55    1
    50    56    57   ar
    51    99    98    2
    52    31    29   ar
    53    42    43    1
    54    94    96   am
    55    48    47    2
    56    55    54    1
    57    32    30   ar
    58    71    73   am
    59    71    70    1
    60    43    44    1
    61    43    46    1
    62    98    97    1
    63    96    97    1
    64    47    46    1
    65    47    49   am
    66    45    44    2
    67    67    70    1
    68    67    68    1
    69    67    66    1
    70    69    68    2
    71    29    30   ar
    72    29    28    1
    73    97   100    1
    74    68    74   am
    75    54    51    1
    76    27    26    2
    77    28    25    1
    78   101   100    1
    79    26    25    1
    80    50    51    1
    81    51    52    1
    82    74    75    1
    83    25    24    1
    84    76    75    1
    85    76    77    2
    86    75    78    1
    87    62    61    2
    88    60    61    1
    89    60    63    1
    90    60    59    1
    91    52    59   am
    92    52    53    2
    93    24    18   am
    94    63    64    1
    95    59    65    1
    96    22    21    2
    97    23    21   am
    98    78    79    1
    99    21    20    1
   100    18    19    2
   101    18    17    1
   102    79    80    1
   103    65    64    1
   104    82    80   ar
   105    80    81   ar
   106    16    17    1
   107    17    20    1
