@<TRIPOS>MOLECULE
tmp/4a5sB00.pdb
 219 218 0 0 0
SMALL
GASTEIGER

@<TRIPOS>ATOM
      1  N         36.6000   63.0160   77.2580 N.3    86  ARG86      -0.1245
      2  CA        36.2130   64.4250   77.3280 C.3    86  ARG86       0.1563
      3  C         37.3920   65.3950   77.1450 C.2    86  ARG86       0.2260
      4  O         37.2590   66.4360   76.4820 O.2    86  ARG86      -0.2867
      5  CB        35.4690   64.7020   78.6460 C.3    86  ARG86       0.0307
      6  CG        34.9030   66.1130   78.7230 C.3    86  ARG86       0.0489
      7  CD        34.3660   66.4080   80.1150 C.3    86  ARG86       0.2205
      8  NE        33.2650   65.5240   80.5330 N.pl3  86  ARG86      -0.0865
      9  CZ        31.9750   65.8350   80.4490 C.cat  86  ARG86       0.5346
     10  NH1       31.5930   66.9680   79.8630 N.pl3  86  ARG86       0.1354
     11  NH2       31.0530   65.0140   80.9460 N.pl3  86  ARG86       0.1354
     12  N         37.6380   61.8880   83.9560 N.3   166  GLU166     -0.1231
     13  CA        36.2980   62.4360   83.9590 C.3   166  GLU166      0.1699
     14  C         35.8830   63.0320   85.3010 C.2   166  GLU166      0.2592
     15  O         35.1990   64.0650   85.3420 O.2   166  GLU166     -0.2718
     16  CB        35.3320   61.2990   83.5950 C.3   166  GLU166      0.0402
     17  CG        33.8360   61.6630   83.6430 C.3   166  GLU166      0.1161
     18  CD        33.3490   62.7030   82.6540 C.2   166  GLU166      0.3649
     19  OE1       34.1180   63.0750   81.7370 O.co2 166  GLU166     -0.2457
     20  OE2       32.1900   63.1540   82.8020 O.co2 166  GLU166     -0.2457
     21  N         36.2470   62.3160   86.3820 N.am  167  GLU167     -0.1979
     22  CA        35.7020   62.5820   87.7040 C.3   167  GLU167      0.1602
     23  C         36.5570   63.2580   88.7330 C.2   167  GLU167      0.2287
     24  O         36.0040   63.7350   89.7460 O.2   167  GLU167     -0.2864
     25  CB        35.1820   61.2630   88.3010 C.3   167  GLU167      0.0415
     26  CG        34.0780   60.5750   87.4870 C.3   167  GLU167      0.1163
     27  CD        32.7920   61.3380   87.1930 C.2   167  GLU167      0.3649
     28  OE1       32.5890   62.4290   87.7670 O.co2 167  GLU167     -0.2457
     29  OE2       31.9500   60.8180   86.4210 O.co2 167  GLU167     -0.2457
     30  N         32.4210   69.1720   94.1290 N.3   318  PHE318     -0.1241
     31  CA        32.6170   67.9100   93.4130 C.3   318  PHE318      0.1605
     32  C         33.8660   67.2200   93.9350 C.2   318  PHE318      0.2264
     33  O         34.0780   66.0390   93.6900 O.2   318  PHE318     -0.2867
     34  CB        32.7420   68.1550   91.9010 C.3   318  PHE318      0.0534
     35  CG        31.4670   68.6280   91.2570 C.ar  318  PHE318     -0.0203
     36  CD1       31.1300   69.9790   91.2470 C.ar  318  PHE318     -0.0042
     37  CD2       30.5770   67.7150   90.6890 C.ar  318  PHE318     -0.0042
     38  CE1       29.9320   70.4190   90.6530 C.ar  318  PHE318     -0.0003
     39  CE2       29.3790   68.1460   90.1060 C.ar  318  PHE318     -0.0003
     40  CZ        29.0710   69.4980   90.0710 C.ar  318  PHE318     -0.0000
     41  N         13.4310   72.4050   80.9290 N.3   506  ASP506     -0.1225
     42  CA        14.8030   71.9760   80.5490 C.3   506  ASP506      0.1805
     43  C         15.4550   71.6630   81.8980 C.2   506  ASP506      0.2598
     44  O         15.6040   72.5720   82.7380 O.2   506  ASP506     -0.2718
     45  CB        15.4400   73.1640   79.8180 C.3   506  ASP506      0.1424
     46  CG        16.9200   73.0710   79.5330 C.2   506  ASP506      0.3668
     47  OD1       17.5750   72.2560   80.1490 O.co2 506  ASP506     -0.2456
     48  OD2       17.4230   73.9080   78.7590 O.co2 506  ASP506     -0.2456
     49  N         15.8340   70.3970   82.1170 N.am  507  VAL507     -0.1966
     50  CA        16.3430   69.9440   83.4040 C.3   507  VAL507      0.1727
     51  C         17.7620   69.3970   83.4200 C.2   507  VAL507      0.2616
     52  O         18.1470   68.6110   82.5440 O.2   507  VAL507     -0.2715
     53  CB        15.3330   68.9470   84.0550 C.3   507  VAL507      0.0290
     54  CG1       15.0950   67.7100   83.1920 C.3   507  VAL507      0.0023
     55  CG2       15.7450   68.5440   85.4600 C.3   507  VAL507      0.0023
     56  N         18.5120   69.7340   84.4950 N.am  508  TYR508     -0.1974
     57  CA        19.7980   69.1270   84.7960 C.3   508  TYR508      0.1639
     58  C         19.4820   68.4910   86.1670 C.2   508  TYR508      0.2290
     59  O         19.2170   67.3000   86.2630 O.2   508  TYR508     -0.2864
     60  CB        20.9290   70.1380   84.8790 C.3   508  TYR508      0.0560
     61  CG        22.2850   69.6800   85.3860 C.ar  508  TYR508     -0.0198
     62  CD1       22.4880   68.3780   85.8430 C.ar  508  TYR508     -0.0009
     63  CD2       23.3480   70.5760   85.4780 C.ar  508  TYR508     -0.0009
     64  CE1       23.7050   67.9870   86.3970 C.ar  508  TYR508      0.0417
     65  CE2       24.5870   70.1820   85.9760 C.ar  508  TYR508      0.0417
     66  CZ        24.7570   68.8970   86.4520 C.ar  508  TYR508      0.1957
     67  OH        25.9680   68.5170   86.9440 O.3   508  TYR508     -0.2866
     68  N         20.7890   75.7330   86.9380 N.3   515  LYS515     -0.1245
     69  CA        20.1760   76.0150   85.6430 C.3   515  LYS515      0.1561
     70  C         19.4530   77.3550   85.5950 C.2   515  LYS515      0.2260
     71  O         18.9620   77.7490   84.5290 O.2   515  LYS515     -0.2867
     72  CB        19.2120   74.8670   85.2810 C.3   515  LYS515      0.0271
     73  CG        19.9450   73.5770   84.9520 C.3   515  LYS515      0.0035
     74  CD        20.4840   73.6500   83.5290 C.3   515  LYS515      0.0206
     75  CE        19.4460   73.1610   82.5250 C.3   515  LYS515      0.1093
     76  NZ        19.9770   73.1520   81.1220 N.3   515  LYS515     -0.1314
     77  N         12.5910   67.9160   79.3250 N.3   588  TRP588     -0.1227
     78  CA        13.6830   67.2340   78.6340 C.3   588  TRP588      0.1737
     79  C         14.9790   67.4620   79.3440 C.2   588  TRP588      0.2596
     80  O         15.1620   68.4510   80.0370 O.2   588  TRP588     -0.2718
     81  CB        13.7980   67.6550   77.1600 C.3   588  TRP588      0.0564
     82  CG        14.7440   68.7750   76.8670 C.ar  588  TRP588      0.0003
     83  CD1       14.5680   70.1040   77.1460 C.ar  588  TRP588      0.0946
     84  CD2       16.0580   68.6510   76.2970 C.ar  588  TRP588      0.0152
     85  NE1       15.6560   70.8280   76.7000 N.ar  588  TRP588     -0.2442
     86  CE2       16.5850   69.9560   76.1720 C.ar  588  TRP588      0.0810
     87  CE3       16.7820   67.5700   75.7500 C.ar  588  TRP588      0.0012
     88  CZ2       17.8340   70.2050   75.5900 C.ar  588  TRP588      0.0191
     89  CZ3       18.0290   67.8120   75.2020 C.ar  588  TRP588      0.0001
     90  CH2       18.5380   69.1170   75.1110 C.ar  588  TRP588      0.0015
     91  N         15.9180   66.5790   79.0960 N.am  589  GLY589     -0.1942
     92  CA        17.2510   66.7690   79.6320 C.3   589  GLY589      0.2014
     93  C         18.1960   65.7370   79.0680 C.2   589  GLY589      0.2639
     94  O         17.7750   64.6970   78.5490 O.2   589  GLY589     -0.2714
     95  N         19.4690   66.0170   79.2420 N.am  590  TRP590     -0.1959
     96  CA        20.5670   65.1660   78.7910 C.3   590  TRP590      0.1771
     97  C         21.3460   64.7160   80.0280 C.2   590  TRP590      0.2620
     98  O         21.4040   65.4720   81.0170 O.2   590  TRP590     -0.2715
     99  CB        21.4750   66.0450   77.9250 C.3   590  TRP590      0.0590
    100  CG        22.3480   65.3740   76.8880 C.ar  590  TRP590      0.0006
    101  CD1       23.3290   64.4420   77.0870 C.ar  590  TRP590      0.0946
    102  CD2       22.4130   65.7390   75.4980 C.ar  590  TRP590      0.0152
    103  NE1       23.9950   64.1970   75.8970 N.ar  590  TRP590     -0.2442
    104  CE2       23.4500   64.9780   74.9100 C.ar  590  TRP590      0.0810
    105  CE3       21.7000   66.6540   74.7000 C.ar  590  TRP590      0.0012
    106  CZ2       23.7770   65.0940   73.5410 C.ar  590  TRP590      0.0191
    107  CZ3       21.9870   66.7230   73.3400 C.ar  590  TRP590      0.0001
    108  CH2       23.0340   65.9670   72.7870 C.ar  590  TRP590      0.0015
    109  N         21.9200   63.4950   80.0180 N.am  591  SER591     -0.1936
    110  CA        22.8120   63.0210   81.0920 C.3   591  SER591      0.2055
    111  C         22.0360   62.9060   82.4160 C.2   591  SER591      0.2643
    112  O         21.0180   62.2100   82.4520 O.2   591  SER591     -0.2714
    113  CB        24.0270   63.9560   81.2480 C.3   591  SER591      0.2130
    114  OG        24.6650   64.2310   80.0050 O.3   591  SER591     -0.2179
    115  N         22.4670   63.6200   83.4790 N.am  592  TYR592     -0.1973
    116  CA        21.6790   63.5700   84.7160 C.3   592  TYR592      0.1639
    117  C         20.2730   64.1030   84.4430 C.2   592  TYR592      0.2290
    118  O         19.3180   63.5860   85.0130 O.2   592  TYR592     -0.2864
    119  CB        22.3520   64.4170   85.8200 C.3   592  TYR592      0.0560
    120  CG        21.8740   64.0440   87.2050 C.ar  592  TYR592     -0.0198
    121  CD1       20.6330   64.4790   87.6770 C.ar  592  TYR592     -0.0009
    122  CD2       22.6590   63.2610   88.0470 C.ar  592  TYR592     -0.0009
    123  CE1       20.1580   64.0810   88.9320 C.ar  592  TYR592      0.0417
    124  CE2       22.2170   62.9020   89.3240 C.ar  592  TYR592      0.0417
    125  CZ        20.9510   63.2920   89.7440 C.ar  592  TYR592      0.1957
    126  OH        20.5220   62.9630   91.0160 O.3   592  TYR592     -0.2866
    127  N         21.2300   58.4270   82.5520 N.3   617  VAL617     -0.1245
    128  CA        21.5090   57.3820   83.5110 C.3   617  VAL617      0.1561
    129  C         20.1210   56.7410   83.7900 C.2   617  VAL617      0.2260
    130  O         19.0970   57.4480   83.8460 O.2   617  VAL617     -0.2867
    131  CB        22.0700   58.0050   84.8070 C.3   617  VAL617      0.0252
    132  CG1       22.0330   57.0080   85.9760 C.3   617  VAL617      0.0019
    133  CG2       23.5130   58.5040   84.5570 C.3   617  VAL617      0.0019
    134  N         21.8530   53.5910   89.0460 N.3   620  TRP620     -0.1241
    135  CA        23.1630   54.0470   89.5250 C.3   620  TRP620      0.1605
    136  C         24.2830   53.0370   89.5020 C.2   620  TRP620      0.2264
    137  O         25.4550   53.4280   89.3610 O.2   620  TRP620     -0.2867
    138  CB        23.0200   54.8400   90.8530 C.3   620  TRP620      0.0550
    139  CG        22.3470   56.1550   90.6110 C.ar  620  TRP620      0.0003
    140  CD1       21.0700   56.5080   90.9470 C.ar  620  TRP620      0.0946
    141  CD2       22.8690   57.2350   89.8220 C.ar  620  TRP620      0.0152
    142  NE1       20.7730   57.7510   90.4420 N.ar  620  TRP620     -0.2442
    143  CE2       21.8750   58.2350   89.7690 C.ar  620  TRP620      0.0810
    144  CE3       24.1310   57.4920   89.2290 C.ar  620  TRP620      0.0012
    145  CZ2       22.0600   59.4460   89.0860 C.ar  620  TRP620      0.0191
    146  CZ3       24.3230   58.6990   88.5730 C.ar  620  TRP620      0.0001
    147  CH2       23.2920   59.6540   88.4850 C.ar  620  TRP620      0.0015
    148  N         26.5830   53.5650   86.5030 N.3   623  TYR623     -0.1241
    149  CA        27.4560   54.7210   86.3400 C.3   623  TYR623      0.1605
    150  C         28.7650   54.5720   87.1150 C.2   623  TYR623      0.2264
    151  O         28.9330   53.5990   87.8520 O.2   623  TYR623     -0.2867
    152  CB        26.7010   56.0320   86.6400 C.3   623  TYR623      0.0534
    153  CG        27.3730   57.2300   86.0080 C.ar  623  TYR623     -0.0201
    154  CD1       27.6190   57.2710   84.6380 C.ar  623  TYR623     -0.0009
    155  CD2       27.8670   58.2750   86.7920 C.ar  623  TYR623     -0.0009
    156  CE1       28.2990   58.3320   84.0570 C.ar  623  TYR623      0.0417
    157  CE2       28.5340   59.3580   86.2160 C.ar  623  TYR623      0.0417
    158  CZ        28.7650   59.3700   84.8440 C.ar  623  TYR623      0.1957
    159  OH        29.4170   60.4150   84.2340 O.3   623  TYR623     -0.2866
    160  N         31.8090   59.4330   90.7480 N.3   627  TYR627     -0.1241
    161  CA        30.6510   60.3080   90.7990 C.3   627  TYR627      0.1605
    162  C         29.5400   59.6550   91.6140 C.2   627  TYR627      0.2264
    163  O         29.0050   60.2830   92.5320 O.2   627  TYR627     -0.2867
    164  CB        30.1240   60.5720   89.3630 C.3   627  TYR627      0.0534
    165  CG        28.9660   61.5390   89.3260 C.ar  627  TYR627     -0.0201
    166  CD1       29.1780   62.9100   89.1900 C.ar  627  TYR627     -0.0009
    167  CD2       27.6430   61.0830   89.3920 C.ar  627  TYR627     -0.0009
    168  CE1       28.1130   63.8070   89.1290 C.ar  627  TYR627      0.0417
    169  CE2       26.5720   61.9720   89.3470 C.ar  627  TYR627      0.0417
    170  CZ        26.8080   63.3330   89.2060 C.ar  627  TYR627      0.1957
    171  OH        25.7670   64.2130   89.0950 O.3   627  TYR627     -0.2866
    172  N         30.0120   59.2140   95.4720 N.3   630  ARG630     -0.1245
    173  CA        30.1220   60.5050   96.1680 C.3   630  ARG630      0.1563
    174  C         28.7640   60.8450   96.8100 C.2   630  ARG630      0.2260
    175  O         28.7120   61.3250   97.9640 O.2   630  ARG630     -0.2867
    176  CB        30.4940   61.5790   95.1610 C.3   630  ARG630      0.0307
    177  CG        30.7730   62.9440   95.8100 C.3   630  ARG630      0.0489
    178  CD        31.1050   63.9990   94.7650 C.3   630  ARG630      0.2205
    179  NE        32.3100   63.6130   94.0220 N.pl3 630  ARG630     -0.0865
    180  CZ        32.4760   63.7650   92.7080 C.cat 630  ARG630      0.5346
    181  NH1       31.5030   64.2850   91.9620 N.pl3 630  ARG630      0.1354
    182  NH2       33.6170   63.4080   92.1370 N.pl3 630  ARG630      0.1354
    183  N         30.7870   57.1300   78.4870 N.3   671  ASN671     -0.1225
    184  CA        30.5080   57.8140   79.7450 C.3   671  ASN671      0.1785
    185  C         29.2210   57.2390   80.3520 C.2   671  ASN671      0.2597
    186  O         29.3050   56.5270   81.3560 O.2   671  ASN671     -0.2718
    187  CB        30.4300   59.3100   79.4740 C.3   671  ASN671      0.1169
    188  CG        30.4170   60.1420   80.7350 C.2   671  ASN671      0.2627
    189  OD1       30.0500   59.6690   81.8030 O.2   671  ASN671     -0.2716
    190  ND2       30.9460   61.3340   80.6450 N.am  671  ASN671     -0.0877
    191  N         28.0650   57.5060   79.7420 N.am  672  VAL672     -0.1980
    192  CA        26.8050   56.9040   80.1820 C.3   672  VAL672      0.1595
    193  C         26.6220   55.8170   79.1240 C.2   672  VAL672      0.2287
    194  O         26.2760   56.1130   77.9840 O.2   672  VAL672     -0.2864
    195  CB        25.6290   57.8940   80.1960 C.3   672  VAL672      0.0276
    196  CG1       24.3270   57.1610   80.5140 C.3   672  VAL672      0.0022
    197  CG2       25.8700   59.0130   81.2340 C.3   672  VAL672      0.0022
    198  N         28.9890   60.5930   74.3610 N.3   701  HIS701     -0.1241
    199  CA        28.0820   61.3210   75.2560 C.3   701  HIS701      0.1621
    200  C         27.6900   62.7080   74.7360 C.2   701  HIS701      0.2264
    201  O         26.6390   63.2200   75.1010 O.2   701  HIS701     -0.2867
    202  CB        28.6610   61.4040   76.6930 C.3   701  HIS701      0.0745
    203  CG        27.6070   61.6230   77.7310 C.ar  701  HIS701      0.0817
    204  ND1       26.5360   60.7530   77.8560 N.ar  701  HIS701     -0.2268
    205  CD2       27.4880   62.6060   78.6530 C.ar  701  HIS701      0.1154
    206  CE1       25.7800   61.2470   78.8340 C.ar  701  HIS701      0.1986
    207  NE2       26.3410   62.3260   79.3780 N.ar  701  HIS701     -0.2212
    208  N         18.9570   67.6490   67.0720 N.3   713  TYR713     -0.1241
    209  CA        18.0780   68.7970   67.3430 C.3   713  TYR713      0.1605
    210  C         16.9100   68.9070   66.3790 C.2   713  TYR713      0.2264
    211  O         15.8030   69.2790   66.7920 O.2   713  TYR713     -0.2867
    212  CB        18.8850   70.1010   67.4600 C.3   713  TYR713      0.0534
    213  CG        19.5460   70.1650   68.8150 C.ar  713  TYR713     -0.0201
    214  CD1       18.8270   70.5450   69.9460 C.ar  713  TYR713     -0.0009
    215  CD2       20.8770   69.7950   68.9800 C.ar  713  TYR713     -0.0009
    216  CE1       19.4260   70.5930   71.2030 C.ar  713  TYR713      0.0417
    217  CE2       21.4710   69.7690   70.2510 C.ar  713  TYR713      0.0417
    218  CZ        20.7520   70.2260   71.3500 C.ar  713  TYR713      0.1957
    219  OH        21.3210   70.2760   72.6010 O.3   713  TYR713     -0.2866
@<TRIPOS>BOND
     1   210   211    2
     2   210   209    1
     3   208   209    1
     4   209   212    1
     5   212   213    1
     6   213   215   ar
     7   213   214   ar
     8   215   217   ar
     9   214   216   ar
    10   217   218   ar
    11   216   218   ar
    12   218   219    1
    13   108   107   ar
    14   108   106   ar
    15   107   105   ar
    16   106   104   ar
    17   198   199    1
    18   105   102   ar
    19   200   201    2
    20   200   199    1
    21   104   102   ar
    22   104   103   ar
    23    90    89   ar
    24    90    88   ar
    25    89    87   ar
    26   199   202    1
    27   102   100   ar
    28    88    86   ar
    29    87    84   ar
    30   103   101   ar
    31    86    84   ar
    32    86    85   ar
    33    84    82   ar
    34     4     3    2
    35   202   203    1
    36    85    83   ar
    37    82    83   ar
    38    82    81    1
    39   100   101   ar
    40   100    99    1
    41     3     2    1
    42    81    78    1
    43     1     2    1
    44     2     5    1
    45   203   204   ar
    46   203   205   ar
    47   204   206   ar
    48    99    96    1
    49   194   193    2
    50   183   184    1
    51    94    93    2
    52    78    77    1
    53    78    79    1
    54     5     6    1
    55   205   207   ar
    56     6     7    1
    57    48    46   ar
    58    96    95    1
    59    96    97    1
    60   206   207   ar
    61    93    95   am
    62    93    92    1
    63    91    79   am
    64    91    92    1
    65   193   192    1
    66    79    80    2
    67   187   184    1
    68   187   188    1
    69    46    45    1
    70    46    47   ar
    71   191   192    1
    72   191   185   am
    73   184   185    1
    74    45    42    1
    75    10     9    1
    76   114   113    1
    77   109    97   am
    78   109   110    1
    79    97    98    2
    80     7     8    1
    81   192   195    1
    82   195   196    1
    83   195   197    1
    84   185   186    2
    85     9     8    2
    86     9    11    1
    87    42    41    1
    88    42    43    1
    89   190   188   am
    90   188   189    2
    91   110   113    1
    92   110   111    1
    93    76    75    1
    94    19    18   ar
    95    43    49   am
    96    43    44    2
    97    49    50    1
    98   111   112    2
    99   111   115   am
   100    75    74    1
   101    52    51    2
   102   127   128    1
   103    18    20   ar
   104    18    17    1
   105    54    53    1
   106    50    51    1
   107    50    53    1
   108    51    56   am
   109   115   116    1
   110   128   129    1
   111   128   131    1
   112    74    73    1
   113    16    17    1
   114    16    13    1
   115   129   130    2
   116    12    13    1
   117    13    14    1
   118    53    55    1
   119   156   154   ar
   120   156   158   ar
   121   159   158    1
   122   117   116    1
   123   117   118    2
   124    56    57    1
   125    71    70    2
   126   133   131    1
   127   154   153   ar
   128   116   119    1
   129    57    60    1
   130    57    58    1
   131   131   132    1
   132   158   157   ar
   133    60    61    1
   134    73    72    1
   135    72    69    1
   136    14    15    2
   137    14    21   am
   138    61    63   ar
   139    61    62   ar
   140    63    65   ar
   141    70    69    1
   142    69    68    1
   143   119   120    1
   144    62    64   ar
   145    65    66   ar
   146   153   152    1
   147   153   155   ar
   148    58    59    2
   149   157   155   ar
   150   149   148    1
   151   149   152    1
   152   149   150    1
   153    21    22    1
   154    64    66   ar
   155    29    27   ar
   156    66    67    1
   157   150   151    2
   158    27    26    1
   159    27    28   ar
   160   120   121   ar
   161   120   122   ar
   162    26    25    1
   163   121   123   ar
   164    22    25    1
   165    22    23    1
   166   122   124   ar
   167   147   146   ar
   168   147   145   ar
   169   146   144   ar
   170    23    24    2
   171   123   125   ar
   172   134   135    1
   173   145   143   ar
   174   171   170    1
   175   168   166   ar
   176   168   170   ar
   177   166   165   ar
   178   170   169   ar
   179   144   141   ar
   180   124   125   ar
   181   165   164    1
   182   165   167   ar
   183   169   167   ar
   184   137   136    2
   185   164   161    1
   186   136   135    1
   187   135   138    1
   188   125   126    1
   189   143   141   ar
   190   143   142   ar
   191   141   139   ar
   192    40    39   ar
   193    40    38   ar
   194    39    37   ar
   195   142   140   ar
   196   139   138    1
   197   139   140   ar
   198    38    36   ar
   199    37    35   ar
   200   160   161    1
   201   161   162    1
   202    36    35   ar
   203    35    34    1
   204   162   163    2
   205    34    31    1
   206   181   180    1
   207   182   180    1
   208   180   179    2
   209    31    32    1
   210    31    30    1
   211    33    32    2
   212   179   178    1
   213   178   177    1
   214   176   177    1
   215   176   173    1
   216   172   173    1
   217   173   174    1
   218   174   175    2
