@<TRIPOS>MOLECULE
tmp/4a5tA00.pdb
 87 84 0 0 0
SMALL
GASTEIGER

@<TRIPOS>ATOM
      1  N         -5.4520   23.3890  -29.4790 N.3   341  GLU341     -0.1231
      2  CA        -6.6590   23.6030  -28.6550 C.3   341  GLU341      0.1699
      3  C         -6.3930   23.1390  -27.2020 C.2   341  GLU341      0.2592
      4  O         -7.3200   23.0580  -26.3930 O.2   341  GLU341     -0.2718
      5  CB        -7.9360   22.9660  -29.2650 C.3   341  GLU341      0.0402
      6  CG        -8.3350   23.5220  -30.6260 C.3   341  GLU341      0.1161
      7  CD        -8.9800   22.5230  -31.5710 C.2   341  GLU341      0.3649
      8  OE1       -8.2830   21.5760  -32.0020 O.co2 341  GLU341     -0.2457
      9  OE2      -10.1760   22.7000  -31.8980 O.co2 341  GLU341     -0.2457
     10  N         -5.0970   22.8870  -26.8770 N.am  342  GLN342     -0.1979
     11  CA        -4.5940   22.4220  -25.5790 C.3   342  GLN342      0.1601
     12  C         -3.6560   23.4530  -24.9110 C.2   342  GLN342      0.2287
     13  O         -2.6000   23.7790  -25.4640 O.2   342  GLN342     -0.2864
     14  CB        -3.8810   21.0580  -25.7410 C.3   342  GLN342      0.0394
     15  CG        -3.5790   20.3310  -24.4260 C.3   342  GLN342      0.0908
     16  CD        -2.2790   19.5540  -24.4580 C.2   342  GLN342      0.2608
     17  OE1       -1.2090   20.0880  -24.7680 O.2   342  GLN342     -0.2717
     18  NE2       -2.3320   18.2870  -24.0760 N.am  342  GLN342     -0.0878
     19  N         -5.4660   25.7660  -17.1170 N.3   345  PRO345     -0.2102
     20  CA        -5.9320   24.7250  -16.1820 C.3   345  PRO345      0.1504
     21  C         -7.4530   24.5380  -16.0380 C.2   345  PRO345      0.2576
     22  O         -7.9480   23.4240  -16.2450 O.2   345  PRO345     -0.2718
     23  CB        -5.2610   25.1240  -14.8580 C.3   345  PRO345      0.0282
     24  CG        -4.9780   26.6160  -14.9870 C.3   345  PRO345      0.0208
     25  CD        -5.2320   27.0430  -16.4080 C.3   345  PRO345      0.0893
     26  N         -8.1860   25.6120  -15.6410 N.am  346  THR346     -0.1939
     27  CA        -9.6400   25.6890  -15.3930 C.3   346  THR346      0.2028
     28  C        -10.1240   25.0720  -14.0700 C.2   346  THR346      0.2642
     29  O        -11.1210   25.5480  -13.5190 O.2   346  THR346     -0.2714
     30  CB       -10.5270   25.2890  -16.5860 C.3   346  THR346      0.1808
     31  OG1      -10.6650   23.8590  -16.6380 O.3   346  THR346     -0.2208
     32  CG2      -10.0790   25.9030  -17.9180 C.3   346  THR346      0.0379
     33  N         -9.4420   24.0090  -13.5810 N.am  347  ALA347     -0.1963
     34  CA        -9.7350   23.2680  -12.3430 C.3   347  ALA347      0.1713
     35  C        -10.9280   22.3160  -12.4610 C.2   347  ALA347      0.2458
     36  O        -11.8870   22.6200  -13.1760 O.2   347  ALA347     -0.2730
     37  CB        -9.8970   24.2070  -11.1460 C.3   347  ALA347      0.0333
     38  N        -10.8920   21.1510  -11.7710 N.am  348  PRO348     -0.2716
     39  CA       -11.9990   20.1840  -11.8970 C.3   348  PRO348      0.1521
     40  C        -13.2820   20.5660  -11.1410 C.2   348  PRO348      0.2440
     41  O        -13.2350   21.4870  -10.3210 O.2   348  PRO348     -0.2731
     42  CB       -11.3800   18.8750  -11.3660 C.3   348  PRO348      0.0310
     43  CG        -9.9070   19.1600  -11.1470 C.3   348  PRO348      0.0237
     44  CD        -9.8310   20.6180  -10.8950 C.3   348  PRO348      0.0939
     45  N        -14.4390   19.8840  -11.3710 N.am  349  PRO349     -0.2727
     46  CA       -15.6600   20.2390  -10.6130 C.3   349  PRO349      0.1402
     47  C        -15.6260   19.7080   -9.1810 C.2   349  PRO349      0.2269
     48  O        -14.7330   18.9190   -8.8420 O.2   349  PRO349     -0.2865
     49  CB       -16.8060   19.6230  -11.4350 C.3   349  PRO349      0.0296
     50  CG       -16.1510   18.9420  -12.6280 C.3   349  PRO349      0.0237
     51  CD       -14.7030   18.7660  -12.2980 C.3   349  PRO349      0.0939
     52  N         -1.1200   16.6580  -10.6190 N.3   383  SER383     -0.1217
     53  CA        -0.3590   16.9450  -11.8280 C.3   383  SER383      0.1889
     54  C          0.0930   18.4260  -11.9110 C.2   383  SER383      0.2288
     55  O          0.9980   18.7300  -12.6920 O.2   383  SER383     -0.2866
     56  CB        -1.1540   16.5480  -13.0660 C.3   383  SER383      0.2089
     57  OG        -2.2460   17.4410  -13.2130 O.3   383  SER383     -0.2183
     58  N         -6.6400   13.8080  -10.7610 N.3   404  MET404     -0.1245
     59  CA        -7.3020   15.0800  -10.4840 C.3   404  MET404      0.1570
     60  C         -6.7400   15.7010   -9.2150 C.2   404  MET404      0.2261
     61  O         -5.5260   15.7910   -9.1040 O.2   404  MET404     -0.2867
     62  CB        -8.8210   14.8830  -10.3860 C.3   404  MET404      0.0387
     63  CG        -9.3750   14.0600  -11.5070 C.3   404  MET404      0.0595
     64  SD        -9.1540   14.8160  -13.1260 S.3   404  MET404     -0.1393
     65  CE       -10.7500   14.4550  -13.8380 C.3   404  MET404      0.0692
     66  N        -21.7340   21.6500  -18.5400 N.3   537  ARG537     -0.1245
     67  CA       -22.0370   21.6080  -19.9710 C.3   537  ARG537      0.1563
     68  C        -23.0360   20.5500  -20.4580 C.2   537  ARG537      0.2260
     69  O        -22.7560   19.8010  -21.3980 O.2   537  ARG537     -0.2867
     70  CB       -20.7480   21.6690  -20.8090 C.3   537  ARG537      0.0307
     71  CG       -20.5460   23.0060  -21.5230 C.3   537  ARG537      0.0489
     72  CD       -20.2960   24.1830  -20.5870 C.3   537  ARG537      0.2205
     73  NE       -21.1590   25.3160  -20.9250 N.pl3 537  ARG537     -0.0865
     74  CZ       -20.8370   26.5930  -20.7430 C.cat 537  ARG537      0.5346
     75  NH1      -19.6640   26.9220  -20.2180 N.pl3 537  ARG537      0.1354
     76  NH2      -21.6840   27.5520  -21.0950 N.pl3 537  ARG537      0.1354
     77  N        -18.1610   32.2130   -8.9910 N.3   653  ARG653     -0.1245
     78  CA       -17.8050   30.8970   -9.5030 C.3   653  ARG653      0.1563
     79  C        -18.1340   29.6910   -8.6200 C.2   653  ARG653      0.2260
     80  O        -17.8340   28.5520   -9.0070 O.2   653  ARG653     -0.2867
     81  CB       -16.3530   30.8820   -9.9830 C.3   653  ARG653      0.0307
     82  CG       -16.2360   31.0080  -11.4900 C.3   653  ARG653      0.0489
     83  CD       -16.9530   29.8380  -12.1560 C.3   653  ARG653      0.2205
     84  NE       -16.5100   29.5350  -13.5180 N.pl3 653  ARG653     -0.0865
     85  CZ       -17.2610   29.6580  -14.6120 C.cat 653  ARG653      0.5346
     86  NH1      -18.4930   30.1450  -14.5290 N.pl3 653  ARG653      0.1354
     87  NH2      -16.7730   29.3290  -15.8000 N.pl3 653  ARG653      0.1354
@<TRIPOS>BOND
     1     8     7   ar
     2     9     7   ar
     3     7     6    1
     4     6     5    1
     5     1     2    1
     6     5     2    1
     7     2     3    1
     8     3    10   am
     9     3     4    2
    10    10    11    1
    11    14    11    1
    12    14    15    1
    13    11    12    1
    14    13    12    2
    15    17    16    2
    16    16    15    1
    17    16    18   am
    18    71    70    1
    19    71    72    1
    20    69    68    2
    21    76    74    1
    22    73    74    2
    23    73    72    1
    24    70    67    1
    25    74    75    1
    26    68    67    1
    27    67    66    1
    28    32    30    1
    29    19    25    1
    30    19    20    1
    31    31    30    1
    32    30    27    1
    33    25    24    1
    34    22    21    2
    35    20    21    1
    36    20    23    1
    37    21    26   am
    38    87    85    1
    39    26    27    1
    40    27    28    1
    41    24    23    1
    42    85    86    1
    43    85    84    2
    44    28    33   am
    45    28    29    2
    46    65    64    1
    47    33    34    1
    48    84    83    1
    49    57    56    1
    50    36    35    2
    51    64    63    1
    52    56    53    1
    53    55    54    2
    54    50    51    1
    55    50    49    1
    56    35    34    1
    57    35    38   am
    58    34    37    1
    59    51    45    1
    60    83    82    1
    61    54    53    1
    62    39    38    1
    63    39    42    1
    64    39    40    1
    65    53    52    1
    66    38    44    1
    67    63    62    1
    68    82    81    1
    69    49    46    1
    70    45    40   am
    71    45    46    1
    72    42    43    1
    73    43    44    1
    74    40    41    2
    75    58    59    1
    76    46    47    1
    77    59    62    1
    78    59    60    1
    79    81    78    1
    80    78    77    1
    81    78    79    1
    82    60    61    2
    83    47    48    2
    84    80    79    2
