@<TRIPOS>MOLECULE
tmp/4a5yC01.pdb
 181 172 0 0 0
SMALL
GASTEIGER

@<TRIPOS>ATOM
      1  N         28.8980    0.6270   36.4820 N.3    96  THR96      -0.1218
      2  CA        28.7040    1.6240   37.5010 C.3    96  THR96       0.1862
      3  C         29.7700    1.5720   38.6090 C.2    96  THR96       0.2287
      4  O         30.3120    2.6040   39.0480 O.2    96  THR96      -0.2866
      5  CB        27.2760    1.5310   38.0850 C.3    96  THR96       0.1770
      6  OG1       26.3250    1.8510   37.0560 O.3    96  THR96      -0.2211
      7  CG2       27.1110    2.4860   39.2640 C.3    96  THR96       0.0375
      8  N         31.7300    4.9320   38.9400 N.3   100  GLU100     -0.1231
      9  CA        31.2620    5.6420   40.1260 C.3   100  GLU100      0.1699
     10  C         31.8950    5.0890   41.3630 C.2   100  GLU100      0.2593
     11  O         32.3250    5.8350   42.2100 O.2   100  GLU100     -0.2718
     12  CB        29.7490    5.6780   40.2340 C.3   100  GLU100      0.0402
     13  CG        29.1510    6.1880   38.9520 C.3   100  GLU100      0.1161
     14  CD        27.6370    6.3440   39.0040 C.2   100  GLU100      0.3649
     15  OE1       27.0320    6.2110   40.0890 O.co2 100  GLU100     -0.2457
     16  OE2       27.0510    6.5820   37.9380 O.co2 100  GLU100     -0.2457
     17  N         31.7270    3.7870   41.5440 N.am  101  GLY101     -0.1942
     18  CA        32.2830    3.1280   42.6920 C.3   101  GLY101      0.2014
     19  C         31.2630    3.2110   43.7960 C.2   101  GLY101      0.2639
     20  O         30.1040    3.4940   43.5240 O.2   101  GLY101     -0.2714
     21  N         31.7070    3.0220   45.0310 N.am  102  GLU102     -0.1963
     22  CA        30.8160    2.6440   46.1230 C.3   102  GLU102      0.1733
     23  C         31.3010    3.1720   47.4600 C.2   102  GLU102      0.2616
     24  O         32.4770    3.3410   47.6910 O.2   102  GLU102     -0.2715
     25  CB        30.8330    1.1360   46.2220 C.3   102  GLU102      0.0429
     26  CG        29.5310    0.5100   46.4730 C.3   102  GLU102      0.1163
     27  CD        29.5900   -0.9730   46.1650 C.2   102  GLU102      0.3649
     28  OE1       30.6790   -1.5790   46.3470 O.co2 102  GLU102     -0.2457
     29  OE2       28.5590   -1.5170   45.7070 O.co2 102  GLU102     -0.2457
     30  N         30.7850    3.3620   48.4340 N.am  103  ARG103     -0.1977
     31  CA        31.6100    3.8160   49.5290 C.3   103  ARG103      0.1597
     32  C         31.5620    2.7220   50.6350 C.2   103  ARG103      0.2287
     33  O         30.4800    2.2180   51.0210 O.2   103  ARG103     -0.2864
     34  CB        30.9880    5.0920   50.1270 C.3   103  ARG103      0.0334
     35  CG        31.8000    5.6600   51.3000 C.3   103  ARG103      0.0492
     36  CD        31.1870    7.0480   51.7070 C.3   103  ARG103      0.2205
     37  NE        31.7860    8.0360   50.7900 N.pl3 103  ARG103     -0.0865
     38  CZ        31.1540    8.8720   49.9460 C.cat 103  ARG103      0.5346
     39  NH1       29.8240    8.7690   49.7570 N.pl3 103  ARG103      0.1354
     40  NH2       31.9760    9.7530   49.3010 N.pl3 103  ARG103      0.1354
     41  N         35.2570    9.8900   51.1180 N.3   111  TRP111     -0.1241
     42  CA        35.1680    9.4850   49.7180 C.3   111  TRP111      0.1605
     43  C         36.5020    9.7240   48.9620 C.2   111  TRP111      0.2264
     44  O         36.8630    8.9580   48.0830 O.2   111  TRP111     -0.2867
     45  CB        33.9920   10.1710   49.0360 C.3   111  TRP111      0.0550
     46  CG        34.1430   11.6610   48.8060 C.ar  111  TRP111      0.0003
     47  CD1       33.6640   12.6530   49.5900 C.ar  111  TRP111      0.0946
     48  CD2       34.7890   12.3000   47.6930 C.ar  111  TRP111      0.0152
     49  NE1       33.9580   13.8820   49.0320 N.ar  111  TRP111     -0.2442
     50  CE2       34.6470   13.6850   47.8660 C.ar  111  TRP111      0.0810
     51  CE3       35.4450   11.8300   46.5600 C.ar  111  TRP111      0.0012
     52  CZ2       35.1530   14.6090   46.9620 C.ar  111  TRP111      0.0191
     53  CZ3       35.9450   12.7540   45.6480 C.ar  111  TRP111      0.0001
     54  CH2       35.7940   14.1220   45.8580 C.ar  111  TRP111      0.0015
     55  N         38.5070    6.4740   49.7770 N.3   114  ASP114     -0.1239
     56  CA        37.8470    5.1790   49.8550 C.3   114  ASP114      0.1674
     57  C         38.3310    4.3180   48.7280 C.2   114  ASP114      0.2266
     58  O         38.2130    4.6790   47.5700 O.2   114  ASP114     -0.2867
     59  CB        36.3380    5.3870   49.7680 C.3   114  ASP114      0.1410
     60  CG        35.5440    4.1750   50.1750 C.2   114  ASP114      0.3668
     61  OD1       35.9090    3.0390   49.7730 O.co2 114  ASP114     -0.2456
     62  OD2       34.5230    4.3810   50.8830 O.co2 114  ASP114     -0.2456
     63  N         35.9460    3.8230   45.7920 N.3   117  ALA117     -0.1245
     64  CA        35.6000    4.9330   44.8930 C.3   117  ALA117      0.1562
     65  C         36.0260    4.5520   43.4870 C.2   117  ALA117      0.2260
     66  O         37.0370    3.8550   43.3220 O.2   117  ALA117     -0.2867
     67  CB        36.2750    6.2390   45.3280 C.3   117  ALA117      0.0290
     68  N         34.9820    8.3700   38.4630 N.3   120  ILE120     -0.1231
     69  CA        34.4870    9.7420   38.5210 C.3   120  ILE120      0.1678
     70  C         34.9900   10.5270   39.7630 C.2   120  ILE120      0.2434
     71  O         35.5290   11.6490   39.6140 O.2   120  ILE120     -0.2733
     72  CB        32.9600    9.7720   38.3980 C.3   120  ILE120      0.0265
     73  CG1       32.5540    9.2750   37.0240 C.3   120  ILE120      0.0019
     74  CG2       32.4380   11.1240   38.6150 C.3   120  ILE120      0.0020
     75  CD1       31.0840    9.3810   36.7760 C.3   120  ILE120      0.0001
     76  N         34.8160    9.9630   40.9820 N.am  121  PRO121     -0.2729
     77  CA        35.3060   10.7250   42.1420 C.3   121  PRO121      0.1401
     78  C         36.8380   10.8950   42.1680 C.2   121  PRO121      0.2269
     79  O         37.3340   11.9670   42.5330 O.2   121  PRO121     -0.2865
     80  CB        34.7810    9.9190   43.3530 C.3   121  PRO121      0.0296
     81  CG        34.3800    8.6080   42.8060 C.3   121  PRO121      0.0237
     82  CD        33.9430    8.8570   41.3970 C.3   121  PRO121      0.0939
     83  N         37.7410   13.7280   39.6670 N.3   124  LEU124     -0.1245
     84  CA        37.4390   15.0830   40.1460 C.3   124  LEU124      0.1561
     85  C         38.3880   15.5300   41.2700 C.2   124  LEU124      0.2260
     86  O         38.9320   16.6460   41.2490 O.2   124  LEU124     -0.2867
     87  CB        35.9850   15.1770   40.6080 C.3   124  LEU124      0.0270
     88  CG        35.0160   15.0580   39.4510 C.3   124  LEU124      0.0019
     89  CD1       33.5970   14.8990   39.9780 C.3   124  LEU124      0.0001
     90  CD2       35.1470   16.2020   38.4940 C.3   124  LEU124      0.0001
     91  N         25.6750   16.2120   33.2990 N.3   144  LEU144     -0.1245
     92  CA        25.3030   14.7980   33.1720 C.3   144  LEU144      0.1561
     93  C         24.0720   14.6060   32.3340 C.2   144  LEU144      0.2260
     94  O         22.9950   15.0000   32.7150 O.2   144  LEU144     -0.2867
     95  CB        25.0850   14.1430   34.5280 C.3   144  LEU144      0.0270
     96  CG        24.8020   12.6520   34.4300 C.3   144  LEU144      0.0019
     97  CD1       26.0240   11.9730   33.8460 C.3   144  LEU144      0.0001
     98  CD2       24.5920   12.1740   35.8150 C.3   144  LEU144      0.0001
     99  N         20.3510   15.2940   34.3360 N.3   155  LEU155     -0.1231
    100  CA        20.2980   14.8570   35.7480 C.3   155  LEU155      0.1693
    101  C         20.8170   15.8460   36.8150 C.2   155  LEU155      0.2591
    102  O         20.5430   15.6750   37.9870 O.2   155  LEU155     -0.2718
    103  CB        21.0450   13.5460   35.9200 C.3   155  LEU155      0.0284
    104  CG        20.4650   12.2840   35.2570 C.3   155  LEU155      0.0019
    105  CD1       21.3740   11.1250   35.6270 C.3   155  LEU155      0.0001
    106  CD2       19.0560   11.9930   35.7060 C.3   155  LEU155      0.0001
    107  N         21.6180   16.8330   36.4240 N.am  156  LEU156     -0.1980
    108  CA        22.1190   17.8160   37.3610 C.3   156  LEU156      0.1596
    109  C         21.3410   19.1470   37.3940 C.2   156  LEU156      0.2287
    110  O         21.7890   20.1060   38.0210 O.2   156  LEU156     -0.2864
    111  CB        23.5820   18.1150   37.0900 C.3   156  LEU156      0.0297
    112  CG        24.5110   16.9310   36.9220 C.3   156  LEU156      0.0022
    113  CD1       25.9470   17.4350   36.6920 C.3   156  LEU156      0.0001
    114  CD2       24.3900   15.9830   38.1330 C.3   156  LEU156      0.0001
    115  N         31.3330   19.3730   44.1900 N.3   194  VAL194     -0.1231
    116  CA        31.0470   18.2480   43.2990 C.3   194  VAL194      0.1692
    117  C         30.4210   17.0590   44.0100 C.2   194  VAL194      0.2592
    118  O         29.5570   16.4010   43.4490 O.2   194  VAL194     -0.2718
    119  CB        32.2750   17.7300   42.4360 C.3   194  VAL194      0.0266
    120  CG1       33.2780   18.7850   42.2380 C.3   194  VAL194      0.0020
    121  CG2       32.9290   16.4900   43.0860 C.3   194  VAL194      0.0020
    122  N         30.8480   16.7540   45.2240 N.am  195  TYR195     -0.1976
    123  CA        30.0870   15.7720   45.9860 C.3   195  TYR195      0.1639
    124  C         28.5810   16.1280   46.1150 C.2   195  TYR195      0.2290
    125  O         27.7090   15.2840   45.8520 O.2   195  TYR195     -0.2864
    126  CB        30.7070   15.5440   47.3490 C.3   195  TYR195      0.0560
    127  CG        30.0620   14.4410   48.1130 C.ar  195  TYR195     -0.0198
    128  CD1       28.9590   14.6820   48.9320 C.ar  195  TYR195     -0.0009
    129  CD2       30.5520   13.1390   48.0330 C.ar  195  TYR195     -0.0009
    130  CE1       28.3570   13.6270   49.6490 C.ar  195  TYR195      0.0417
    131  CE2       29.9710   12.0950   48.7470 C.ar  195  TYR195      0.0417
    132  CZ        28.8740   12.3490   49.5510 C.ar  195  TYR195      0.1957
    133  OH        28.3030   11.3000   50.2450 O.3   195  TYR195     -0.2866
    134  N         26.5380   15.8860   42.7000 N.3   198  LEU198     -0.1231
    135  CA        26.3370   14.5140   42.2680 C.3   198  LEU198      0.1693
    136  C         25.4330   13.7570   43.2460 C.2   198  LEU198      0.2591
    137  O         24.6140   12.9610   42.8210 O.2   198  LEU198     -0.2718
    138  CB        27.6840   13.7840   42.0310 C.3   198  LEU198      0.0284
    139  CG        28.5760   14.3020   40.8780 C.3   198  LEU198      0.0019
    140  CD1       29.9120   13.6070   40.7490 C.3   198  LEU198      0.0001
    141  CD2       27.8510   14.2320   39.5610 C.3   198  LEU198      0.0001
    142  N         25.5730   14.0090   44.5440 N.am  199  GLU199     -0.1979
    143  CA        24.6200   13.4480   45.5150 C.3   199  GLU199      0.1602
    144  C         23.1530   13.7530   45.1160 C.2   199  GLU199      0.2287
    145  O         22.3290   12.8320   45.0790 O.2   199  GLU199     -0.2864
    146  CB        24.9760   13.8650   46.9630 C.3   199  GLU199      0.0415
    147  CG        23.8290   13.8410   47.9700 C.3   199  GLU199      0.1163
    148  CD        24.2830   13.5150   49.4000 C.2   199  GLU199      0.3649
    149  OE1       24.7570   12.3800   49.6470 O.co2 199  GLU199     -0.2457
    150  OE2       24.1660   14.3840   50.2890 O.co2 199  GLU199     -0.2457
    151  N         22.1970   14.6800   41.9850 N.3   201  GLY201     -0.1210
    152  CA        22.0010   13.9890   40.7270 C.3   201  GLY201      0.1956
    153  C         21.5730   12.5390   40.9060 C.2   201  GLY201      0.2611
    154  O         20.7130   12.0510   40.1830 O.2   201  GLY201     -0.2717
    155  N         22.1710   11.8620   41.8760 N.am  202  ALA202     -0.1979
    156  CA        21.8120   10.4780   42.2130 C.3   202  ALA202      0.1597
    157  C         20.3530   10.3710   42.6470 C.2   202  ALA202      0.2287
    158  O         19.6410    9.4690   42.2190 O.2   202  ALA202     -0.2864
    159  CB        22.7330    9.9160   43.3050 C.3   202  ALA202      0.0319
    160  N         18.1330   10.8460   39.7460 N.3   205  ARG205     -0.1245
    161  CA        18.2500    9.6460   38.9340 C.3   205  ARG205      0.1563
    162  C         17.3970    8.4910   39.4800 C.2   205  ARG205      0.2260
    163  O         16.8180    7.7090   38.7270 O.2   205  ARG205     -0.2867
    164  CB        19.6980    9.2210   38.9520 C.3   205  ARG205      0.0307
    165  CG        20.0980    8.1890   37.9250 C.3   205  ARG205      0.0489
    166  CD        21.0450    7.2710   38.5950 C.3   205  ARG205      0.2205
    167  NE        22.3790    7.4600   38.1080 N.pl3 205  ARG205     -0.0865
    168  CZ        23.4790    7.2620   38.8150 C.cat 205  ARG205      0.5346
    169  NH1       23.4220    6.8970   40.0650 N.pl3 205  ARG205      0.1354
    170  NH2       24.6440    7.4490   38.2480 N.pl3 205  ARG205      0.1354
    171  N         28.7400   11.7270   31.4420 N.3   223  PHE223     -0.1241
    172  CA        29.2700   12.6740   32.4380 C.3   223  PHE223      0.1605
    173  C         30.4360   13.4700   31.8060 C.2   223  PHE223      0.2264
    174  O         31.3400   12.9020   31.2150 O.2   223  PHE223     -0.2867
    175  CB        29.6740   11.9720   33.7700 C.3   223  PHE223      0.0534
    176  CG        30.3250   12.8990   34.7530 C.ar  223  PHE223     -0.0203
    177  CD1       29.5740   13.7500   35.5250 C.ar  223  PHE223     -0.0042
    178  CD2       31.7020   12.9990   34.8350 C.ar  223  PHE223     -0.0042
    179  CE1       30.1830   14.6510   36.3950 C.ar  223  PHE223     -0.0003
    180  CE2       32.3170   13.9030   35.7260 C.ar  223  PHE223     -0.0003
    181  CZ        31.5470   14.7250   36.4900 C.ar  223  PHE223     -0.0000
@<TRIPOS>BOND
     1   174   173    2
     2   171   172    1
     3   173   172    1
     4    93    94    2
     5    93    92    1
     6   172   175    1
     7    92    91    1
     8    92    95    1
     9   175   176    1
    10    97    96    1
    11    99   100    1
    12    96    95    1
    13    96    98    1
    14   176   178   ar
    15   176   177   ar
    16   178   180   ar
    17   104   105    1
    18   104   106    1
    19   104   103    1
    20   177   179   ar
    21   180   181   ar
    22   100   103    1
    23   100   101    1
    24   179   181   ar
    25   107   101   am
    26   107   108    1
    27     1     2    1
    28   113   112    1
    29    75    73    1
    30   101   102    2
    31   112   111    1
    32   112   114    1
    33    73    72    1
    34     6     5    1
    35   111   108    1
    36   108   109    1
    37   109   110    2
    38     2     5    1
    39     2     3    1
    40   165   166    1
    41   165   164    1
    42    16    14   ar
    43     5     7    1
    44   167   166    1
    45   167   168    2
    46   170   168    1
    47    72    69    1
    48    72    74    1
    49    68    69    1
    50    90    88    1
    51    69    70    1
    52     3     4    2
    53   163   162    2
    54   168   169    1
    55   161   164    1
    56   161   162    1
    57   161   160    1
    58     8     9    1
    59    13    14    1
    60    13    12    1
    61    14    15   ar
    62    88    89    1
    63    88    87    1
    64   141   139    1
    65    71    70    2
    66    83    84    1
    67    70    76   am
    68     9    12    1
    69     9    10    1
    70    84    87    1
    71    84    85    1
    72   154   153    2
    73   152   153    1
    74   152   151    1
    75   140   139    1
    76   139   138    1
    77   153   155   am
    78    76    82    1
    79    76    77    1
    80    86    85    2
    81    10    17   am
    82    10    11    2
    83    82    81    1
    84    17    18    1
    85   155   156    1
    86   138   135    1
    87    77    78    1
    88    77    80    1
    89    78    79    2
    90   156   157    1
    91   156   159    1
    92   158   157    2
    93   120   119    1
    94   135   134    1
    95   135   136    1
    96   119   121    1
    97   119   116    1
    98    18    19    1
    99    81    80    1
   100   137   136    2
   101   136   142   am
   102   116   117    1
   103   116   115    1
   104    66    65    2
   105   118   117    2
   106    65    64    1
   107    20    19    2
   108    19    21   am
   109   117   122   am
   110   142   143    1
   111    64    67    1
   112    64    63    1
   113    21    22    1
   114   145   144    2
   115   144   143    1
   116   122   123    1
   117   143   146    1
   118    53    54   ar
   119    53    51   ar
   120    29    27   ar
   121   125   124    2
   122    54    52   ar
   123   123   124    1
   124   123   126    1
   125    22    25    1
   126    22    23    1
   127    27    28   ar
   128    27    26    1
   129    25    26    1
   130    51    48   ar
   131    52    50   ar
   132   146   147    1
   133   126   127    1
   134    23    24    2
   135    23    30   am
   136    58    57    2
   137    48    50   ar
   138    48    46   ar
   139    50    49   ar
   140   147   148    1
   141   129   127   ar
   142   129   131   ar
   143    44    43    2
   144   127   128   ar
   145    30    31    1
   146    57    56    1
   147   131   132   ar
   148    46    45    1
   149    46    47   ar
   150   128   130   ar
   151    43    42    1
   152    49    47   ar
   153    45    42    1
   154    40    38    1
   155   148   149   ar
   156   148   150   ar
   157    31    34    1
   158    31    32    1
   159   132   130   ar
   160   132   133    1
   161    42    41    1
   162    39    38    1
   163    59    56    1
   164    59    60    1
   165    61    60   ar
   166    55    56    1
   167    38    37    2
   168    34    35    1
   169    60    62   ar
   170    32    33    2
   171    37    36    1
   172    35    36    1
