@<TRIPOS>MOLECULE
tmp/4a5yB01.pdb
 168 158 0 0 0
SMALL
GASTEIGER

@<TRIPOS>ATOM
      1  N         -0.1820    9.4220    3.4380 N.3    78  THR78      -0.1218
      2  CA         0.5200   10.6960    3.5560 C.3    78  THR78       0.1862
      3  C          1.2700   10.7770    4.9070 C.2    78  THR78       0.2287
      4  O          2.4390   11.2110    4.9520 O.2    78  THR78      -0.2866
      5  CB        -0.4160   11.9040    3.2930 C.3    78  THR78       0.1770
      6  OG1       -0.8620   11.8650    1.9300 O.3    78  THR78      -0.2211
      7  CG2        0.3040   13.2050    3.5330 C.3    78  THR78       0.0375
      8  N          5.2020   11.1760    4.2870 N.3    82  GLU82      -0.1231
      9  CA         5.5090   12.5890    4.5260 C.3    82  GLU82       0.1699
     10  C          5.6770   12.9240    6.0180 C.2    82  GLU82       0.2593
     11  O          6.7270   13.4600    6.4570 O.2    82  GLU82      -0.2718
     12  CB         4.4770   13.5080    3.8510 C.3    82  GLU82       0.0402
     13  CG         4.6700   13.5240    2.3550 C.3    82  GLU82       0.1161
     14  CD         3.6330   14.3350    1.5810 C.2    82  GLU82       0.3649
     15  OE1        3.0730   15.3360    2.1020 O.co2  82  GLU82      -0.2457
     16  OE2        3.3970   13.9390    0.4130 O.co2  82  GLU82      -0.2457
     17  N          4.6040   12.6680    6.7600 N.am   83  GLY83      -0.1942
     18  CA         4.6080   12.8420    8.1890 C.3    83  GLY83       0.2014
     19  C          4.0080   14.1700    8.5650 C.2    83  GLY83       0.2639
     20  O          3.4900   14.8900    7.7290 O.2    83  GLY83      -0.2714
     21  N          4.0870   14.4900    9.8460 N.am   84  GLU84      -0.1963
     22  CA         3.5660   15.7460   10.3600 C.3    84  GLU84       0.1733
     23  C          4.5980   16.4180   11.2750 C.2    84  GLU84       0.2616
     24  O          5.6110   15.8030   11.6580 O.2    84  GLU84      -0.2715
     25  CB         2.2530   15.5000   11.1010 C.3    84  GLU84       0.0429
     26  CG         1.1520   14.9240   10.2100 C.3    84  GLU84       0.1163
     27  CD         0.0530   14.2060   11.0020 C.2    84  GLU84       0.3649
     28  OE1        0.0320   14.3410   12.2580 O.co2  84  GLU84      -0.2457
     29  OE2       -0.7710   13.5030   10.3600 O.co2  84  GLU84      -0.2457
     30  N          4.3540   17.6890   11.5990 N.am   85  ARG85      -0.1977
     31  CA         5.1850   18.3760   12.5790 C.3    85  ARG85       0.1597
     32  C          4.5940   18.1260   13.9480 C.2    85  ARG85       0.2287
     33  O          3.3700   18.1830   14.1410 O.2    85  ARG85      -0.2864
     34  CB         5.2420   19.8840   12.3260 C.3    85  ARG85       0.0334
     35  CG         3.9490   20.6140   12.6740 C.3    85  ARG85       0.0492
     36  CD         3.6120   21.6140   11.5730 C.3    85  ARG85       0.2205
     37  NE         4.8500   22.1090   10.9930 N.pl3  85  ARG85      -0.0865
     38  CZ         4.9560   22.7220    9.8220 C.cat  85  ARG85       0.5346
     39  NH1        3.8800   22.9380    9.0660 N.pl3  85  ARG85       0.1354
     40  NH2        6.1600   23.1060    9.4130 N.pl3  85  ARG85       0.1354
     41  N         12.6400   19.4500   12.0690 N.3    93  TRP93      -0.1241
     42  CA        12.0440   18.3440   11.3240 C.3    93  TRP93       0.1605
     43  C         13.0050   17.1140   11.2940 C.2    93  TRP93       0.2264
     44  O         12.5440   15.9530   11.2900 O.2    93  TRP93      -0.2867
     45  CB        11.6470   18.7910    9.9060 C.3    93  TRP93       0.0550
     46  CG        12.8100   19.2930    9.0470 C.ar   93  TRP93       0.0003
     47  CD1       13.2230   20.5990    8.8920 C.ar   93  TRP93       0.0946
     48  CD2       13.6890   18.5000    8.2420 C.ar   93  TRP93       0.0152
     49  NE1       14.3070   20.6590    8.0400 N.ar   93  TRP93      -0.2442
     50  CE2       14.6030   19.3870    7.6170 C.ar   93  TRP93       0.0810
     51  CE3       13.7820   17.1300    7.9710 C.ar   93  TRP93       0.0012
     52  CZ2       15.6160   18.9320    6.7410 C.ar   93  TRP93       0.0191
     53  CZ3       14.7710   16.6780    7.0960 C.ar   93  TRP93       0.0001
     54  CH2       15.6820   17.5800    6.4960 C.ar   93  TRP93       0.0015
     55  N         12.1340   15.4980   14.3980 N.3    96  ASP96      -0.1239
     56  CA        10.7570   15.3510   14.8060 C.3    96  ASP96       0.1674
     57  C         10.3280   13.9010   14.6710 C.2    96  ASP96       0.2266
     58  O         10.4580   13.2980   13.6150 O.2    96  ASP96      -0.2867
     59  CB         9.8470   16.3020   14.0480 C.3    96  ASP96       0.1410
     60  CG         8.4520   16.3310   14.5980 C.2    96  ASP96       0.3668
     61  OD1        8.0170   15.2530   15.0460 O.co2  96  ASP96      -0.2456
     62  OD2        7.7970   17.4150   14.5910 O.co2  96  ASP96      -0.2456
     63  N          7.9870   12.8080   11.9060 N.3    99  ALA99      -0.1245
     64  CA         8.4650   12.9030   10.5160 C.3    99  ALA99       0.1562
     65  C          8.4150   11.5680    9.7730 C.2    99  ALA99       0.2260
     66  O          8.9650   10.5750   10.2550 O.2    99  ALA99      -0.2867
     67  CB         9.8860   13.4730   10.4550 C.3    99  ALA99       0.0290
     68  N         10.0690   10.6180    3.7440 N.3   102  ILE102     -0.1231
     69  CA        10.7920   11.4950    2.8350 C.3   102  ILE102      0.1678
     70  C         11.7920   12.3600    3.6110 C.2   102  ILE102      0.2434
     71  O         12.9760   12.4350    3.2540 O.2   102  ILE102     -0.2733
     72  CB         9.8390   12.3550    1.9470 C.3   102  ILE102      0.0265
     73  CG1        9.0670   11.4620    0.9450 C.3   102  ILE102      0.0019
     74  CG2       10.6540   13.4100    1.2340 C.3   102  ILE102      0.0020
     75  CD1        7.9100   12.1690    0.1390 C.3   102  ILE102      0.0001
     76  N         11.3260   12.9990    4.6960 N.am  103  PRO103     -0.2729
     77  CA        12.2570   13.7590    5.5600 C.3   103  PRO103      0.1401
     78  C         13.4200   12.9040    6.1580 C.2   103  PRO103      0.2269
     79  O         14.6120   13.3030    6.0980 O.2   103  PRO103     -0.2865
     80  CB        11.3350   14.3330    6.6600 C.3   103  PRO103      0.0296
     81  CG        10.0920   13.4720    6.6180 C.3   103  PRO103      0.0237
     82  CD         9.9300   13.0490    5.1750 C.3   103  PRO103      0.0939
     83  N         16.0240   12.1000    3.4700 N.3   106  LEU106     -0.1245
     84  CA        16.8840   13.2060    3.0680 C.3   106  LEU106      0.1561
     85  C         17.8580   13.5920    4.1800 C.2   106  LEU106      0.2260
     86  O         19.0130   14.0150    3.9240 O.2   106  LEU106     -0.2867
     87  CB        16.0610   14.4260    2.6070 C.3   106  LEU106      0.0270
     88  CG        15.3050   14.2500    1.2760 C.3   106  LEU106      0.0019
     89  CD1       14.1120   15.2460    1.1380 C.3   106  LEU106      0.0001
     90  CD2       16.2520   14.3240    0.1120 C.3   106  LEU106      0.0001
     91  N          9.7860   16.1710   -8.0080 N.3   126  LEU126     -0.1245
     92  CA         8.5050   15.6730   -7.5410 C.3   126  LEU126      0.1561
     93  C          7.4850   15.9090   -8.6320 C.2   126  LEU126      0.2260
     94  O          7.3190   17.0410   -9.1380 O.2   126  LEU126     -0.2867
     95  CB         8.0810   16.3490   -6.2290 C.3   126  LEU126      0.0270
     96  CG         6.7230   15.9450   -5.6730 C.3   126  LEU126      0.0019
     97  CD1        6.7180   14.4810   -5.3520 C.3   126  LEU126      0.0001
     98  CD2        6.3720   16.7770   -4.4420 C.3   126  LEU126      0.0001
     99  N          5.6150   19.4530   -9.7900 N.3   137  LEU137     -0.1245
    100  CA         5.3110   20.2030   -8.5410 C.3   137  LEU137      0.1561
    101  C          6.4120   21.1730   -8.0510 C.2   137  LEU137      0.2260
    102  O          6.1430   22.0510   -7.2540 O.2   137  LEU137     -0.2867
    103  CB         4.8690   19.2610   -7.4120 C.3   137  LEU137      0.0270
    104  CG         3.4590   18.6770   -7.5540 C.3   137  LEU137      0.0019
    105  CD1        3.0610   17.8930   -6.3120 C.3   137  LEU137      0.0001
    106  CD2        2.4360   19.7690   -7.8250 C.3   137  LEU137      0.0001
    107  N         16.4150   21.7010    1.9000 N.3   176  VAL176     -0.1231
    108  CA        15.3770   20.7180    1.5550 C.3   176  VAL176      0.1692
    109  C         13.9500   21.1290    1.9800 C.2   176  VAL176      0.2592
    110  O         12.9660   20.9490    1.2360 O.2   176  VAL176     -0.2718
    111  CB        15.7720   19.2840    2.0500 C.3   176  VAL176      0.0266
    112  CG1       14.6500   18.6080    2.8230 C.3   176  VAL176      0.0020
    113  CG2       16.1970   18.4550    0.8470 C.3   176  VAL176      0.0020
    114  N         13.8520   21.7270    3.1540 N.am  177  TYR177     -0.1976
    115  CA        12.5740   22.1940    3.6650 C.3   177  TYR177      0.1639
    116  C         11.8680   23.2740    2.7970 C.2   177  TYR177      0.2290
    117  O         10.6360   23.2240    2.6000 O.2   177  TYR177     -0.2864
    118  CB        12.7650   22.6600    5.1120 C.3   177  TYR177      0.0560
    119  CG        11.4880   22.9240    5.8400 C.ar  177  TYR177     -0.0198
    120  CD1       10.8370   24.1400    5.6960 C.ar  177  TYR177     -0.0009
    121  CD2       10.9250   21.9610    6.6650 C.ar  177  TYR177     -0.0009
    122  CE1        9.6750   24.3830    6.3290 C.ar  177  TYR177      0.0417
    123  CE2        9.7690   22.2090    7.3220 C.ar  177  TYR177      0.0417
    124  CZ         9.1460   23.4250    7.1500 C.ar  177  TYR177      0.1957
    125  OH         7.9660   23.7000    7.7910 O.3   177  TYR177     -0.2866
    126  N         10.5420   21.5850   -0.5520 N.3   180  LEU180     -0.1231
    127  CA         9.3250   20.7840   -0.4850 C.3   180  LEU180      0.1693
    128  C          8.1290   21.5840    0.0270 C.2   180  LEU180      0.2591
    129  O          6.9610   21.2170   -0.2290 O.2   180  LEU180     -0.2718
    130  CB         9.5550   19.5130    0.3290 C.3   180  LEU180      0.0284
    131  CG        10.2080   18.4310   -0.5370 C.3   180  LEU180      0.0019
    132  CD1       11.1230   17.5760    0.2580 C.3   180  LEU180      0.0001
    133  CD2        9.1140   17.5920   -1.2350 C.3   180  LEU180      0.0001
    134  N          8.4140   22.6870    0.7250 N.am  181  GLU181     -0.1979
    135  CA         7.3440   23.5740    1.1840 C.3   181  GLU181      0.1602
    136  C          6.6350   24.2880   -0.0180 C.2   181  GLU181      0.2287
    137  O          5.4070   24.3640   -0.0620 O.2   181  GLU181     -0.2864
    138  CB         7.8750   24.5790    2.2240 C.3   181  GLU181      0.0415
    139  CG         6.7850   25.2820    3.0600 C.3   181  GLU181      0.1163
    140  CD         7.3480   26.3150    4.0720 C.2   181  GLU181      0.3649
    141  OE1        8.4950   26.8270    3.8980 O.co2 181  GLU181     -0.2457
    142  OE2        6.6320   26.6190    5.0530 O.co2 181  GLU181     -0.2457
    143  N          6.7470   23.1280   -3.1470 N.3   183  GLY183     -0.1210
    144  CA         6.0830   21.9990   -3.7380 C.3   183  GLY183      0.1956
    145  C          4.7230   21.7200   -3.1320 C.2   183  GLY183      0.2611
    146  O          3.7930   21.2900   -3.8330 O.2   183  GLY183     -0.2717
    147  N          4.5910   21.9260   -1.8260 N.am  184  ALA184     -0.1979
    148  CA         3.3250   21.5940   -1.1820 C.3   184  ALA184      0.1597
    149  C          2.3070   22.6480   -1.5490 C.2   184  ALA184      0.2287
    150  O          1.1510   22.3220   -1.8000 O.2   184  ALA184     -0.2864
    151  CB         3.4720   21.4900    0.3260 C.3   184  ALA184      0.0319
    152  N          1.1260   22.1020   -5.1090 N.3   187  ARG187     -0.1245
    153  CA         0.2670   20.9300   -5.1080 C.3   187  ARG187      0.1563
    154  C         -1.1080   21.2680   -4.5360 C.2   187  ARG187      0.2260
    155  O         -2.1100   20.6630   -4.9130 O.2   187  ARG187     -0.2867
    156  CB         0.9240   19.8170   -4.2960 C.3   187  ARG187      0.0307
    157  CG         0.1200   18.5620   -4.1650 C.3   187  ARG187      0.0489
    158  CD         0.8410   17.5130   -3.3320 C.3   187  ARG187      0.2205
    159  NE         0.8920   17.8800   -1.9170 N.pl3 187  ARG187     -0.0865
    160  CZ         1.5930   17.2200   -1.0030 C.cat 187  ARG187      0.5346
    161  NH1        2.3180   16.1650   -1.3680 N.pl3 187  ARG187      0.1354
    162  NH2        1.5820   17.6120    0.2700 N.pl3 187  ARG187      0.1354
    163  N          1.8930   10.6100   -6.3790 N.3   203  SER203     -0.1217
    164  CA         3.1040   11.4090   -6.2080 C.3   203  SER203      0.1889
    165  C          4.3490   10.5760   -6.4330 C.2   203  SER203      0.2288
    166  O          4.5300    9.5500   -5.7910 O.2   203  SER203     -0.2866
    167  CB         3.1870   12.0330   -4.8030 C.3   203  SER203      0.2089
    168  OG         2.3430   13.1630   -4.6640 O.3   203  SER203     -0.2183
@<TRIPOS>BOND
     1    99   100    1
     2    94    93    2
     3    93    92    1
     4   100   101    1
     5   100   103    1
     6   101   102    2
     7    91    92    1
     8   106   104    1
     9   104   103    1
    10   104   105    1
    11    92    95    1
    12   165   164    1
    13   165   166    2
    14   163   164    1
    15    95    96    1
    16   164   167    1
    17    96    97    1
    18    96    98    1
    19   152   153    1
    20   153   154    1
    21   153   156    1
    22   155   154    2
    23   167   168    1
    24   156   157    1
    25   157   158    1
    26   146   145    2
    27   144   143    1
    28   144   145    1
    29   158   159    1
    30   145   147   am
    31   159   160    2
    32   147   148    1
    33   150   149    2
    34   149   148    1
    35   161   160    1
    36   133   131    1
    37   148   151    1
    38   160   162    1
    39   126   127    1
    40   131   132    1
    41   131   130    1
    42   127   128    1
    43   127   130    1
    44   129   128    2
    45   137   136    2
    46   136   135    1
    47   128   134   am
    48    90    88    1
    49    75    73    1
    50    16    14   ar
    51   134   135    1
    52   113   111    1
    53    73    72    1
    54    89    88    1
    55   135   138    1
    56    74    72    1
    57   110   109    2
    58    88    87    1
    59   108   107    1
    60   108   109    1
    61   108   111    1
    62    14    15   ar
    63    14    13    1
    64     6     5    1
    65    72    69    1
    66   109   114   am
    67   111   112    1
    68   138   139    1
    69    13    12    1
    70   117   116    2
    71    87    84    1
    72   116   115    1
    73    69    70    1
    74    69    68    1
    75   139   140    1
    76    84    83    1
    77    84    85    1
    78   114   115    1
    79    71    70    2
    80     5     7    1
    81     5     2    1
    82     1     2    1
    83     2     3    1
    84    70    76   am
    85   115   118    1
    86    12     9    1
    87   141   140   ar
    88    86    85    2
    89   140   142   ar
    90     8     9    1
    91     9    10    1
    92    76    82    1
    93    76    77    1
    94     3     4    2
    95   118   119    1
    96    82    81    1
    97    77    78    1
    98    77    80    1
    99   120   119   ar
   100   120   122   ar
   101   119   121   ar
   102    10    11    2
   103    10    17   am
   104    79    78    2
   105   122   124   ar
   106    54    52   ar
   107    54    53   ar
   108    81    80    1
   109   121   123   ar
   110    52    50   ar
   111    17    18    1
   112    53    51   ar
   113   124   123   ar
   114   124   125    1
   115    50    49   ar
   116    50    48   ar
   117    20    19    2
   118    51    48   ar
   119    49    47   ar
   120    18    19    1
   121    48    46   ar
   122    19    21   am
   123    47    46   ar
   124    46    45    1
   125    39    38    1
   126    40    38    1
   127    65    66    2
   128    65    64    1
   129    38    37    2
   130    21    22    1
   131    45    42    1
   132    26    27    1
   133    26    25    1
   134    29    27   ar
   135    22    25    1
   136    22    23    1
   137    67    64    1
   138    64    63    1
   139    37    36    1
   140    27    28   ar
   141    23    30   am
   142    23    24    2
   143    44    43    2
   144    43    42    1
   145    42    41    1
   146    36    35    1
   147    30    31    1
   148    34    31    1
   149    34    35    1
   150    31    32    1
   151    58    57    2
   152    32    33    2
   153    59    60    1
   154    59    56    1
   155    55    56    1
   156    62    60   ar
   157    60    61   ar
   158    57    56    1
