@<TRIPOS>MOLECULE
tmp/4a62B01.pdb
 192 176 0 0 0
SMALL
GASTEIGER

@<TRIPOS>ATOM
      1  N        -64.9390   19.6330  -96.7920 N.3     6  ASP6       -0.1239
      2  CA       -66.3620   19.7270  -96.4840 C.3     6  ASP6        0.1674
      3  C        -66.4820   20.4420  -95.1360 C.2     6  ASP6        0.2266
      4  O        -66.4760   19.8020  -94.0730 O.2     6  ASP6       -0.2867
      5  CB       -67.0020   18.3410  -96.4380 C.3     6  ASP6        0.1410
      6  CG       -68.4250   18.3670  -95.9220 C.2     6  ASP6        0.3668
      7  OD1      -69.0850   19.4210  -96.0100 O.co2   6  ASP6       -0.2456
      8  OD2      -68.8870   17.3180  -95.4360 O.co2   6  ASP6       -0.2456
      9  N        -68.3840   21.6490  -92.7550 N.3     8  GLY8       -0.1210
     10  CA       -69.7090   21.6150  -92.1570 C.3     8  GLY8        0.1956
     11  C        -69.7740   22.3640  -90.8320 C.2     8  GLY8        0.2613
     12  O        -68.7570   22.7570  -90.2800 O.2     8  GLY8       -0.2717
     13  N        -70.9770   22.5580  -90.3110 N.am    9  SER9       -0.1938
     14  CA       -71.1440   23.4080  -89.1470 C.3     9  SER9        0.2055
     15  C        -70.5620   22.7850  -87.8710 C.2     9  SER9        0.2644
     16  O        -70.1640   23.5100  -86.9650 O.2     9  SER9       -0.2714
     17  CB       -72.6220   23.7450  -88.9520 C.3     9  SER9        0.2130
     18  OG       -73.4000   22.5680  -88.9050 O.3     9  SER9       -0.2179
     19  N        -70.4970   21.4550  -87.8190 N.am   10  THR10      -0.1936
     20  CA       -70.1060   20.7330  -86.5990 C.3    10  THR10       0.2028
     21  C        -68.6640   20.2420  -86.6730 C.2    10  THR10       0.2642
     22  O        -67.9210   20.2970  -85.6900 O.2    10  THR10      -0.2714
     23  CB       -71.0130   19.4870  -86.3760 C.3    10  THR10       0.1808
     24  OG1      -72.3860   19.8570  -86.5270 O.3    10  THR10      -0.2208
     25  CG2      -70.8020   18.8940  -84.9950 C.3    10  THR10       0.0379
     26  N        -68.3040   19.7410  -87.8490 N.am   11  ASN11      -0.1971
     27  CA       -66.9830   19.1920  -88.1250 C.3    11  ASN11       0.1688
     28  C        -66.5020   19.5820  -89.5220 C.2    11  ASN11       0.2292
     29  O        -67.2760   19.5560  -90.4880 O.2    11  ASN11      -0.2864
     30  CB       -67.0110   17.6660  -88.0360 C.3    11  ASN11       0.1181
     31  CG       -67.2220   17.1680  -86.6240 C.2    11  ASN11       0.2629
     32  OD1      -66.3050   17.1830  -85.8110 O.2    11  ASN11      -0.2716
     33  ND2      -68.4350   16.7250  -86.3260 N.am   11  ASN11      -0.0877
     34  N        -64.3410   18.3290  -92.4830 N.3    13  LYS13      -0.1245
     35  CA       -63.7690   17.0810  -92.9670 C.3    13  LYS13       0.1561
     36  C        -62.8370   17.3510  -94.1560 C.2    13  LYS13       0.2260
     37  O        -63.2030   18.0350  -95.1070 O.2    13  LYS13      -0.2867
     38  CB       -64.8910   16.0990  -93.3370 C.3    13  LYS13       0.0271
     39  CG       -65.5260   15.4350  -92.1090 C.3    13  LYS13       0.0035
     40  CD       -67.0300   15.6200  -92.0490 C.3    13  LYS13       0.0206
     41  CE       -67.4210   17.0740  -92.0160 C.3    13  LYS13       0.1093
     42  NZ       -68.8820   17.2540  -91.8410 N.3    13  LYS13      -0.1314
     43  N        -71.8040   29.6460  -92.5240 N.3    73  GLN73      -0.1245
     44  CA       -71.1090   29.3940  -93.7910 C.3    73  GLN73       0.1566
     45  C        -70.1930   30.5450  -94.2260 C.2    73  GLN73       0.2260
     46  O        -69.1480   30.3190  -94.8420 O.2    73  GLN73      -0.2867
     47  CB       -72.1220   29.1180  -94.9040 C.3    73  GLN73       0.0367
     48  CG       -72.9120   27.8430  -94.7120 C.3    73  GLN73       0.0905
     49  CD       -72.0420   26.6100  -94.7660 C.2    73  GLN73       0.2608
     50  OE1      -70.9350   26.6390  -95.3020 O.2    73  GLN73      -0.2717
     51  NE2      -72.5370   25.5140  -94.2080 N.am   73  GLN73      -0.0878
     52  N        -74.5160   24.5740  -98.1840 N.3   103  PRO103     -0.2116
     53  CA       -75.7880   23.8480  -98.1410 C.3   103  PRO103      0.1372
     54  C        -76.5390   23.9860  -99.4560 C.2   103  PRO103      0.2244
     55  O        -76.3410   24.9590 -100.1760 O.2   103  PRO103     -0.2868
     56  CB       -76.5530   24.5370  -97.0040 C.3   103  PRO103      0.0268
     57  CG       -75.4870   25.0790  -96.1130 C.3   103  PRO103      0.0207
     58  CD       -74.3200   25.4270  -96.9990 C.3   103  PRO103      0.0892
     59  N        -73.7330   20.7650 -101.0640 N.3   148  GLU148     -0.1245
     60  CA       -73.7150   19.6520 -100.1240 C.3   148  GLU148      0.1567
     61  C        -74.6200   18.5330 -100.6010 C.2   148  GLU148      0.2260
     62  O        -75.5420   18.7740 -101.3820 O.2   148  GLU148     -0.2867
     63  CB       -74.1150   20.1240  -98.7250 C.3   148  GLU148      0.0388
     64  CG       -72.9250   20.7050  -97.9940 C.3   148  GLU148      0.1160
     65  CD       -73.2870   21.4490  -96.7320 C.2   148  GLU148      0.3649
     66  OE1      -74.0800   20.9150  -95.9180 O.co2 148  GLU148     -0.2457
     67  OE2      -72.7590   22.5740  -96.5600 O.co2 148  GLU148     -0.2457
     68  N        -78.8220   13.8080  -96.6150 N.3   170  ASP170     -0.1239
     69  CA       -77.6590   14.2860  -95.8720 C.3   170  ASP170      0.1674
     70  C        -78.1130   14.9250  -94.5400 C.2   170  ASP170      0.2266
     71  O        -78.5960   16.0650  -94.5150 O.2   170  ASP170     -0.2867
     72  CB       -76.9000   15.2800  -96.7660 C.3   170  ASP170      0.1410
     73  CG       -75.6560   15.8510  -96.1240 C.2   170  ASP170      0.3668
     74  OD1      -75.5250   15.8050  -94.8820 O.co2 170  ASP170     -0.2456
     75  OD2      -74.8150   16.3870  -96.8830 O.co2 170  ASP170     -0.2456
     76  N        -76.7740   16.4640  -91.2760 N.3   172  GLY172     -0.1210
     77  CA       -75.6410   16.9930  -90.5360 C.3   172  GLY172      0.1956
     78  C        -76.0510   17.5120  -89.1590 C.2   172  GLY172      0.2612
     79  O        -77.1350   17.2150  -88.6750 O.2   172  GLY172     -0.2717
     80  N        -75.1750   18.2950  -88.5350 N.am  173  GLY173     -0.1942
     81  CA       -75.4350   18.8960  -87.2360 C.3   173  GLY173      0.2014
     82  C        -76.4780   19.9960  -87.2820 C.2   173  GLY173      0.2640
     83  O        -77.2880   20.1210  -86.3730 O.2   173  GLY173     -0.2714
     84  N        -76.4720   20.7870  -88.3460 N.am  174  THR174     -0.1936
     85  CA       -77.4210   21.8850  -88.4660 C.3   174  THR174      0.2028
     86  C        -78.5750   21.6250  -89.4320 C.2   174  THR174      0.2642
     87  O        -79.7000   22.0650  -89.2010 O.2   174  THR174     -0.2714
     88  CB       -76.7270   23.1350  -88.9650 C.3   174  THR174      0.1808
     89  OG1      -75.6770   23.4720  -88.0600 O.3   174  THR174     -0.2208
     90  CG2      -77.7240   24.2950  -89.0700 C.3   174  THR174      0.0379
     91  N        -78.2860   20.9350  -90.5250 N.am  175  THR175     -0.1950
     92  CA       -79.2150   20.8940  -91.6450 C.3   175  THR175      0.1897
     93  C        -79.5190   19.4950  -92.1550 C.2   175  THR175      0.2313
     94  O        -78.6740   18.5950  -92.0940 O.2   175  THR175     -0.2863
     95  CB       -78.6480   21.6920  -92.8200 C.3   175  THR175      0.1794
     96  OG1      -78.2860   23.0080  -92.3750 O.3   175  THR175     -0.2208
     97  CG2      -79.6620   21.7850  -93.9500 C.3   175  THR175      0.0378
     98  N        -80.1180   18.0990  -95.6460 N.3   177  ASP177     -0.1239
     99  CA       -79.9680   18.3680  -97.0730 C.3   177  ASP177      0.1674
    100  C        -80.4300   17.1550  -97.8590 C.2   177  ASP177      0.2266
    101  O        -79.7240   16.1460  -97.9000 O.2   177  ASP177     -0.2867
    102  CB       -78.5020   18.5970  -97.4370 C.3   177  ASP177      0.1410
    103  CG       -77.9910   19.9600  -97.0160 C.2   177  ASP177      0.3668
    104  OD1      -78.2120   20.9450  -97.7620 O.co2 177  ASP177     -0.2456
    105  OD2      -77.3360   20.0380  -95.9520 O.co2 177  ASP177     -0.2456
    106  N        -78.9000   17.2660  -86.2930 N.3   199  VAL199     -0.1245
    107  CA       -78.6060   16.5400  -85.0770 C.3   199  VAL199      0.1561
    108  C        -78.4800   17.5050  -83.8780 C.2   199  VAL199      0.2260
    109  O        -78.5610   17.0640  -82.7400 O.2   199  VAL199     -0.2867
    110  CB       -77.3330   15.7000  -85.2280 C.3   199  VAL199      0.0252
    111  CG1      -77.0640   14.8720  -83.9430 C.3   199  VAL199      0.0019
    112  CG2      -77.4610   14.7740  -86.4420 C.3   199  VAL199      0.0019
    113  N        -78.2220   17.3680  -79.8810 N.3   203  THR203     -0.1218
    114  CA       -77.0230   17.8800  -79.2050 C.3   203  THR203      0.1862
    115  C        -77.3680   18.8680  -78.0870 C.2   203  THR203      0.2287
    116  O        -76.9200   18.7050  -76.9370 O.2   203  THR203     -0.2866
    117  CB       -76.0770   18.5620  -80.1940 C.3   203  THR203      0.1770
    118  OG1      -75.8310   17.6800  -81.2980 O.3   203  THR203     -0.2211
    119  CG2      -74.7510   18.9160  -79.5100 C.3   203  THR203      0.0375
    120  N        -72.0580   15.8740  -78.1050 N.3   223  ASP223     -0.1239
    121  CA       -71.9660   14.9400  -79.2130 C.3   223  ASP223      0.1674
    122  C        -71.1580   13.7150  -78.8620 C.2   223  ASP223      0.2266
    123  O        -71.4440   12.6150  -79.3260 O.2   223  ASP223     -0.2867
    124  CB       -71.3270   15.6090  -80.4250 C.3   223  ASP223      0.1410
    125  CG       -72.3130   16.4170  -81.1970 C.2   223  ASP223      0.3668
    126  OD1      -73.5260   16.2140  -80.9860 O.co2 223  ASP223     -0.2456
    127  OD2      -71.8860   17.2520  -82.0050 O.co2 223  ASP223     -0.2456
    128  N        -73.6000   11.5520  -77.3010 N.3   226  ILE226     -0.1231
    129  CA       -74.5010   10.9860  -78.2980 C.3   226  ILE226      0.1692
    130  C        -73.8050    9.8340  -79.0050 C.2   226  ILE226      0.2591
    131  O        -74.3690    8.7540  -79.1780 O.2   226  ILE226     -0.2718
    132  CB       -74.9280   12.0360  -79.3290 C.3   226  ILE226      0.0266
    133  CG1      -75.7920   13.1180  -78.6630 C.3   226  ILE226      0.0019
    134  CG2      -75.6950   11.3930  -80.4820 C.3   226  ILE226      0.0020
    135  CD1      -76.1980   14.2540  -79.6170 C.3   226  ILE226      0.0001
    136  N        -72.5590   10.0690  -79.3880 N.am  227  ILE227     -0.1980
    137  CA       -71.7930    9.0830  -80.1260 C.3   227  ILE227      0.1595
    138  C        -71.5740    7.8060  -79.3110 C.2   227  ILE227      0.2287
    139  O        -71.6740    6.7060  -79.8420 O.2   227  ILE227     -0.2864
    140  CB       -70.4540    9.6720  -80.5720 C.3   227  ILE227      0.0276
    141  CG1      -70.6990   10.6670  -81.7170 C.3   227  ILE227      0.0022
    142  CG2      -69.5100    8.5600  -81.0050 C.3   227  ILE227      0.0022
    143  CD1      -69.5840   11.6540  -81.9220 C.3   227  ILE227      0.0001
    144  N        -73.4510    6.6910  -76.8110 N.3   229  ARG229     -0.1245
    145  CA       -74.6590    6.5960  -75.9920 C.3   229  ARG229      0.1563
    146  C        -75.0100    5.1810  -75.5300 C.2   229  ARG229      0.2260
    147  O        -75.5250    5.0170  -74.4300 O.2   229  ARG229     -0.2867
    148  CB       -75.8540    7.1930  -76.7310 C.3   229  ARG229      0.0307
    149  CG       -76.2520    6.4140  -77.9680 C.3   229  ARG229      0.0489
    150  CD       -77.3270    7.1270  -78.7800 C.3   229  ARG229      0.2205
    151  NE       -77.5480    6.4640  -80.0670 N.pl3 229  ARG229     -0.0865
    152  CZ       -76.6570    6.4290  -81.0560 C.cat 229  ARG229      0.5346
    153  NH1      -75.4790    7.0140  -80.9110 N.pl3 229  ARG229      0.1354
    154  NH2      -76.9360    5.7980  -82.1920 N.pl3 229  ARG229      0.1354
    155  N        -73.7410   11.6710  -93.9520 N.3   280  GLY280     -0.1210
    156  CA       -73.5980   12.6280  -92.8660 C.3   280  GLY280      0.1956
    157  C        -73.4180   11.9220  -91.5380 C.2   280  GLY280      0.2612
    158  O        -73.6340   10.7120  -91.4350 O.2   280  GLY280     -0.2717
    159  N        -73.0000   12.6680  -90.5220 N.am  281  GLY281     -0.1942
    160  CA       -72.8840   12.1140  -89.1830 C.3   281  GLY281      0.2014
    161  C        -74.2170   11.5990  -88.6760 C.2   281  GLY281      0.2639
    162  O        -74.2830   10.6060  -87.9610 O.2   281  GLY281     -0.2714
    163  N        -75.2930   12.2870  -89.0390 N.am  282  GLY282     -0.1954
    164  CA       -76.6310   11.8430  -88.6730 C.3   282  GLY282      0.1869
    165  C        -77.0460   10.4920  -89.2450 C.2   282  GLY282      0.2309
    166  O        -77.9450    9.8500  -88.7070 O.2   282  GLY282     -0.2863
    167  N        -75.7820    7.6490  -89.0790 N.3   284  GLU284     -0.1231
    168  CA       -75.6690    6.5900  -88.0800 C.3   284  GLU284      0.1699
    169  C        -76.8990    6.5380  -87.1600 C.2   284  GLU284      0.2592
    170  O        -77.2060    5.4870  -86.5940 O.2   284  GLU284     -0.2718
    171  CB       -74.3980    6.7820  -87.2500 C.3   284  GLU284      0.0402
    172  CG       -73.1580    7.1420  -88.0770 C.3   284  GLU284      0.1161
    173  CD       -72.6180    5.9660  -88.8750 C.2   284  GLU284      0.3649
    174  OE1      -72.9290    4.8090  -88.5140 O.co2 284  GLU284     -0.2457
    175  OE2      -71.8720    6.1890  -89.8570 O.co2 284  GLU284     -0.2457
    176  N        -77.6060    7.6640  -87.0260 N.am  285  LEU285     -0.1980
    177  CA       -78.7710    7.7480  -86.1400 C.3   285  LEU285      0.1596
    178  C        -80.0900    7.3440  -86.8090 C.2   285  LEU285      0.2287
    179  O        -80.9390    6.7330  -86.1680 O.2   285  LEU285     -0.2864
    180  CB       -78.9340    9.1720  -85.5800 C.3   285  LEU285      0.0297
    181  CG       -77.7720    9.7550  -84.7780 C.3   285  LEU285      0.0022
    182  CD1      -78.1000   11.1750  -84.3710 C.3   285  LEU285      0.0001
    183  CD2      -77.4600    8.9000  -83.5530 C.3   285  LEU285      0.0001
    184  N        -69.8370    9.9110  -92.3270 N.3   308  GLN308     -0.1245
    185  CA       -69.4450   11.3020  -92.0930 C.3   308  GLN308      0.1566
    186  C        -68.5330   11.8930  -93.1960 C.2   308  GLN308      0.2260
    187  O        -68.4760   13.1190  -93.3610 O.2   308  GLN308     -0.2867
    188  CB       -68.7770   11.4040  -90.7140 C.3   308  GLN308      0.0367
    189  CG       -68.5600   12.8070  -90.2040 C.3   308  GLN308      0.0905
    190  CD       -68.4640   12.8640  -88.6720 C.2   308  GLN308      0.2608
    191  OE1      -67.9460   11.9520  -88.0210 O.2   308  GLN308     -0.2717
    192  NE2      -68.9630   13.9400  -88.1050 N.am  308  GLN308     -0.0878
@<TRIPOS>BOND
     1    62    61    2
     2    59    60    1
     3    61    60    1
     4    55    54    2
     5    60    63    1
     6    54    53    1
     7    63    64    1
     8    52    53    1
     9    52    58    1
    10    53    56    1
    11    64    65    1
    12   101   100    2
    13   100    99    1
    14   104   103   ar
    15   102    99    1
    16   102   103    1
    17    99    98    1
    18   103   105   ar
    19    56    57    1
    20    58    57    1
    21    75    73   ar
    22     1     2    1
    23    72    73    1
    24    72    69    1
    25    65    67   ar
    26    65    66   ar
    27    68    69    1
    28     2     5    1
    29     2     3    1
    30     5     6    1
    31    73    74   ar
    32     7     6   ar
    33     6     8   ar
    34    69    70    1
    35    50    49    2
    36     3     4    2
    37    37    36    2
    38    47    48    1
    39    47    44    1
    40    46    45    2
    41    49    48    1
    42    49    51   am
    43    70    71    2
    44    45    44    1
    45    36    35    1
    46   155   156    1
    47    97    95    1
    48    44    43    1
    49   187   186    2
    50    38    35    1
    51    38    39    1
    52   186   185    1
    53    35    34    1
    54   156   157    1
    55    95    96    1
    56    95    92    1
    57     9    10    1
    58   184   185    1
    59    10    11    1
    60    93    94    2
    61    93    92    1
    62    39    40    1
    63   185   188    1
    64    40    41    1
    65    41    42    1
    66    92    91    1
    67   157   158    2
    68   157   159   am
    69    76    77    1
    70    11    13   am
    71    11    12    2
    72   188   189    1
    73    77    78    1
    74    91    86   am
    75   159   160    1
    76    29    28    2
    77    13    14    1
    78   189   190    1
    79   175   173   ar
    80    28    27    1
    81    86    87    2
    82    86    85    1
    83   165   166    2
    84   165   164    1
    85   160   161    1
    86    78    79    2
    87    78    80   am
    88    14    17    1
    89    14    15    1
    90   167   168    1
    91    90    88    1
    92   163   161   am
    93   163   164    1
    94    88    85    1
    95    88    89    1
    96    17    18    1
    97   173   174   ar
    98   173   172    1
    99   161   162    2
   100   190   192   am
   101   190   191    2
   102    80    81    1
   103    85    84    1
   104    84    82   am
   105    27    30    1
   106    27    26    1
   107   168   171    1
   108   168   169    1
   109   172   171    1
   110    30    31    1
   111    15    19   am
   112    15    16    2
   113    26    21   am
   114    19    20    1
   115    82    81    1
   116    82    83    2
   117   169   176   am
   118   169   170    2
   119   176   177    1
   120   178   179    2
   121   178   177    1
   122    21    20    1
   123    21    22    2
   124    31    33   am
   125    31    32    2
   126    20    23    1
   127    24    23    1
   128   112   110    1
   129    23    25    1
   130   106   107    1
   131   177   180    1
   132   180   181    1
   133   110   107    1
   134   110   111    1
   135   107   108    1
   136   181   182    1
   137   181   183    1
   138   108   109    2
   139   154   152    1
   140   127   125   ar
   141   143   141    1
   142   141   140    1
   143   118   117    1
   144   125   126   ar
   145   125   124    1
   146   152   153    1
   147   152   151    2
   148   142   140    1
   149   140   137    1
   150   134   132    1
   151   124   121    1
   152   117   119    1
   153   117   114    1
   154   137   136    1
   155   137   138    1
   156   151   150    1
   157   113   114    1
   158   139   138    2
   159   135   133    1
   160   136   130   am
   161   132   133    1
   162   132   129    1
   163   123   122    2
   164   121   122    1
   165   121   120    1
   166   114   115    1
   167   131   130    2
   168   130   129    1
   169   150   149    1
   170   129   128    1
   171   115   116    2
   172   149   148    1
   173   144   145    1
   174   148   145    1
   175   145   146    1
   176   146   147    2
