@<TRIPOS>MOLECULE
tmp/4a62B00.pdb
 209 202 0 0 0
SMALL
GASTEIGER

@<TRIPOS>ATOM
      1  N        -59.5360   18.9420 -100.4090 N.3     4  PHE4       -0.1241
      2  CA       -60.9910   19.0180 -100.3790 C.3     4  PHE4        0.1605
      3  C        -61.4600   19.1930  -98.9380 C.2     4  PHE4        0.2264
      4  O        -60.9730   18.5290  -98.0220 O.2     4  PHE4       -0.2867
      5  CB       -61.6100   17.8030 -101.0590 C.3     4  PHE4        0.0534
      6  CG       -61.3030   17.7420 -102.5290 C.ar    4  PHE4       -0.0203
      7  CD1      -60.1290   17.1600 -102.9800 C.ar    4  PHE4       -0.0042
      8  CD2      -62.1660   18.3070 -103.4510 C.ar    4  PHE4       -0.0042
      9  CE1      -59.8310   17.1220 -104.3270 C.ar    4  PHE4       -0.0003
     10  CE2      -61.8760   18.2710 -104.8070 C.ar    4  PHE4       -0.0003
     11  CZ       -60.7080   17.6800 -105.2410 C.ar    4  PHE4       -0.0000
     12  N        -61.3250   23.1640 -102.2990 N.3    99  VAL99      -0.1245
     13  CA       -62.7140   23.0770 -102.7330 C.3    99  VAL99       0.1561
     14  C        -63.5680   22.8730 -101.4900 C.2    99  VAL99       0.2260
     15  O        -63.3410   21.9360 -100.7270 O.2    99  VAL99      -0.2867
     16  CB       -62.9430   21.9080 -103.7140 C.3    99  VAL99       0.0252
     17  CG1      -64.4190   21.7960 -104.0810 C.3    99  VAL99       0.0019
     18  CG2      -62.0890   22.0880 -104.9720 C.3    99  VAL99       0.0019
     19  N        -76.3290   27.0660 -102.0900 N.3   107  TYR107     -0.1227
     20  CA       -75.5990   26.9060 -103.3330 C.3   107  TYR107      0.1736
     21  C        -76.5350   27.1450 -104.5200 C.2   107  TYR107      0.2595
     22  O        -76.1010   27.6120 -105.5630 O.2   107  TYR107     -0.2718
     23  CB       -74.9830   25.5110 -103.4080 C.3   107  TYR107      0.0548
     24  CG       -74.1300   25.2700 -104.6410 C.ar  107  TYR107     -0.0200
     25  CD1      -74.7070   24.9230 -105.8590 C.ar  107  TYR107     -0.0009
     26  CD2      -72.7520   25.3820 -104.5840 C.ar  107  TYR107     -0.0009
     27  CE1      -73.9290   24.6970 -106.9850 C.ar  107  TYR107      0.0417
     28  CE2      -71.9700   25.1580 -105.6970 C.ar  107  TYR107      0.0417
     29  CZ       -72.5640   24.8190 -106.8950 C.ar  107  TYR107      0.1957
     30  OH       -71.7800   24.5930 -108.0010 O.3   107  TYR107     -0.2866
     31  N        -77.8170   26.8460 -104.3310 N.am  108  TYR108     -0.1976
     32  CA       -78.8070   26.8810 -105.4010 C.3   108  TYR108      0.1639
     33  C        -79.9130   27.8670 -105.1360 C.2   108  TYR108      0.2290
     34  O        -80.4720   27.9000 -104.0360 O.2   108  TYR108     -0.2864
     35  CB       -79.4650   25.5130 -105.5410 C.3   108  TYR108      0.0560
     36  CG       -78.5420   24.4710 -106.0940 C.ar  108  TYR108     -0.0198
     37  CD1      -78.1910   24.4760 -107.4420 C.ar  108  TYR108     -0.0009
     38  CD2      -78.0250   23.4770 -105.2810 C.ar  108  TYR108     -0.0009
     39  CE1      -77.3470   23.5250 -107.9570 C.ar  108  TYR108      0.0417
     40  CE2      -77.1810   22.5180 -105.7890 C.ar  108  TYR108      0.0417
     41  CZ       -76.8460   22.5440 -107.1270 C.ar  108  TYR108      0.1957
     42  OH       -75.9950   21.5940 -107.6300 O.3   108  TYR108     -0.2866
     43  N        -77.2700   27.3930 -109.7280 N.3   114  PRO114     -0.2116
     44  CA       -76.2100   27.8520 -108.8270 C.3   114  PRO114      0.1372
     45  C        -76.4080   29.3140 -108.4280 C.2   114  PRO114      0.2244
     46  O        -76.2550   30.1860 -109.2880 O.2   114  PRO114     -0.2868
     47  CB       -74.9450   27.7050 -109.6750 C.3   114  PRO114      0.0268
     48  CG       -75.2760   26.6360 -110.6680 C.3   114  PRO114      0.0207
     49  CD       -76.7360   26.7750 -110.9540 C.3   114  PRO114      0.0892
     50  N        -71.9890   31.9070 -103.8710 N.3   119  ILE119     -0.1245
     51  CA       -70.8090   31.1300 -104.1990 C.3   119  ILE119      0.1561
     52  C        -69.5270   31.9630 -104.1720 C.2   119  ILE119      0.2260
     53  O        -68.4970   31.4880 -103.7010 O.2   119  ILE119     -0.2867
     54  CB       -70.9770   30.4310 -105.5550 C.3   119  ILE119      0.0252
     55  CG1      -72.1470   29.4460 -105.4750 C.3   119  ILE119      0.0019
     56  CG2      -69.6940   29.7040 -105.9440 C.3   119  ILE119      0.0019
     57  CD1      -72.6660   28.9820 -106.8180 C.3   119  ILE119      0.0001
     58  N        -66.3800   32.3170 -101.3580 N.3   123  LYS123     -0.1245
     59  CA       -64.9730   32.2860 -101.7270 C.3   123  LYS123      0.1561
     60  C        -64.2380   33.4800 -101.1260 C.2   123  LYS123      0.2260
     61  O        -63.0620   33.3860 -100.7700 O.2   123  LYS123     -0.2867
     62  CB       -64.8360   32.2510 -103.2480 C.3   123  LYS123      0.0271
     63  CG       -65.7290   31.1930 -103.8780 C.3   123  LYS123      0.0035
     64  CD       -65.9350   31.3900 -105.3680 C.3   123  LYS123      0.0206
     65  CE       -64.9350   30.5680 -106.1470 C.3   123  LYS123      0.1093
     66  NZ       -65.4550   30.1880 -107.4820 N.3   123  LYS123     -0.1314
     67  N        -62.7410   27.0420 -104.7410 N.3   144  LYS144     -0.1231
     68  CA       -63.9300   26.5970 -105.4600 C.3   144  LYS144      0.1693
     69  C        -64.9660   25.9750 -104.5220 C.2   144  LYS144      0.2592
     70  O        -64.6360   25.4570 -103.4540 O.2   144  LYS144     -0.2718
     71  CB       -63.5490   25.6180 -106.5630 C.3   144  LYS144      0.0285
     72  CG       -62.9480   26.3040 -107.7750 C.3   144  LYS144      0.0035
     73  CD       -62.3830   25.2940 -108.7420 C.3   144  LYS144      0.0206
     74  CE       -62.0330   25.9400 -110.0660 C.3   144  LYS144      0.1093
     75  NZ       -61.9080   24.9090 -111.1330 N.3   144  LYS144     -0.1314
     76  N        -66.2240   26.0360 -104.9420 N.am  145  VAL145     -0.1966
     77  CA       -67.3420   25.5890 -104.1260 C.3   145  VAL145      0.1727
     78  C        -68.1020   24.4350 -104.8030 C.2   145  VAL145      0.2616
     79  O        -68.1410   24.3370 -106.0280 O.2   145  VAL145     -0.2715
     80  CB       -68.3150   26.7640 -103.8710 C.3   145  VAL145      0.0290
     81  CG1      -69.3820   26.3750 -102.8700 C.3   145  VAL145      0.0023
     82  CG2      -67.5520   27.9990 -103.3850 C.3   145  VAL145      0.0023
     83  N        -68.6920   23.5610 -103.9920 N.am  146  MET146     -0.1964
     84  CA       -69.5910   22.5150 -104.4700 C.3   146  MET146      0.1722
     85  C        -70.7960   22.4850 -103.5430 C.2   146  MET146      0.2458
     86  O        -70.6990   22.9110 -102.3990 O.2   146  MET146     -0.2730
     87  CB       -68.8920   21.1560 -104.4570 C.3   146  MET146      0.0427
     88  CG       -67.6490   21.0980 -105.3230 C.3   146  MET146      0.0599
     89  SD       -66.9910   19.4370 -105.5240 S.3   146  MET146     -0.1393
     90  CE       -68.3360   18.6130 -106.3710 C.3   146  MET146      0.0692
     91  N        -71.9420   21.9890 -104.0260 N.am  147  PRO147     -0.2727
     92  CA       -73.1000   21.9130 -103.1250 C.3   147  PRO147      0.1402
     93  C        -72.9460   20.7570 -102.1320 C.2   147  PRO147      0.2269
     94  O        -72.1030   19.8800 -102.3370 O.2   147  PRO147     -0.2865
     95  CB       -74.2680   21.6610 -104.0810 C.3   147  PRO147      0.0296
     96  CG       -73.6560   20.9020 -105.2070 C.3   147  PRO147      0.0237
     97  CD       -72.2310   21.4050 -105.3470 C.3   147  PRO147      0.0939
     98  N        -75.1280   16.2230 -102.8220 N.3   150  ILE150     -0.1231
     99  CA       -75.0820   15.6500 -104.1700 C.3   150  ILE150      0.1678
    100  C        -73.7640   14.9320 -104.4980 C.2   150  ILE150      0.2434
    101  O        -73.7780   13.8110 -105.0070 O.2   150  ILE150     -0.2733
    102  CB       -75.4070   16.7220 -105.2500 C.3   150  ILE150      0.0265
    103  CG1      -76.8570   17.1890 -105.1000 C.3   150  ILE150      0.0019
    104  CG2      -75.1940   16.1550 -106.6540 C.3   150  ILE150      0.0020
    105  CD1      -77.2190   18.3950 -105.9430 C.3   150  ILE150      0.0001
    106  N        -72.6170   15.5580 -104.1980 N.am  151  PRO151     -0.2729
    107  CA       -71.3630   14.8850 -104.5650 C.3   151  PRO151      0.1401
    108  C        -71.1700   13.5000 -103.9240 C.2   151  PRO151      0.2269
    109  O        -70.4050   12.6920 -104.4650 O.2   151  PRO151     -0.2865
    110  CB       -70.2850   15.8680 -104.0870 C.3   151  PRO151      0.0296
    111  CG       -70.9600   17.2050 -104.0900 C.3   151  PRO151      0.0237
    112  CD       -72.3860   16.9190 -103.6820 C.3   151  PRO151      0.0939
    113  N        -71.6590   10.3170 -106.1720 N.3   154  TYR154     -0.1241
    114  CA       -70.9070   10.2060 -107.4150 C.3   154  TYR154      0.1605
    115  C        -70.7520    8.7550 -107.8760 C.2   154  TYR154      0.2264
    116  O        -71.2060    8.3970 -108.9640 O.2   154  TYR154     -0.2867
    117  CB       -69.5370   10.8660 -107.2710 C.3   154  TYR154      0.0534
    118  CG       -68.6500   10.7280 -108.4860 C.ar  154  TYR154     -0.0201
    119  CD1      -68.9760   11.3460 -109.6890 C.ar  154  TYR154     -0.0009
    120  CD2      -67.4760    9.9890 -108.4240 C.ar  154  TYR154     -0.0009
    121  CE1      -68.1560   11.2240 -110.7970 C.ar  154  TYR154      0.0417
    122  CE2      -66.6550    9.8600 -109.5200 C.ar  154  TYR154      0.0417
    123  CZ       -66.9950   10.4800 -110.7050 C.ar  154  TYR154      0.1957
    124  OH       -66.1640   10.3390 -111.7940 O.3   154  TYR154     -0.2866
    125  N        -74.1480    7.0350 -108.5780 N.3   157  LEU157     -0.1231
    126  CA       -74.7850    7.6010 -109.7580 C.3   157  LEU157      0.1693
    127  C        -74.1680    7.0610 -111.0460 C.2   157  LEU157      0.2591
    128  O        -74.8710    6.8550 -112.0250 O.2   157  LEU157     -0.2718
    129  CB       -74.6830    9.1240 -109.7380 C.3   157  LEU157      0.0284
    130  CG       -75.5020    9.8560 -108.6760 C.3   157  LEU157      0.0019
    131  CD1      -75.1880   11.3330 -108.7430 C.3   157  LEU157      0.0001
    132  CD2      -76.9900    9.6190 -108.8560 C.3   157  LEU157      0.0001
    133  N        -72.8600    6.8310 -111.0430 N.am  158  GLN158     -0.1979
    134  CA       -72.1710    6.3230 -112.2260 C.3   158  GLN158      0.1601
    135  C        -72.9000    5.1440 -112.8770 C.2   158  GLN158      0.2287
    136  O        -72.7880    4.9310 -114.0840 O.2   158  GLN158     -0.2864
    137  CB       -70.7450    5.8860 -111.8770 C.3   158  GLN158      0.0394
    138  CG       -69.7680    7.0180 -111.6210 C.3   158  GLN158      0.0908
    139  CD       -68.3650    6.5080 -111.4170 C.2   158  GLN158      0.2608
    140  OE1      -68.0810    5.3420 -111.6650 O.2   158  GLN158     -0.2717
    141  NE2      -67.4780    7.3730 -110.9570 N.am  158  GLN158     -0.0878
    142  N        -80.2760    6.7880 -116.4030 N.3   162  GLU162     -0.1245
    143  CA       -80.5760    8.1990 -116.2260 C.3   162  GLU162      0.1567
    144  C        -82.0490    8.4210 -115.9220 C.2   162  GLU162      0.2260
    145  O        -82.4430    9.5020 -115.4820 O.2   162  GLU162     -0.2867
    146  CB       -80.1560    8.9750 -117.4660 C.3   162  GLU162      0.0388
    147  CG       -78.6690    8.8700 -117.7460 C.3   162  GLU162      0.1160
    148  CD       -78.3450    9.0330 -119.2130 C.2   162  GLU162      0.3649
    149  OE1      -78.8340   10.0110 -119.8210 O.co2 162  GLU162     -0.2457
    150  OE2      -77.6140    8.1750 -119.7580 O.co2 162  GLU162     -0.2457
    151  N        -76.3150    8.8840 -113.5050 N.3   184  LYS184     -0.1231
    152  CA       -75.1190    9.5120 -114.0670 C.3   184  LYS184      0.1693
    153  C        -75.1230   11.0260 -113.8700 C.2   184  LYS184      0.2592
    154  O        -74.4680   11.7600 -114.6100 O.2   184  LYS184     -0.2718
    155  CB       -74.9750    9.1750 -115.5530 C.3   184  LYS184      0.0285
    156  CG       -74.7980    7.6860 -115.8240 C.3   184  LYS184      0.0035
    157  CD       -74.8000    7.3810 -117.3090 C.3   184  LYS184      0.0206
    158  CE       -74.9350    5.8920 -117.5630 C.3   184  LYS184      0.1093
    159  NZ       -76.2570    5.3640 -117.1150 N.3   184  LYS184     -0.1314
    160  N        -75.8500   11.4910 -112.8600 N.am  185  LEU185     -0.1966
    161  CA       -75.8950   12.9130 -112.5620 C.3   185  LEU185      0.1728
    162  C        -76.3260   13.6820 -113.8140 C.2   185  LEU185      0.2616
    163  O        -75.8160   14.7640 -114.1060 O.2   185  LEU185     -0.2715
    164  CB       -74.5180   13.3840 -112.0850 C.3   185  LEU185      0.0311
    165  CG       -74.4980   14.1310 -110.7520 C.3   185  LEU185      0.0022
    166  CD1      -73.0830   14.1880 -110.1930 C.3   185  LEU185      0.0001
    167  CD2      -75.0910   15.5280 -110.9130 C.3   185  LEU185      0.0001
    168  N        -77.2700   13.1040 -114.5490 N.am  186  SER186     -0.1950
    169  CA       -77.7480   13.6970 -115.7910 C.3   186  SER186      0.1924
    170  C        -78.7990   14.7710 -115.5220 C.2   186  SER186      0.2314
    171  O        -79.4350   15.2680 -116.4500 O.2   186  SER186     -0.2863
    172  CB       -78.3210   12.6140 -116.7130 C.3   186  SER186      0.2116
    173  OG       -79.5280   12.0810 -116.1950 O.3   186  SER186     -0.2180
    174  N        -80.9360   17.2540 -111.9920 N.3   188  ILE188     -0.1245
    175  CA       -81.4510   17.3380 -110.6390 C.3   188  ILE188      0.1561
    176  C        -82.9370   17.5530 -110.6980 C.2   188  ILE188      0.2260
    177  O        -83.3940   18.5210 -111.2850 O.2   188  ILE188     -0.2867
    178  CB       -80.8160   18.5040 -109.8560 C.3   188  ILE188      0.0252
    179  CG1      -79.3610   18.1890 -109.5240 C.3   188  ILE188      0.0019
    180  CG2      -81.5920   18.7800 -108.5730 C.3   188  ILE188      0.0019
    181  CD1      -78.3930   18.5910 -110.6060 C.3   188  ILE188      0.0001
    182  N        -63.2100   12.5850 -105.4840 N.3   317  LEU317     -0.1231
    183  CA       -63.3670   11.7580 -106.6760 C.3   317  LEU317      0.1693
    184  C        -63.7870   12.5750 -107.8990 C.2   317  LEU317      0.2592
    185  O        -63.4570   12.2150 -109.0270 O.2   317  LEU317     -0.2718
    186  CB       -64.3920   10.6480 -106.4230 C.3   317  LEU317      0.0284
    187  CG       -64.0010    9.6430 -105.3400 C.3   317  LEU317      0.0019
    188  CD1      -65.0530    8.5420 -105.2010 C.3   317  LEU317      0.0001
    189  CD2      -62.6360    9.0480 -105.6450 C.3   317  LEU317      0.0001
    190  N        -64.5120   13.6690 -107.6840 N.am  318  ILE318     -0.1966
    191  CA       -64.9920   14.4860 -108.7960 C.3   318  ILE318      0.1727
    192  C        -63.9770   15.5230 -109.2820 C.2   318  ILE318      0.2617
    193  O        -64.0220   15.9250 -110.4410 O.2   318  ILE318     -0.2715
    194  CB       -66.2840   15.2430 -108.4400 C.3   318  ILE318      0.0290
    195  CG1      -67.4260   14.2730 -108.1760 C.3   318  ILE318      0.0022
    196  CG2      -66.6840   16.1680 -109.5660 C.3   318  ILE318      0.0023
    197  CD1      -68.7020   14.9690 -107.8040 C.3   318  ILE318      0.0001
    198  N        -63.0680   15.9620 -108.4150 N.am  319  GLY319     -0.1940
    199  CA       -62.2030   17.0790 -108.7630 C.3   319  GLY319      0.2014
    200  C        -60.7140   16.9540 -108.4660 C.2   319  GLY319      0.2638
    201  O        -59.9880   17.9410 -108.5590 O.2   319  GLY319     -0.2714
    202  N        -60.2390   15.7660 -108.1140 N.am  320  ASN320     -0.1972
    203  CA       -58.8140   15.6070 -107.8360 C.3   320  ASN320      0.1688
    204  C        -58.0370   15.2180 -109.0860 C.2   320  ASN320      0.2292
    205  O        -57.1640   15.9640 -109.5360 O.2   320  ASN320     -0.2864
    206  CB       -58.5700   14.5690 -106.7390 C.3   320  ASN320      0.1181
    207  CG       -57.0990   14.4440 -106.3790 C.2   320  ASN320      0.2629
    208  OD1      -56.5600   15.2580 -105.6250 O.2   320  ASN320     -0.2716
    209  ND2      -56.4370   13.4300 -106.9320 N.am  320  ASN320     -0.0877
@<TRIPOS>BOND
     1   149   148   ar
     2   150   148   ar
     3   148   147    1
     4   147   146    1
     5   158   157    1
     6   158   159    1
     7   146   143    1
     8   157   156    1
     9   172   173    1
    10   172   169    1
    11   171   170    2
    12   142   143    1
    13   143   144    1
    14   144   145    2
    15   156   155    1
    16   169   170    1
    17   169   168    1
    18   155   152    1
    19   154   153    2
    20   168   162   am
    21   163   162    2
    22   136   135    2
    23   152   153    1
    24   152   151    1
    25   153   160   am
    26   162   161    1
    27   135   134    1
    28   160   161    1
    29   161   164    1
    30   134   137    1
    31   134   133    1
    32   164   165    1
    33   128   127    2
    34   174   175    1
    35   137   138    1
    36   124   123    1
    37   140   139    2
    38   138   139    1
    39   139   141   am
    40   177   176    2
    41    75    74    1
    42   127   133   am
    43   127   126    1
    44    49    48    1
    45    49    43    1
    46   167   165    1
    47   121   123   ar
    48   121   119   ar
    49   165   166    1
    50   123   122   ar
    51   176   175    1
    52    48    47    1
    53   175   178    1
    54   181   179    1
    55   193   192    2
    56    74    73    1
    57   178   179    1
    58   178   180    1
    59   126   129    1
    60   126   125    1
    61   129   130    1
    62    43    44    1
    63   119   118   ar
    64    47    44    1
    65   196   194    1
    66   205   204    2
    67   122   120   ar
    68    46    45    2
    69   192   191    1
    70   192   198   am
    71   204   203    1
    72   185   184    2
    73   116   115    2
    74   132   130    1
    75    44    45    1
    76   191   194    1
    77   191   190    1
    78   199   200    1
    79   199   198    1
    80   131   130    1
    81    73    72    1
    82   201   200    2
    83   118   120   ar
    84   118   117    1
    85   200   202   am
    86   194   195    1
    87   195   197    1
    88   202   203    1
    89    30    29    1
    90    39    37   ar
    91    39    41   ar
    92   184   190   am
    93   184   183    1
    94   115   114    1
    95   203   206    1
    96    72    71    1
    97    42    41    1
    98    66    65    1
    99    37    36   ar
   100   114   117    1
   101   114   113    1
   102    41    40   ar
   103    27    29   ar
   104    27    25   ar
   105   209   207   am
   106    29    28   ar
   107    57    55    1
   108   206   207    1
   109   183   186    1
   110   183   182    1
   111   104   102    1
   112    71    68    1
   113   186   187    1
   114   207   208    2
   115    90    89    1
   116    65    64    1
   117    36    35    1
   118    36    38   ar
   119    79    78    2
   120    56    54    1
   121   105   103    1
   122    25    24   ar
   123    40    38   ar
   124    28    26   ar
   125   189   187    1
   126    22    21    2
   127    54    55    1
   128    54    51    1
   129    35    32    1
   130    89    88    1
   131    68    67    1
   132    68    69    1
   133    32    33    1
   134    32    31    1
   135    64    63    1
   136    97    96    1
   137    97    91    1
   138   187   188    1
   139    88    87    1
   140   102   103    1
   141   102    99    1
   142    11    10   ar
   143    11     9   ar
   144    96    95    1
   145    33    34    2
   146   101   100    2
   147    18    16    1
   148    76    69   am
   149    76    77    1
   150    10     8   ar
   151    78    77    1
   152    78    83   am
   153    24    26   ar
   154    24    23    1
   155   107   106    1
   156   107   110    1
   157   107   108    1
   158    69    70    2
   159    21    31   am
   160    21    20    1
   161   100   106   am
   162   100    99    1
   163    84    87    1
   164    84    83    1
   165    84    85    1
   166   109   108    2
   167     9     7   ar
   168    51    52    1
   169    51    50    1
   170   106   112    1
   171    52    53    2
   172    99    98    1
   173    77    80    1
   174   111   110    1
   175   111   112    1
   176    95    92    1
   177    17    16    1
   178    91    85   am
   179    91    92    1
   180    63    62    1
   181    80    82    1
   182    80    81    1
   183    16    13    1
   184    85    86    2
   185     8     6   ar
   186    23    20    1
   187    20    19    1
   188    62    59    1
   189    92    93    1
   190     7     6   ar
   191    13    12    1
   192    13    14    1
   193     6     5    1
   194    94    93    2
   195    59    58    1
   196    59    60    1
   197    14    15    2
   198    60    61    2
   199     5     2    1
   200     1     2    1
   201     2     3    1
   202     3     4    2
