@<TRIPOS>MOLECULE
tmp/4a68A00.pdb
 99 97 0 0 0
SMALL
GASTEIGER

@<TRIPOS>ATOM
      1  N         55.3450  -11.7300    8.2910 N.3   175  LYS175     -0.1231
      2  CA        54.5220  -12.3200    7.2250 C.3   175  LYS175      0.1693
      3  C         53.0480  -11.9250    7.2760 C.2   175  LYS175      0.2592
      4  O         52.1800  -12.7460    6.9860 O.2   175  LYS175     -0.2718
      5  CB        54.6100  -13.8380    7.2780 C.3   175  LYS175      0.0285
      6  CG        55.9980  -14.3810    6.9630 C.3   175  LYS175      0.0035
      7  CD        56.1260  -15.7390    7.6780 C.3   175  LYS175      0.0206
      8  CE        56.5380  -16.8190    6.7270 C.3   175  LYS175      0.1093
      9  NZ        57.9360  -16.5950    6.2760 N.3   175  LYS175     -0.1314
     10  N         52.7550  -10.6680    7.6190 N.am  176  LEU176     -0.1966
     11  CA        51.3840  -10.2080    7.5910 C.3   176  LEU176      0.1713
     12  C         50.9050  -10.2770    6.1360 C.2   176  LEU176      0.2458
     13  O         51.7190  -10.1960    5.2300 O.2   176  LEU176     -0.2730
     14  CB        51.3010   -8.7860    8.1660 C.3   176  LEU176      0.0310
     15  CG        51.8170   -8.7170    9.6230 C.3   176  LEU176      0.0022
     16  CD1       52.2040   -7.2800   10.0520 C.3   176  LEU176      0.0001
     17  CD2       50.8060   -9.3350   10.6430 C.3   176  LEU176      0.0001
     18  N         49.5900  -10.4320    5.9100 N.am  177  PRO177     -0.2716
     19  CA        49.1120  -10.4670    4.5280 C.3   177  PRO177      0.1536
     20  C         49.6200   -9.2280    3.7610 C.2   177  PRO177      0.2599
     21  O         49.6470   -8.1220    4.3280 O.2   177  PRO177     -0.2715
     22  CB        47.5850  -10.4340    4.6730 C.3   177  PRO177      0.0310
     23  CG        47.3050  -10.9880    6.0620 C.3   177  PRO177      0.0237
     24  CD        48.5030  -10.5500    6.9030 C.3   177  PRO177      0.0939
     25  N         50.0350   -9.4110    2.5070 N.am  178  SER178     -0.1936
     26  CA        50.7310   -8.3340    1.8200 C.3   178  SER178      0.2055
     27  C         50.2950   -8.2110    0.3700 C.2   178  SER178      0.2643
     28  O         49.5990   -9.0750   -0.1440 O.2   178  SER178     -0.2714
     29  CB        52.2490   -8.5650    1.8650 C.3   178  SER178      0.2130
     30  OG        52.5610   -9.7090    1.1100 O.3   178  SER178     -0.2179
     31  N         50.7050   -7.1130   -0.2500 N.am  179  ASP179     -0.1957
     32  CA        50.4890   -6.8280   -1.6760 C.3   179  ASP179      0.1840
     33  C         49.0100   -6.8400   -2.0480 C.2   179  ASP179      0.2622
     34  O         48.2500   -6.0560   -1.5250 O.2   179  ASP179     -0.2715
     35  CB        51.3560   -7.7410   -2.5540 C.3   179  ASP179      0.1450
     36  CG        52.8370   -7.6510   -2.1910 C.2   179  ASP179      0.3671
     37  OD1       53.4020   -6.5460   -2.2080 O.co2 179  ASP179     -0.2456
     38  OD2       53.4380   -8.6820   -1.8470 O.co2 179  ASP179     -0.2456
     39  N         48.5720   -7.7570   -2.8950 N.am  180  GLU180     -0.1963
     40  CA        47.1310   -7.7750   -3.2180 C.3   180  GLU180      0.1733
     41  C         46.2180   -8.1450   -2.0430 C.2   180  GLU180      0.2616
     42  O         45.0330   -7.8450   -2.0750 O.2   180  GLU180     -0.2715
     43  CB        46.8250   -8.5750   -4.5000 C.3   180  GLU180      0.0429
     44  CG        47.2610   -9.9950   -4.4960 C.3   180  GLU180      0.1163
     45  CD        48.7510  -10.1890   -4.8300 C.2   180  GLU180      0.3649
     46  OE1       49.6050   -9.3860   -4.4230 O.co2 180  GLU180     -0.2457
     47  OE2       49.0740  -11.1810   -5.5030 O.co2 180  GLU180     -0.2457
     48  N         46.7900   -8.7160   -0.9810 N.am  181  TYR181     -0.1974
     49  CA        46.0190   -9.0770    0.2170 C.3   181  TYR181      0.1639
     50  C         46.1300   -8.0260    1.3190 C.2   181  TYR181      0.2290
     51  O         45.7980   -8.2930    2.4720 O.2   181  TYR181     -0.2864
     52  CB        46.4150  -10.5040    0.6990 C.3   181  TYR181      0.0560
     53  CG        46.2840  -11.4490   -0.4660 C.ar  181  TYR181     -0.0198
     54  CD1       45.0240  -11.8510   -0.9000 C.ar  181  TYR181     -0.0009
     55  CD2       47.3910  -11.8320   -1.2060 C.ar  181  TYR181     -0.0009
     56  CE1       44.8760  -12.6360   -2.0310 C.ar  181  TYR181      0.0417
     57  CE2       47.2580  -12.6580   -2.3430 C.ar  181  TYR181      0.0417
     58  CZ        45.9890  -13.0480   -2.7370 C.ar  181  TYR181      0.1957
     59  OH        45.8160  -13.8250   -3.8630 O.3   181  TYR181     -0.2866
     60  N         40.8700  -16.7370    2.8300 N.3   240  ARG240     -0.1245
     61  CA        42.2210  -16.6760    3.3970 C.3   240  ARG240      0.1563
     62  C         42.3520  -15.3390    4.1720 C.2   240  ARG240      0.2260
     63  O         41.4170  -14.5490    4.2160 O.2   240  ARG240     -0.2867
     64  CB        43.2660  -16.7500    2.2640 C.3   240  ARG240      0.0307
     65  CG        43.1530  -15.5810    1.2460 C.3   240  ARG240      0.0489
     66  CD        44.4840  -15.2760    0.5500 C.3   240  ARG240      0.2205
     67  NE        45.3560  -14.5210    1.4520 N.pl3 240  ARG240     -0.0865
     68  CZ        46.6780  -14.4000    1.3220 C.cat 240  ARG240      0.5346
     69  NH1       47.3180  -14.9870    0.3180 N.pl3 240  ARG240      0.1354
     70  NH2       47.3690  -13.6880    2.2170 N.pl3 240  ARG240      0.1354
     71  N         44.5020  -17.5100   -5.4230 N.3   336  ALA336     -0.1231
     72  CA        45.5800  -17.3250   -6.4120 C.3   336  ALA336      0.1694
     73  C         46.7840  -18.2060   -6.0800 C.2   336  ALA336      0.2591
     74  O         47.5180  -18.6240   -6.9710 O.2   336  ALA336     -0.2718
     75  CB        46.0120  -15.8290   -6.5260 C.3   336  ALA336      0.0304
     76  N         46.9520  -18.5070   -4.7970 N.am  337  GLN337     -0.1979
     77  CA        48.0930  -19.2640   -4.2930 C.3   337  GLN337      0.1601
     78  C         47.7810  -19.6140   -2.8310 C.2   337  GLN337      0.2287
     79  O         46.7700  -19.1190   -2.2570 O.2   337  GLN337     -0.2864
     80  CB        49.3630  -18.4050   -4.3390 C.3   337  GLN337      0.0394
     81  CG        49.2700  -17.2200   -3.3960 C.3   337  GLN337      0.0908
     82  CD        50.6350  -16.6350   -3.0580 C.2   337  GLN337      0.2608
     83  OE1       51.2120  -15.8870   -3.8560 O.2   337  GLN337     -0.2717
     84  NE2       51.1630  -16.9760   -1.8650 N.am  337  GLN337     -0.0878
     85  N         50.2460  -17.8350    2.4410 N.3   340  GLU340     -0.1231
     86  CA        51.5500  -17.8510    3.1360 C.3   340  GLU340      0.1699
     87  C         51.6290  -16.8080    4.2680 C.2   340  GLU340      0.2592
     88  O         52.6830  -16.6330    4.8670 O.2   340  GLU340     -0.2718
     89  CB        52.6800  -17.5670    2.1400 C.3   340  GLU340      0.0402
     90  CG        52.7000  -18.4900    0.9190 C.3   340  GLU340      0.1161
     91  CD        53.3700  -19.8270    1.1780 C.2   340  GLU340      0.3649
     92  OE1       53.6200  -20.1780    2.3530 O.co2 340  GLU340     -0.2457
     93  OE2       53.6510  -20.5290    0.1790 O.co2 340  GLU340     -0.2457
     94  N         50.5080  -16.1400    4.5650 N.am  341  SER341     -0.1952
     95  CA        50.5180  -15.0880    5.5610 C.3   341  SER341      0.1924
     96  C         50.2800  -15.6210    6.9640 C.2   341  SER341      0.2314
     97  O         49.9040  -16.7930    7.1520 O.2   341  SER341     -0.2863
     98  CB        49.5310  -13.9590    5.2140 C.3   341  SER341      0.2116
     99  OG        48.1860  -14.3680    5.3970 O.3   341  SER341     -0.2180
@<TRIPOS>BOND
     1    74    73    2
     2    75    72    1
     3    72    73    1
     4    72    71    1
     5    73    76   am
     6    47    45   ar
     7    45    44    1
     8    45    46   ar
     9    76    77    1
    10    43    44    1
    11    43    40    1
    12    80    77    1
    13    80    81    1
    14    77    78    1
    15    59    58    1
    16    83    82    2
    17    81    82    1
    18    40    39    1
    19    40    41    1
    20    82    84   am
    21    39    33   am
    22    78    79    2
    23    58    57   ar
    24    58    56   ar
    25    35    36    1
    26    35    32    1
    27    57    55   ar
    28    37    36   ar
    29    36    38   ar
    30    42    41    2
    31    33    32    1
    32    33    34    2
    33    41    48   am
    34    56    54   ar
    35    32    31    1
    36    55    53   ar
    37    48    49    1
    38    54    53   ar
    39    53    52    1
    40    31    27   am
    41    28    27    2
    42    93    91   ar
    43    49    52    1
    44    49    50    1
    45    69    68    1
    46    27    26    1
    47    66    65    1
    48    66    67    1
    49    90    91    1
    50    90    89    1
    51    30    29    1
    52    91    92   ar
    53    65    64    1
    54    50    51    2
    55    68    67    2
    56    68    70    1
    57    26    29    1
    58    26    25    1
    59    89    86    1
    60    64    61    1
    61    85    86    1
    62    25    20   am
    63    60    61    1
    64    86    87    1
    65    61    62    1
    66    20    21    2
    67    20    19    1
    68    62    63    2
    69    87    94   am
    70    87    88    2
    71    19    22    1
    72    19    18    1
    73    94    95    1
    74    22    23    1
    75    98    99    1
    76    98    95    1
    77    13    12    2
    78    95    96    1
    79    18    12   am
    80    18    24    1
    81    23    24    1
    82    12    11    1
    83     9     8    1
    84     8     7    1
    85     6     5    1
    86     6     7    1
    87    96    97    2
    88     4     3    2
    89     2     3    1
    90     2     5    1
    91     2     1    1
    92     3    10   am
    93    11    10    1
    94    11    14    1
    95    14    15    1
    96    15    16    1
    97    15    17    1
