@<TRIPOS>MOLECULE
tmp/4a69B01.pdb
 91 88 0 0 0
SMALL
GASTEIGER

@<TRIPOS>ATOM
      1  N         20.8060   82.0460   18.5740 N.3    16  HIS16      -0.1241
      2  CA        19.8430   83.1440   18.4750 C.3    16  HIS16       0.1621
      3  C         18.9930   82.9110   17.2750 C.2    16  HIS16       0.2264
      4  O         19.5270   82.6940   16.1830 O.2    16  HIS16      -0.2867
      5  CB        20.5460   84.5030   18.3770 C.3    16  HIS16       0.0745
      6  CG        19.7360   85.6520   18.9470 C.ar   16  HIS16       0.0817
      7  ND1       18.8660   86.3770   18.2030 N.ar   16  HIS16      -0.2268
      8  CD2       19.6850   86.1810   20.2340 C.ar   16  HIS16       0.1154
      9  CE1       18.2910   87.3180   18.9780 C.ar   16  HIS16       0.1986
     10  NE2       18.7910   87.1940   20.2230 N.ar   16  HIS16      -0.2212
     11  N         16.5100   88.5800   15.0260 N.3    19  ALA19      -0.1231
     12  CA        15.9830   89.8170   15.6000 C.3    19  ALA19       0.1694
     13  C         14.4630   89.7650   15.6340 C.2    19  ALA19       0.2593
     14  O         13.8280   89.4660   14.6280 O.2    19  ALA19      -0.2718
     15  CB        16.4820   91.0210   14.8060 C.3    19  ALA19       0.0304
     16  N         13.8880   90.0220   16.8060 N.am   20  GLY20      -0.1942
     17  CA        12.4380   90.0770   16.9770 C.3    20  GLY20       0.2014
     18  C         11.7820   88.7480   17.3030 C.2    20  GLY20       0.2638
     19  O         10.5760   88.6920   17.5470 O.2    20  GLY20      -0.2714
     20  N         12.5480   87.6620   17.3060 N.am   21  HIS21      -0.1973
     21  CA        11.9410   86.3640   17.6050 C.3    21  HIS21       0.1656
     22  C         11.8870   86.1380   19.0890 C.2    21  HIS21       0.2291
     23  O         12.9100   86.2640   19.7530 O.2    21  HIS21      -0.2864
     24  CB        12.6800   85.2300   16.9010 C.3    21  HIS21       0.0771
     25  CG        11.8740   83.9640   16.8180 C.ar   21  HIS21       0.0820
     26  ND1       11.5940   83.2160   17.9000 N.ar   21  HIS21      -0.2267
     27  CD2       11.2600   83.3450   15.7420 C.ar   21  HIS21       0.1154
     28  CE1       10.8460   82.1690   17.5310 C.ar   21  HIS21       0.1986
     29  NE2       10.6520   82.2440   16.2060 N.ar   21  HIS21      -0.2212
     30  N         14.3860   82.5660   22.9830 N.3    24  LYS24      -0.1245
     31  CA        15.7960   82.8450   23.3040 C.3    24  LYS24       0.1561
     32  C         16.4400   81.6380   23.9840 C.2    24  LYS24       0.2260
     33  O         16.2400   81.4240   25.1750 O.2    24  LYS24      -0.2867
     34  CB        15.9110   84.0600   24.2320 C.3    24  LYS24       0.0271
     35  CG        15.0210   85.2370   23.8720 C.3    24  LYS24       0.0035
     36  CD        15.6240   86.1260   22.7920 C.3    24  LYS24       0.0206
     37  CE        14.5900   87.1480   22.3170 C.3    24  LYS24       0.1093
     38  NZ        14.9430   87.7690   21.0120 N.3    24  LYS24      -0.1314
     39  N          5.8800   87.1580   27.6860 N.3   264  ARG264     -0.1245
     40  CA         5.8250   87.9490   26.4730 C.3   264  ARG264      0.1563
     41  C          4.6380   87.5690   25.5770 C.2   264  ARG264      0.2260
     42  O          4.0210   88.4370   24.9630 O.2   264  ARG264     -0.2867
     43  CB         7.1480   87.8240   25.7050 C.3   264  ARG264      0.0307
     44  CG         7.2750   88.6890   24.4530 C.3   264  ARG264      0.0489
     45  CD         8.6990   88.6290   23.8990 C.3   264  ARG264      0.2205
     46  NE         8.8140   89.3000   22.6040 N.pl3 264  ARG264     -0.0865
     47  CZ         9.9580   89.5050   21.9500 C.cat 264  ARG264      0.5346
     48  NH1       11.1140   89.0800   22.4470 N.pl3 264  ARG264      0.1354
     49  NH2        9.9410   90.1290   20.7890 N.pl3 264  ARG264      0.1354
     50  N          8.9220   83.1230   27.6300 N.3   297  TYR297     -0.1241
     51  CA         9.3750   84.1990   26.7400 C.3   297  TYR297      0.1605
     52  C          9.6420   85.5470   27.4160 C.2   297  TYR297      0.2264
     53  O          9.8870   86.5470   26.7450 O.2   297  TYR297     -0.2867
     54  CB         8.4330   84.3260   25.5330 C.3   297  TYR297      0.0534
     55  CG         8.2480   83.0010   24.8310 C.ar  297  TYR297     -0.0201
     56  CD1        9.2750   82.4640   24.0440 C.ar  297  TYR297     -0.0009
     57  CD2        7.0860   82.2400   25.0140 C.ar  297  TYR297     -0.0009
     58  CE1        9.1330   81.2300   23.4220 C.ar  297  TYR297      0.0417
     59  CE2        6.9380   81.0030   24.4020 C.ar  297  TYR297      0.0417
     60  CZ         7.9710   80.5030   23.6060 C.ar  297  TYR297      0.1957
     61  OH         7.8470   79.2860   22.9770 O.3   297  TYR297     -0.2866
     62  N         12.6030   86.1060   29.6040 N.3   299  VAL299     -0.1231
     63  CA        13.8110   85.3500   29.9650 C.3   299  VAL299      0.1692
     64  C         14.1400   85.4100   31.4650 C.2   299  VAL299      0.2591
     65  O         14.3520   84.3730   32.1100 O.2   299  VAL299     -0.2718
     66  CB        15.0330   85.7780   29.0990 C.3   299  VAL299      0.0266
     67  CG1       16.3000   85.0750   29.5490 C.3   299  VAL299      0.0020
     68  CG2       14.7870   85.4840   27.6280 C.3   299  VAL299      0.0020
     69  N         14.1460   86.6130   32.0270 N.am  300  ARG300     -0.1980
     70  CA        14.4790   86.7770   33.4440 C.3   300  ARG300      0.1597
     71  C         13.5580   85.9610   34.3650 C.2   300  ARG300      0.2287
     72  O         13.9520   85.5810   35.4720 O.2   300  ARG300     -0.2864
     73  CB        14.4750   88.2650   33.8360 C.3   300  ARG300      0.0334
     74  CG        13.0980   88.8930   33.9730 C.3   300  ARG300      0.0492
     75  CD        13.1760   90.4080   34.1000 C.3   300  ARG300      0.2205
     76  NE        11.8460   91.0000   34.1950 N.pl3 300  ARG300     -0.0865
     77  CZ        11.0820   91.2960   33.1430 C.cat 300  ARG300      0.5346
     78  NH1       11.5140   91.0560   31.9110 N.pl3 300  ARG300      0.1354
     79  NH2        9.8740   91.8160   33.3180 N.pl3 300  ARG300      0.1354
     80  N         20.3870   90.7310   34.8410 N.3   330  TYR330     -0.1241
     81  CA        19.1600   90.3160   34.1610 C.3   330  TYR330      0.1605
     82  C         17.9930   90.2930   35.1370 C.2   330  TYR330      0.2264
     83  O         16.8360   90.3110   34.7260 O.2   330  TYR330     -0.2867
     84  CB        19.3300   88.9390   33.5030 C.3   330  TYR330      0.0534
     85  CG        20.0830   89.0060   32.1930 C.ar  330  TYR330     -0.0201
     86  CD1       21.4690   89.2300   32.1680 C.ar  330  TYR330     -0.0009
     87  CD2       19.4150   88.8450   30.9730 C.ar  330  TYR330     -0.0009
     88  CE1       22.1590   89.3100   30.9650 C.ar  330  TYR330      0.0417
     89  CE2       20.1040   88.9310   29.7700 C.ar  330  TYR330      0.0417
     90  CZ        21.4730   89.1560   29.7730 C.ar  330  TYR330      0.1957
     91  OH        22.1620   89.2240   28.5740 O.3   330  TYR330     -0.2866
@<TRIPOS>BOND
     1    14    13    2
     2    15    12    1
     3    11    12    1
     4    12    13    1
     5    13    16   am
     6    27    29   ar
     7    27    25   ar
     8     4     3    2
     9    29    28   ar
    10    16    17    1
    11    25    24    1
    12    25    26   ar
    13    24    21    1
    14    17    18    1
    15     3     2    1
    16    18    20   am
    17    18    19    2
    18    20    21    1
    19    28    26   ar
    20    21    22    1
    21     7     6   ar
    22     7     9   ar
    23     5     2    1
    24     5     6    1
    25     2     1    1
    26     6     8   ar
    27     9    10   ar
    28    22    23    2
    29    10     8   ar
    30    49    47    1
    31    38    37    1
    32    47    48    1
    33    47    46    2
    34    37    36    1
    35    46    45    1
    36    36    35    1
    37    61    60    1
    38    30    31    1
    39    31    32    1
    40    31    34    1
    41    58    60   ar
    42    58    56   ar
    43    60    59   ar
    44    35    34    1
    45    45    44    1
    46    32    33    2
    47    56    55   ar
    48    59    57   ar
    49    44    43    1
    50    55    57   ar
    51    55    54    1
    52    42    41    2
    53    54    51    1
    54    41    40    1
    55    43    40    1
    56    40    39    1
    57    51    52    1
    58    51    50    1
    59    53    52    2
    60    68    66    1
    61    91    90    1
    62    66    67    1
    63    66    63    1
    64    62    63    1
    65    89    90   ar
    66    89    87   ar
    67    90    88   ar
    68    63    64    1
    69    88    86   ar
    70    87    85   ar
    71    64    69   am
    72    64    65    2
    73    78    77    1
    74    69    70    1
    75    86    85   ar
    76    85    84    1
    77    77    79    1
    78    77    76    2
    79    70    73    1
    80    70    71    1
    81    84    81    1
    82    73    74    1
    83    74    75    1
    84    75    76    1
    85    81    80    1
    86    81    82    1
    87    71    72    2
    88    83    82    2
