@<TRIPOS>MOLECULE
tmp/4a6aI00.pdb
 162 158 0 0 0
SMALL
GASTEIGER

@<TRIPOS>ATOM
      1  N         43.9090   62.4100   21.5860 N.3    98  LEU98      -0.1245
      2  CA        44.8960   63.2170   20.8760 C.3    98  LEU98       0.1561
      3  C         45.7360   63.9770   21.8990 C.2    98  LEU98       0.2260
      4  O         45.1830   64.6010   22.7990 O.2    98  LEU98      -0.2867
      5  CB        44.1320   64.1860   19.9970 C.3    98  LEU98       0.0270
      6  CG        44.6160   65.1250   18.8980 C.3    98  LEU98       0.0019
      7  CD1       44.8150   66.5840   19.3460 C.3    98  LEU98       0.0001
      8  CD2       45.7570   64.5710   18.0400 C.3    98  LEU98       0.0001
      9  N         46.8090   70.6630   21.0520 N.3   112  HIS112     -0.1241
     10  CA        45.4260   70.6000   21.4630 C.3   112  HIS112      0.1621
     11  C         45.3010   71.7030   22.5290 C.2   112  HIS112      0.2264
     12  O         46.3110   72.1210   23.1440 O.2   112  HIS112     -0.2867
     13  CB        45.0350   69.1920   21.9580 C.3   112  HIS112      0.0745
     14  CG        45.6110   68.8110   23.2870 C.ar  112  HIS112      0.0817
     15  ND1       45.7680   69.7070   24.3290 N.ar  112  HIS112     -0.2268
     16  CD2       46.0080   67.6100   23.7670 C.ar  112  HIS112      0.1154
     17  CE1       46.2620   69.0780   25.3820 C.ar  112  HIS112      0.1986
     18  NE2       46.4130   67.8020   25.0690 N.ar  112  HIS112     -0.2212
     19  N         41.2950   69.7930   25.4290 N.3   115  VAL115     -0.1231
     20  CA        40.5220   68.6800   24.8710 C.3   115  VAL115      0.1692
     21  C         41.4180   67.4700   24.5500 C.2   115  VAL115      0.2593
     22  O         42.6590   67.5670   24.5930 O.2   115  VAL115     -0.2718
     23  CB        39.7850   69.1140   23.5970 C.3   115  VAL115      0.0266
     24  CG1       38.5160   69.9370   23.9260 C.3   115  VAL115      0.0020
     25  CG2       40.7640   69.8920   22.6770 C.3   115  VAL115      0.0020
     26  N         40.7740   66.3360   24.2550 N.am  116  GLY116     -0.1942
     27  CA        41.4640   65.0670   24.0890 C.3   116  GLY116      0.2014
     28  C         40.6880   64.0770   23.2440 C.2   116  GLY116      0.2639
     29  O         41.2590   63.5460   22.2780 O.2   116  GLY116     -0.2714
     30  N         39.4010   63.8620   23.5850 N.am  117  PHE117     -0.1959
     31  CA        38.5690   62.7440   23.0840 C.3   117  PHE117      0.1771
     32  C         38.1960   62.7810   21.6090 C.2   117  PHE117      0.2619
     33  O         37.8300   63.8200   21.0980 O.2   117  PHE117     -0.2715
     34  CB        37.2320   62.6660   23.8290 C.3   117  PHE117      0.0574
     35  CG        37.3440   62.5140   25.3080 C.ar  117  PHE117     -0.0200
     36  CD1       38.5750   62.2900   25.9350 C.ar  117  PHE117     -0.0042
     37  CD2       36.2000   62.6140   26.0940 C.ar  117  PHE117     -0.0042
     38  CE1       38.6460   62.1610   27.3440 C.ar  117  PHE117     -0.0003
     39  CE2       36.2630   62.4820   27.4800 C.ar  117  PHE117     -0.0003
     40  CZ        37.4730   62.2640   28.1090 C.ar  117  PHE117     -0.0000
     41  N         38.2290   61.6180   20.9650 N.am  118  ILE118     -0.1963
     42  CA        37.8050   61.3880   19.5750 C.3   118  ILE118      0.1727
     43  C         36.7490   60.2940   19.6400 C.2   118  ILE118      0.2616
     44  O         37.0480   59.1680   20.0410 O.2   118  ILE118     -0.2715
     45  CB        38.9750   60.8050   18.7260 C.3   118  ILE118      0.0290
     46  CG1       40.2440   61.6550   18.8330 C.3   118  ILE118      0.0022
     47  CG2       38.5680   60.5950   17.2870 C.3   118  ILE118      0.0023
     48  CD1       40.0260   63.1250   18.5350 C.3   118  ILE118      0.0001
     49  N         35.5180   60.6120   19.2710 N.am  119  ASP119     -0.1971
     50  CA        34.3980   59.7080   19.5660 C.3   119  ASP119      0.1709
     51  C         34.3450   58.4380   18.6730 C.2   119  ASP119      0.2293
     52  O         34.7280   58.4850   17.5020 O.2   119  ASP119     -0.2864
     53  CB        33.0800   60.4760   19.5340 C.3   119  ASP119      0.1436
     54  CG        32.9120   61.4110   20.7370 C.2   119  ASP119      0.3671
     55  OD1       33.5300   62.5310   20.7850 O.co2 119  ASP119     -0.2456
     56  OD2       32.1460   60.9930   21.6590 O.co2 119  ASP119     -0.2456
     57  N         33.6790   58.4100   14.7250 N.3   122  PHE122     -0.1241
     58  CA        34.0840   59.6870   14.1260 C.3   122  PHE122      0.1605
     59  C         34.8110   59.4450   12.8100 C.2   122  PHE122      0.2264
     60  O         35.5460   58.4770   12.6690 O.2   122  PHE122     -0.2867
     61  CB        34.9580   60.5510   15.0770 C.3   122  PHE122      0.0534
     62  CG        35.5370   61.7710   14.4180 C.ar  122  PHE122     -0.0203
     63  CD1       34.8270   62.9510   14.3690 C.ar  122  PHE122     -0.0042
     64  CD2       36.7880   61.7160   13.8090 C.ar  122  PHE122     -0.0042
     65  CE1       35.3550   64.0610   13.7490 C.ar  122  PHE122     -0.0003
     66  CE2       37.3350   62.8170   13.1900 C.ar  122  PHE122     -0.0003
     67  CZ        36.6100   63.9950   13.1500 C.ar  122  PHE122     -0.0000
     68  N         41.0450   66.2440   11.8590 N.3   126  ILE126     -0.1231
     69  CA        40.9700   66.7960   13.1930 C.3   126  ILE126      0.1692
     70  C         41.4130   68.2490   13.2260 C.2   126  ILE126      0.2593
     71  O         42.3760   68.6460   12.5920 O.2   126  ILE126     -0.2718
     72  CB        41.7660   65.9780   14.1530 C.3   126  ILE126      0.0266
     73  CG1       41.0880   64.6210   14.3610 C.3   126  ILE126      0.0019
     74  CG2       41.8850   66.7150   15.4680 C.3   126  ILE126      0.0020
     75  CD1       41.9790   63.5470   14.9490 C.3   126  ILE126      0.0001
     76  N         40.6490   69.0580   13.9360 N.am  127  THR127     -0.1939
     77  CA        40.8960   70.4850   14.0100 C.3   127  THR127      0.2028
     78  C         41.7850   70.6490   15.2100 C.2   127  THR127      0.2642
     79  O         41.5650   69.9960   16.2270 O.2   127  THR127     -0.2714
     80  CB        39.5600   71.2790   14.1100 C.3   127  THR127      0.1808
     81  OG1       38.8840   71.2170   12.8490 O.3   127  THR127     -0.2208
     82  CG2       39.8050   72.7170   14.4250 C.3   127  THR127      0.0379
     83  N         42.8260   71.4670   15.0660 N.am  128  LEU128     -0.1963
     84  CA        43.8170   71.6650   16.1230 C.3   128  LEU128      0.1728
     85  C         43.8360   73.1040   16.5980 C.2   128  LEU128      0.2616
     86  O         43.9630   74.0390   15.7770 O.2   128  LEU128     -0.2715
     87  CB        45.1930   71.3250   15.6250 C.3   128  LEU128      0.0311
     88  CG        45.3630   69.9410   15.0840 C.3   128  LEU128      0.0022
     89  CD1       46.6810   69.8700   14.4440 C.3   128  LEU128      0.0001
     90  CD2       45.3400   69.0280   16.1910 C.3   128  LEU128      0.0001
     91  N         43.7090   73.2910   17.9120 N.am  129  GLU129     -0.1977
     92  CA        43.8040   74.6290   18.4990 C.3   129  GLU129      0.1602
     93  C         45.2810   74.9220   18.8620 C.2   129  GLU129      0.2287
     94  O         45.7890   74.4240   19.8440 O.2   129  GLU129     -0.2864
     95  CB        42.8480   74.7920   19.6890 C.3   129  GLU129      0.0415
     96  CG        41.3940   74.3120   19.4160 C.3   129  GLU129      0.1163
     97  CD        41.1120   72.8740   19.9240 C.2   129  GLU129      0.3649
     98  OE1       41.1490   72.6720   21.1700 O.co2 129  GLU129     -0.2457
     99  OE2       40.8450   71.9550   19.0980 O.co2 129  GLU129     -0.2457
    100  N         29.2110   58.1730   16.8730 N.3   162  TYR162     -0.1241
    101  CA        29.2790   59.5610   16.4620 C.3   162  TYR162      0.1605
    102  C         28.7430   59.6920   15.0340 C.2   162  TYR162      0.2264
    103  O         28.9930   58.8510   14.1760 O.2   162  TYR162     -0.2867
    104  CB        30.7180   60.0950   16.5990 C.3   162  TYR162      0.0534
    105  CG        30.8170   61.5800   16.4610 C.ar  162  TYR162     -0.0201
    106  CD1       30.6600   62.4120   17.5570 C.ar  162  TYR162     -0.0009
    107  CD2       31.0530   62.1540   15.2260 C.ar  162  TYR162     -0.0009
    108  CE1       30.7480   63.7820   17.4290 C.ar  162  TYR162      0.0417
    109  CE2       31.1290   63.5170   15.0800 C.ar  162  TYR162      0.0417
    110  CZ        30.9820   64.3360   16.1780 C.ar  162  TYR162      0.1957
    111  OH        31.0550   65.7050   16.0030 O.3   162  TYR162     -0.2866
    112  N         22.9390   60.9490   18.6480 N.3   167  ALA167     -0.1231
    113  CA        24.0380   61.6830   19.2860 C.3   167  ALA167      0.1694
    114  C         23.9870   63.1950   19.0180 C.2   167  ALA167      0.2593
    115  O         24.4420   63.9830   19.8430 O.2   167  ALA167     -0.2718
    116  CB        25.3830   61.1080   18.8620 C.3   167  ALA167      0.0304
    117  N         23.4330   63.5910   17.8680 N.am  168  GLY168     -0.1942
    118  CA        23.3080   65.0090   17.4800 C.3   168  GLY168      0.2014
    119  C         24.6290   65.6740   17.1540 C.2   168  GLY168      0.2640
    120  O         24.8500   66.8150   17.5160 O.2   168  GLY168     -0.2714
    121  N         25.4890   64.9550   16.4440 N.am  169  SER169     -0.1935
    122  CA        26.8750   65.3230   16.2540 C.3   169  SER169      0.2055
    123  C         27.0360   66.4390   15.2280 C.2   169  SER169      0.2643
    124  O         26.3710   66.4290   14.1940 O.2   169  SER169     -0.2714
    125  CB        27.6300   64.0900   15.8070 C.3   169  SER169      0.2130
    126  OG        27.2310   62.9840   16.5760 O.3   169  SER169     -0.2179
    127  N         27.9510   67.3740   15.5080 N.am  170  LYS170     -0.1963
    128  CA        28.0820   68.6230   14.7400 C.3   170  LYS170      0.1728
    129  C         29.1500   68.5770   13.6840 C.2   170  LYS170      0.2616
    130  O         29.1530   69.4420   12.8160 O.2   170  LYS170     -0.2715
    131  CB        28.3900   69.8340   15.6520 C.3   170  LYS170      0.0311
    132  CG        27.3420   70.2160   16.7170 C.3   170  LYS170      0.0038
    133  CD        28.0290   71.0300   17.8480 C.3   170  LYS170      0.0206
    134  CE        27.1190   71.3400   19.0250 C.3   170  LYS170      0.1093
    135  NZ        26.4660   70.1050   19.5180 N.3   170  LYS170     -0.1314
    136  N         30.0720   67.6140   13.7690 N.am  171  TYR171     -0.1974
    137  CA        31.3180   67.6800   12.9530 C.3   171  TYR171      0.1639
    138  C         31.6220   66.4850   12.0710 C.2   171  TYR171      0.2290
    139  O         32.7000   66.3940   11.5520 O.2   171  TYR171     -0.2864
    140  CB        32.5440   67.9760   13.8220 C.3   171  TYR171      0.0560
    141  CG        32.4020   69.1970   14.6620 C.ar  171  TYR171     -0.0198
    142  CD1       32.5130   70.4600   14.1080 C.ar  171  TYR171     -0.0009
    143  CD2       32.1480   69.0940   16.0040 C.ar  171  TYR171     -0.0009
    144  CE1       32.3820   71.5850   14.8670 C.ar  171  TYR171      0.0417
    145  CE2       32.0030   70.2180   16.7750 C.ar  171  TYR171      0.0417
    146  CZ        32.1210   71.4620   16.1990 C.ar  171  TYR171      0.1957
    147  OH        31.9800   72.5750   16.9820 O.3   171  TYR171     -0.2866
    148  N         34.3530   66.2790    8.7520 N.3   174  GLN174     -0.1245
    149  CA        34.8550   67.6290    8.6070 C.3   174  GLN174      0.1566
    150  C         36.1850   67.6880    7.8500 C.2   174  GLN174      0.2260
    151  O         37.0050   66.7570    7.9450 O.2   174  GLN174     -0.2867
    152  CB        34.9610   68.3130    9.9620 C.3   174  GLN174      0.0367
    153  CG        35.8280   67.6080   10.9690 C.3   174  GLN174      0.0905
    154  CD        36.1920   68.5040   12.1580 C.2   174  GLN174      0.2608
    155  OE1       35.5780   69.5470   12.3830 O.2   174  GLN174     -0.2717
    156  NE2       37.2160   68.0990   12.9150 N.am  174  GLN174     -0.0878
    157  N         28.8890   75.5680   18.1220 N.3   182  SER182     -0.1217
    158  CA        28.2450   75.3040   19.3850 C.3   182  SER182      0.1889
    159  C         26.8310   75.8320   19.4410 C.2   182  SER182      0.2288
    160  O         26.0420   75.4020   20.2840 O.2   182  SER182     -0.2866
    161  CB        29.0580   75.8960   20.5210 C.3   182  SER182      0.2089
    162  OG        29.4590   77.2000   20.1810 O.3   182  SER182     -0.2183
@<TRIPOS>BOND
     1   150   151    2
     2   150   149    1
     3   149   148    1
     4   149   152    1
     5   152   153    1
     6   153   154    1
     7   139   138    2
     8    68    69    1
     9   138   137    1
    10   154   155    2
    11   154   156   am
    12    71    70    2
    13    60    59    2
    14    59    58    1
    15   130   129    2
    16    81    80    1
    17   137   136    1
    18   137   140    1
    19    67    66   ar
    20    67    65   ar
    21    66    64   ar
    22    69    70    1
    23    69    72    1
    24    70    76   am
    25   129   136   am
    26   129   128    1
    27    65    63   ar
    28    64    62   ar
    29   140   141    1
    30    76    77    1
    31    77    80    1
    32    77    78    1
    33   142   141   ar
    34   142   144   ar
    35    80    82    1
    36    58    57    1
    37    58    61    1
    38    72    73    1
    39    72    74    1
    40   103   102    2
    41   124   123    2
    42    73    75    1
    43    63    62   ar
    44    62    61    1
    45    89    88    1
    46   141   143   ar
    47   128   127    1
    48   128   131    1
    49   144   146   ar
    50   102   101    1
    51    83    78   am
    52    83    84    1
    53   109   107   ar
    54   109   110   ar
    55    88    87    1
    56    88    90    1
    57    78    79    2
    58   107   105   ar
    59   123   127   am
    60   123   122    1
    61    87    84    1
    62   131   132    1
    63    86    85    2
    64   125   122    1
    65   125   126    1
    66   111   110    1
    67   143   145   ar
    68    84    85    1
    69   110   108   ar
    70   146   145   ar
    71   146   147    1
    72   122   121    1
    73   121   119   am
    74   105   104    1
    75   105   106   ar
    76   101   104    1
    77   101   100    1
    78    85    91   am
    79   132   133    1
    80   119   118    1
    81   119   120    2
    82    47    45    1
    83   108   106   ar
    84   118   117    1
    85    52    51    2
    86   133   134    1
    87   117   114   am
    88    91    92    1
    89     8     6    1
    90   157   158    1
    91    92    93    1
    92    92    95    1
    93    48    46    1
    94   112   113    1
    95    51    50    1
    96    45    46    1
    97    45    42    1
    98    93    94    2
    99   116   113    1
   100     6     7    1
   101     6     5    1
   102   114   113    1
   103   114   115    2
   104   134   135    1
   105    99    97   ar
   106    49    50    1
   107    49    43   am
   108   158   159    1
   109   158   161    1
   110    96    95    1
   111    96    97    1
   112   159   160    2
   113    53    50    1
   114    53    54    1
   115    42    43    1
   116    42    41    1
   117    43    44    2
   118    97    98   ar
   119     5     2    1
   120   162   161    1
   121    54    55   ar
   122    54    56   ar
   123     2     1    1
   124     2     3    1
   125    41    32   am
   126     9    10    1
   127    33    32    2
   128    10    13    1
   129    10    11    1
   130    32    31    1
   131     3     4    2
   132    13    14    1
   133    29    28    2
   134    11    12    2
   135    25    23    1
   136    31    30    1
   137    31    34    1
   138    28    30   am
   139    28    27    1
   140    14    16   ar
   141    14    15   ar
   142    23    24    1
   143    23    20    1
   144    16    18   ar
   145    34    35    1
   146    27    26    1
   147    26    21   am
   148    15    17   ar
   149    21    22    2
   150    21    20    1
   151    20    19    1
   152    18    17   ar
   153    35    36   ar
   154    35    37   ar
   155    36    38   ar
   156    37    39   ar
   157    38    40   ar
   158    39    40   ar
