@<TRIPOS>MOLECULE
tmp/4a6cB00.pdb
 134 127 0 0 0
SMALL
GASTEIGER

@<TRIPOS>ATOM
      1  N          9.0510   35.1800   -1.1220 N.3     8  ARG8       -0.1245
      2  CA         9.7560   33.9020   -1.2190 C.3     8  ARG8        0.1563
      3  C         10.6170   33.9040   -2.4830 C.2     8  ARG8        0.2260
      4  O         10.1780   34.3640   -3.5390 O.2     8  ARG8       -0.2867
      5  CB         8.7640   32.7360   -1.2690 C.3     8  ARG8        0.0307
      6  CG         7.9560   32.5630    0.0020 C.3     8  ARG8        0.0489
      7  CD         6.9030   31.4700   -0.1290 C.3     8  ARG8        0.2205
      8  NE         6.1300   31.3370    1.1050 N.pl3   8  ARG8       -0.0865
      9  CZ         5.0260   30.6060    1.2290 C.cat   8  ARG8        0.5346
     10  NH1        4.5500   29.9330    0.1900 N.pl3   8  ARG8        0.1354
     11  NH2        4.3990   30.5510    2.3940 N.pl3   8  ARG8        0.1354
     12  N         11.9830   26.7870   -4.9440 N.3    23  LEU23      -0.1245
     13  CA        12.4080   27.7270   -3.9100 C.3    23  LEU23       0.1561
     14  C         13.9000   27.6180   -3.6020 C.2    23  LEU23       0.2260
     15  O         14.3840   26.5310   -3.2980 O.2    23  LEU23      -0.2867
     16  CB        11.6160   27.4360   -2.6300 C.3    23  LEU23       0.0270
     17  CG        11.8680   28.2620   -1.3710 C.3    23  LEU23       0.0019
     18  CD1       11.2030   29.6220   -1.4970 C.3    23  LEU23       0.0001
     19  CD2       11.3140   27.5110   -0.1710 C.3    23  LEU23       0.0001
     20  N         16.6700   27.5840   -1.3030 N.3    25  ASP25      -0.1239
     21  CA        16.7070   27.3910    0.1400 C.3    25  ASP25       0.1674
     22  C         18.0900   27.1390    0.7240 C.2    25  ASP25       0.2266
     23  O         18.5790   26.0100    0.7020 O.2    25  ASP25      -0.2867
     24  CB        15.7860   26.2120    0.4790 C.3    25  ASP25       0.1410
     25  CG        15.3280   26.2250    1.9140 C.2    25  ASP25       0.3668
     26  OD1       16.1490   26.5870    2.7820 O.co2  25  ASP25      -0.2456
     27  OD2       14.1530   25.8780    2.1730 O.co2  25  ASP25      -0.2456
     28  N         18.9280   26.8520    3.6670 N.3    27  GLY27      -0.1210
     29  CA        18.8780   25.9900    4.8370 C.3    27  GLY27       0.1956
     30  C         18.7870   24.5030    4.5200 C.2    27  GLY27       0.2612
     31  O         18.7610   23.6580    5.4230 O.2    27  GLY27      -0.2717
     32  N         18.7420   24.1780    3.2320 N.am   28  ALA28      -0.1965
     33  CA        18.6560   22.7950    2.7840 C.3    28  ALA28       0.1728
     34  C         19.9880   22.2760    2.2520 C.2    28  ALA28       0.2616
     35  O         20.6120   22.9130    1.4070 O.2    28  ALA28      -0.2715
     36  CB        17.5880   22.6740    1.6970 C.3    28  ALA28       0.0334
     37  N         20.4180   21.1190    2.7460 N.am   29  ASP29      -0.1957
     38  CA        21.6610   20.5000    2.2780 C.3    29  ASP29       0.1840
     39  C         21.4340   19.9410    0.8710 C.2    29  ASP29       0.2622
     40  O         22.3130   19.9930    0.0080 O.2    29  ASP29      -0.2715
     41  CB        22.0440   19.3020    3.1580 C.3    29  ASP29       0.1450
     42  CG        22.7210   19.6850    4.4590 C.2    29  ASP29       0.3671
     43  OD1       22.6860   20.8650    4.8600 O.co2  29  ASP29      -0.2456
     44  OD2       23.2890   18.7660    5.0930 O.co2  29  ASP29      -0.2456
     45  N         20.2380   19.3950    0.6710 N.am   30  ASP30      -0.1971
     46  CA        19.8660   18.7450   -0.5740 C.3    30  ASP30       0.1709
     47  C         18.7210   19.4150   -1.3190 C.2    30  ASP30       0.2293
     48  O         18.0670   20.3250   -0.8020 O.2    30  ASP30      -0.2864
     49  CB        19.4760   17.2870   -0.2960 C.3    30  ASP30       0.1436
     50  CG        20.5380   16.5300    0.4670 C.2    30  ASP30       0.3671
     51  OD1       21.7240   16.6590    0.1030 O.co2  30  ASP30      -0.2456
     52  OD2       20.1740   15.8030    1.4190 O.co2  30  ASP30      -0.2456
     53  N         15.1160   18.7940   -3.0320 N.3    32  VAL32      -0.1245
     54  CA        13.9540   17.9040   -2.9670 C.3    32  VAL32       0.1561
     55  C         12.8620   18.3580   -3.9310 C.2    32  VAL32       0.2260
     56  O         12.3930   19.4890   -3.8460 O.2    32  VAL32      -0.2867
     57  CB        13.3640   17.8700   -1.5350 C.3    32  VAL32       0.0252
     58  CG1       12.2830   16.8000   -1.4300 C.3    32  VAL32       0.0019
     59  CG2       14.4730   17.6170   -0.5190 C.3    32  VAL32       0.0019
     60  N         15.7450   11.6160    4.6000 N.3    47  ILE47      -0.1231
     61  CA        16.1360   12.9690    4.9580 C.3    47  ILE47       0.1692
     62  C         15.2670   13.5170    6.0730 C.2    47  ILE47       0.2593
     63  O         14.1130   13.1180    6.2350 O.2    47  ILE47      -0.2718
     64  CB        16.0900   13.9440    3.7490 C.3    47  ILE47       0.0266
     65  CG1       14.6870   13.9970    3.1410 C.3    47  ILE47       0.0019
     66  CG2       17.1200   13.5190    2.7180 C.3    47  ILE47       0.0020
     67  CD1       14.5480   15.0060    1.9990 C.3    47  ILE47       0.0001
     68  N         15.8380   14.4290    6.8500 N.am   48  GLY48      -0.1942
     69  CA        15.1080   15.0100    7.9580 C.3    48  GLY48       0.2014
     70  C         14.7700   16.4720    7.7680 C.2    48  GLY48       0.2639
     71  O         15.6190   17.2720    7.3730 O.2    48  GLY48      -0.2714
     72  N         13.5170   16.8110    8.0470 N.am   49  GLY49      -0.1939
     73  CA        13.0540   18.1790    7.9340 C.3    49  GLY49       0.2014
     74  C         12.5120   18.6410    9.2740 C.2    49  GLY49       0.2638
     75  O         12.6440   17.9410   10.2800 O.2    49  GLY49      -0.2714
     76  N         11.8940   19.8150    9.2980 N.am   50  ILE50      -0.1977
     77  CA        11.3540   20.3460   10.5440 C.3    50  ILE50       0.1596
     78  C         10.2310   19.4740   11.1210 C.2    50  ILE50       0.2287
     79  O         10.0640   19.4050   12.3390 O.2    50  ILE50      -0.2864
     80  CB        10.8570   21.8120   10.3560 C.3    50  ILE50       0.0276
     81  CG1       12.0540   22.7320   10.0710 C.3    50  ILE50       0.0022
     82  CG2       10.1460   22.2990   11.6100 C.3    50  ILE50       0.0022
     83  CD1       11.6960   24.2030    9.9010 C.3    50  ILE50       0.0001
     84  N          9.9040   16.0590   10.5910 N.3    52  GLY52      -0.1210
     85  CA        10.2670   14.6630   10.7530 C.3    52  GLY52       0.1956
     86  C         11.0620   14.1360    9.5750 C.2    52  GLY52       0.2612
     87  O         11.6140   14.9100    8.7950 O.2    52  GLY52      -0.2717
     88  N         11.1160   12.8180    9.4340 N.am   53  PHE53      -0.1962
     89  CA        11.8650   12.2040    8.3430 C.3    53  PHE53       0.1771
     90  C         10.9600   11.6740    7.2380 C.2    53  PHE53       0.2619
     91  O          9.8040   11.3220    7.4760 O.2    53  PHE53      -0.2715
     92  CB        12.7230   11.0480    8.8690 C.3    53  PHE53       0.0574
     93  CG        13.5830   11.4100   10.0430 C.ar   53  PHE53      -0.0200
     94  CD1       13.0430   11.4710   11.3240 C.ar   53  PHE53      -0.0042
     95  CD2       14.9330   11.6950    9.8680 C.ar   53  PHE53      -0.0042
     96  CE1       13.8360   11.8100   12.4140 C.ar   53  PHE53      -0.0003
     97  CE2       15.7350   12.0360   10.9530 C.ar   53  PHE53      -0.0003
     98  CZ        15.1850   12.0930   12.2300 C.ar   53  PHE53      -0.0000
     99  N         11.4930   11.6270    6.0220 N.am   54  ILE54      -0.1977
    100  CA        10.7490   11.1020    4.8880 C.3    54  ILE54       0.1596
    101  C         11.6890   10.3170    3.9880 C.2    54  ILE54       0.2287
    102  O         12.9040   10.5630    3.9630 O.2    54  ILE54      -0.2864
    103  CB        10.0920   12.2140    4.0290 C.3    54  ILE54       0.0276
    104  CG1       11.1630   13.1150    3.4170 C.3    54  ILE54       0.0022
    105  CG2        9.1170   13.0140    4.8720 C.3    54  ILE54       0.0022
    106  CD1       10.6450   13.9950    2.2850 C.3    54  ILE54       0.0001
    107  N          6.7410   16.5790   -0.6820 N.3    80  THR80      -0.1204
    108  CA         7.0760   17.9500   -0.3070 C.3    80  THR80       0.1979
    109  C          6.0370   18.8940   -0.9050 C.2    80  THR80       0.2460
    110  O          5.5440   18.6570   -2.0010 O.2    80  THR80      -0.2732
    111  CB         8.4910   18.3460   -0.8140 C.3    80  THR80       0.1783
    112  OG1        8.7470   19.7190   -0.4920 O.3    80  THR80      -0.2211
    113  CG2        8.6100   18.1500   -2.3190 C.3    80  THR80       0.0376
    114  N          5.6710   19.9650   -0.1790 N.am   81  PRO81      -0.2717
    115  CA         4.6750   20.8920   -0.7290 C.3    81  PRO81       0.1535
    116  C          5.2590   21.8200   -1.7790 C.2    81  PRO81       0.2599
    117  O          4.5300   22.5450   -2.4530 O.2    81  PRO81      -0.2715
    118  CB         4.1740   21.6360    0.5040 C.3    81  PRO81       0.0310
    119  CG         5.3660   21.6540    1.3840 C.3    81  PRO81       0.0237
    120  CD         5.9450   20.2650    1.2350 C.3    81  PRO81       0.0939
    121  N          6.5800   21.7960   -1.9290 N.am   82  THR82      -0.1951
    122  CA         7.2120   22.6410   -2.9290 C.3    82  THR82       0.1897
    123  C          8.5970   22.1330   -3.3150 C.2    82  THR82       0.2313
    124  O          9.2640   21.4560   -2.5310 O.2    82  THR82      -0.2863
    125  CB         7.3510   24.1020   -2.4380 C.3    82  THR82       0.1794
    126  OG1        6.4160   24.3540   -1.3820 O.3    82  THR82      -0.2208
    127  CG2        7.0450   25.0640   -3.5810 C.3    82  THR82       0.0378
    128  N         12.3170   22.3160   -3.6660 N.3    84  VAL84      -0.1245
    129  CA        13.3160   23.0390   -2.8940 C.3    84  VAL84       0.1561
    130  C         14.7010   22.8590   -3.4980 C.2    84  VAL84       0.2260
    131  O         15.1390   21.7310   -3.7470 O.2    84  VAL84      -0.2867
    132  CB        13.3340   22.5350   -1.4270 C.3    84  VAL84       0.0252
    133  CG1       11.9670   22.7000   -0.8010 C.3    84  VAL84       0.0019
    134  CG2       13.7720   21.0940   -1.3830 C.3    84  VAL84       0.0019
@<TRIPOS>BOND
     1    12    13    1
     2    55    56    2
     3    55    54    1
     4    13    14    1
     5    13    16    1
     6   131   130    2
     7   128   129    1
     8    14    15    2
     9   127   125    1
    10     4     3    2
    11   130   129    1
    12   123   122    1
    13   123   124    2
    14    53    54    1
    15    54    57    1
    16   122   125    1
    17   122   121    1
    18   129   132    1
    19    16    17    1
    20     3     2    1
    21   117   116    2
    22   125   126    1
    23   113   111    1
    24   110   109    2
    25   121   116   am
    26   116   115    1
    27    57    58    1
    28    57    59    1
    29    18    17    1
    30   132   134    1
    31   132   133    1
    32    17    19    1
    33    47    48    2
    34    47    46    1
    35    20    21    1
    36     5     2    1
    37     5     6    1
    38     2     1    1
    39   109   108    1
    40   109   114   am
    41   111   112    1
    42   111   108    1
    43   115   114    1
    44   115   118    1
    45   107   108    1
    46    46    49    1
    47    46    45    1
    48    49    50    1
    49   114   120    1
    50     7     6    1
    51     7     8    1
    52    40    39    2
    53    51    50   ar
    54    21    24    1
    55    21    22    1
    56    10     9    1
    57    50    52   ar
    58    24    25    1
    59   118   119    1
    60    45    39   am
    61    23    22    2
    62    39    38    1
    63     8     9    2
    64     9    11    1
    65   120   119    1
    66    35    34    2
    67    36    33    1
    68    25    27   ar
    69    25    26   ar
    70    67    65    1
    71    34    37   am
    72    34    33    1
    73    38    37    1
    74    38    41    1
    75   106   104    1
    76    66    64    1
    77    33    32    1
    78    65    64    1
    79    41    42    1
    80    32    30   am
    81   104   103    1
    82    28    29    1
    83    64    61    1
    84   102   101    2
    85   101   100    1
    86   103   105    1
    87   103   100    1
    88    42    43   ar
    89    42    44   ar
    90    30    29    1
    91    30    31    2
    92    60    61    1
    93   100    99    1
    94    61    62    1
    95    99    90   am
    96    62    63    2
    97    62    68   am
    98    68    69    1
    99    90    91    2
   100    90    89    1
   101    71    70    2
   102    70    69    1
   103    70    72   am
   104    73    72    1
   105    73    74    1
   106    89    92    1
   107    89    88    1
   108    87    86    2
   109    92    93    1
   110    74    76   am
   111    74    75    2
   112    76    77    1
   113    88    86   am
   114    86    85    1
   115    95    93   ar
   116    95    97   ar
   117    83    81    1
   118    93    94   ar
   119    81    80    1
   120    80    77    1
   121    80    82    1
   122    77    78    1
   123    84    85    1
   124    97    98   ar
   125    78    79    2
   126    94    96   ar
   127    98    96   ar
