@<TRIPOS>MOLECULE
tmp/4a6eA00.pdb
 224 222 0 0 0
SMALL
GASTEIGER

@<TRIPOS>ATOM
      1  N         -8.9990   28.6610   45.9310 N.3   143  PHE143     -0.1241
      2  CA        -8.9160   28.5960   44.4800 C.3   143  PHE143      0.1605
      3  C        -10.1730   29.0280   43.6950 C.2   143  PHE143      0.2264
      4  O        -10.0690   29.2770   42.4860 O.2   143  PHE143     -0.2867
      5  CB        -8.2050   27.3250   43.9910 C.3   143  PHE143      0.0534
      6  CG        -6.6950   27.4510   44.0900 C.ar  143  PHE143     -0.0203
      7  CD1       -6.0340   27.1950   45.2880 C.ar  143  PHE143     -0.0042
      8  CD2       -5.9380   27.8350   42.9890 C.ar  143  PHE143     -0.0042
      9  CE1       -4.6450   27.3210   45.3820 C.ar  143  PHE143     -0.0003
     10  CE2       -4.5440   27.9580   43.0830 C.ar  143  PHE143     -0.0003
     11  CZ        -3.9110   27.7170   44.2810 C.ar  143  PHE143     -0.0000
     12  N         -9.2810   31.5420   40.8440 N.3   147  TYR147     -0.1241
     13  CA        -9.8440   31.2860   39.5070 C.3   147  TYR147      0.1605
     14  C        -11.2190   31.9720   39.3700 C.2   147  TYR147      0.2264
     15  O        -12.2280   31.3120   39.0890 O.2   147  TYR147     -0.2867
     16  CB        -9.9120   29.7750   39.1700 C.3   147  TYR147      0.0534
     17  CG        -8.6140   29.0100   39.3320 C.ar  147  TYR147     -0.0201
     18  CD1       -7.3930   29.5800   38.9770 C.ar  147  TYR147     -0.0009
     19  CD2       -8.6120   27.6880   39.7710 C.ar  147  TYR147     -0.0009
     20  CE1       -6.1970   28.8790   39.1230 C.ar  147  TYR147      0.0417
     21  CE2       -7.4200   26.9740   39.9170 C.ar  147  TYR147      0.0417
     22  CZ        -6.2130   27.5750   39.5900 C.ar  147  TYR147      0.1957
     23  OH        -5.0290   26.8840   39.7120 O.3   147  TYR147     -0.2866
     24  N         -3.4370   32.7300   35.0680 N.3   156  PHE156     -0.1227
     25  CA        -2.7150   32.1480   36.1980 C.3   156  PHE156      0.1736
     26  C         -1.8450   30.9510   35.7200 C.2   156  PHE156      0.2595
     27  O         -0.6410   30.9070   36.0200 O.2   156  PHE156     -0.2718
     28  CB        -3.6930   31.7160   37.3060 C.3   156  PHE156      0.0547
     29  CG        -3.0200   31.2600   38.5770 C.ar  156  PHE156     -0.0202
     30  CD1       -2.6450   32.1780   39.5530 C.ar  156  PHE156     -0.0042
     31  CD2       -2.7590   29.9090   38.8020 C.ar  156  PHE156     -0.0042
     32  CE1       -2.0230   31.7580   40.7370 C.ar  156  PHE156     -0.0003
     33  CE2       -2.1230   29.4850   39.9840 C.ar  156  PHE156     -0.0003
     34  CZ        -1.7740   30.4110   40.9510 C.ar  156  PHE156     -0.0000
     35  N         -2.4390   30.0430   34.9260 N.am  157  MET157     -0.1979
     36  CA        -1.7630   28.8800   34.3500 C.3   157  MET157      0.1605
     37  C         -0.6290   29.2490   33.3850 C.2   157  MET157      0.2287
     38  O          0.4200   28.5910   33.4000 O.2   157  MET157     -0.2864
     39  CB        -2.7700   27.9270   33.6920 C.3   157  MET157      0.0413
     40  CG        -3.5530   27.1110   34.6870 C.3   157  MET157      0.0598
     41  SD        -4.9000   26.1660   33.9580 S.3   157  MET157     -0.1393
     42  CE        -3.9790   24.8340   33.0850 C.3   157  MET157      0.0692
     43  N          2.3350   31.0690   35.7980 N.3   160  LEU160     -0.1231
     44  CA         3.1660   30.1700   36.6240 C.3   160  LEU160      0.1693
     45  C          4.1560   29.2710   35.9070 C.2   160  LEU160      0.2591
     46  O          5.2460   29.0210   36.4470 O.2   160  LEU160     -0.2718
     47  CB         2.3680   29.4330   37.7220 C.3   160  LEU160      0.0284
     48  CG         2.1920   30.2160   39.0340 C.3   160  LEU160      0.0019
     49  CD1        1.2250   31.3970   38.8790 C.3   160  LEU160      0.0001
     50  CD2        1.7100   29.3120   40.1370 C.3   160  LEU160      0.0001
     51  N          3.8190   28.8410   34.6830 N.am  161  GLN161     -0.1979
     52  CA         4.6750   27.9460   33.9230 C.3   161  GLN161      0.1601
     53  C          6.0250   28.4950   33.4750 C.2   161  GLN161      0.2287
     54  O          6.9740   27.7350   33.3010 O.2   161  GLN161     -0.2864
     55  CB         3.8990   27.2990   32.7750 C.3   161  GLN161      0.0394
     56  CG         3.5980   28.1800   31.5840 C.3   161  GLN161      0.0908
     57  CD         3.1550   27.3660   30.4030 C.2   161  GLN161      0.2608
     58  OE1        2.8170   26.1760   30.5170 O.2   161  GLN161     -0.2717
     59  NE2        3.1500   28.0010   29.2370 N.am  161  GLN161     -0.0878
     60  N          9.7920   27.8790   35.0740 N.3   164  TRP164     -0.1241
     61  CA        10.4090   26.5780   34.8130 C.3   164  TRP164      0.1605
     62  C         11.2660   26.5320   33.5560 C.2   164  TRP164      0.2264
     63  O         12.1140   25.6450   33.4340 O.2   164  TRP164     -0.2867
     64  CB         9.3850   25.4440   34.8920 C.3   164  TRP164      0.0550
     65  CG         8.5090   25.5110   36.1100 C.ar  164  TRP164      0.0003
     66  CD1        7.1460   25.5020   36.1370 C.ar  164  TRP164      0.0946
     67  CD2        8.9410   25.6620   37.4820 C.ar  164  TRP164      0.0152
     68  NE1        6.7000   25.5370   37.4440 N.ar  164  TRP164     -0.2442
     69  CE2        7.7790   25.6470   38.2880 C.ar  164  TRP164      0.0810
     70  CE3       10.2050   25.7480   38.1140 C.ar  164  TRP164      0.0012
     71  CZ2        7.8350   25.7900   39.6820 C.ar  164  TRP164      0.0191
     72  CZ3       10.2600   25.8510   39.4980 C.ar  164  TRP164      0.0001
     73  CH2        9.0870   25.8970   40.2640 C.ar  164  TRP164      0.0015
     74  N          3.0680   14.7590   39.6270 N.3   185  ASP185     -0.1239
     75  CA         3.1820   16.1790   39.9360 C.3   185  ASP185      0.1674
     76  C          1.8520   16.6420   40.5530 C.2   185  ASP185      0.2266
     77  O          0.8780   16.9010   39.8270 O.2   185  ASP185     -0.2867
     78  CB         3.5880   17.0000   38.6870 C.3   185  ASP185      0.1410
     79  CG         3.9930   18.4610   38.9210 C.2   185  ASP185      0.3668
     80  OD1        4.0080   18.9040   40.1100 O.co2 185  ASP185     -0.2456
     81  OD2        4.2630   19.1800   37.9090 O.co2 185  ASP185     -0.2456
     82  N         -0.6390   19.0620   41.8690 N.3   187  GLY187     -0.1210
     83  CA        -0.9090   20.4810   41.6420 C.3   187  GLY187      0.1956
     84  C          0.0070   21.0220   40.5610 C.2   187  GLY187      0.2612
     85  O          0.5680   22.1070   40.7040 O.2   187  GLY187     -0.2717
     86  N          0.1800   20.2310   39.5040 N.am  188  GLY188     -0.1942
     87  CA         1.1070   20.4860   38.4110 C.3   188  GLY188      0.2014
     88  C          0.7100   21.5130   37.3780 C.2   188  GLY188      0.2639
     89  O          1.4890   21.7760   36.4490 O.2   188  GLY188     -0.2714
     90  N         -0.4880   22.0870   37.5420 N.am  189  GLY189     -0.1954
     91  CA        -1.0380   23.0760   36.6260 C.3   189  GLY189      0.1869
     92  C         -1.0740   22.5840   35.1920 C.2   189  GLY189      0.2309
     93  O         -1.5660   21.4750   34.9250 O.2   189  GLY189     -0.2863
     94  N          6.4900   21.8410   34.2890 N.3   193  LEU193     -0.1245
     95  CA         7.5200   21.1620   35.0690 C.3   193  LEU193      0.1561
     96  C          7.6220   19.6500   34.6990 C.2   193  LEU193      0.2260
     97  O          8.7280   19.1430   34.5400 O.2   193  LEU193     -0.2867
     98  CB         7.3050   21.3970   36.5770 C.3   193  LEU193      0.0270
     99  CG         8.4520   20.9960   37.5260 C.3   193  LEU193      0.0019
    100  CD1        9.7680   21.7780   37.2550 C.3   193  LEU193      0.0001
    101  CD2        8.0320   21.1780   38.9520 C.3   193  LEU193      0.0001
    102  N         -1.4430   15.8870   38.3150 N.3   209  PHE209     -0.1227
    103  CA        -2.6710   15.8950   39.0990 C.3   209  PHE209      0.1736
    104  C         -3.0800   17.3360   39.4980 C.2   209  PHE209      0.2595
    105  O         -2.2980   18.0520   40.1300 O.2   209  PHE209     -0.2718
    106  CB        -2.5220   14.9920   40.3340 C.3   209  PHE209      0.0547
    107  CG        -3.7670   14.8380   41.1780 C.ar  209  PHE209     -0.0202
    108  CD1       -4.0880   15.7790   42.1550 C.ar  209  PHE209     -0.0042
    109  CD2       -4.5930   13.7270   41.0290 C.ar  209  PHE209     -0.0042
    110  CE1       -5.2290   15.6240   42.9370 C.ar  209  PHE209     -0.0003
    111  CE2       -5.7130   13.5570   41.8280 C.ar  209  PHE209     -0.0003
    112  CZ        -6.0180   14.4940   42.7900 C.ar  209  PHE209     -0.0000
    113  N         -4.3020   17.7430   39.1350 N.am  210  ASP210     -0.1960
    114  CA        -4.8640   19.0500   39.4840 C.3   210  ASP210      0.1840
    115  C         -6.4110   19.0080   39.5360 C.2   210  ASP210      0.2621
    116  O         -7.0200   17.9820   39.2090 O.2   210  ASP210     -0.2715
    117  CB        -4.3260   20.1760   38.5650 C.3   210  ASP210      0.1450
    118  CG        -3.9410   21.4590   39.3150 C.2   210  ASP210      0.3671
    119  OD1       -4.8460   22.1210   39.8690 O.co2 210  ASP210     -0.2456
    120  OD2       -2.7370   21.8280   39.2950 O.co2 210  ASP210     -0.2456
    121  N         -7.0420   20.1080   39.9720 N.am  211  ILE211     -0.1977
    122  CA        -8.5140   20.1890   40.0480 C.3   211  ILE211      0.1596
    123  C         -9.1670   20.0890   38.6360 C.2   211  ILE211      0.2287
    124  O         -8.5460   20.5270   37.6650 O.2   211  ILE211     -0.2864
    125  CB        -9.0000   21.4060   40.8950 C.3   211  ILE211      0.0276
    126  CG1       -8.6760   22.7530   40.2120 C.3   211  ILE211      0.0022
    127  CG2       -8.4600   21.3320   42.3370 C.3   211  ILE211      0.0022
    128  CD1       -9.4210   24.0040   40.7920 C.3   211  ILE211      0.0001
    129  N         -8.7190   22.9840   35.9910 N.3   214  VAL214     -0.1245
    130  CA        -7.3200   23.1670   35.5790 C.3   214  VAL214      0.1561
    131  C         -6.9510   22.1020   34.5340 C.2   214  VAL214      0.2260
    132  O         -6.4570   22.4540   33.4680 O.2   214  VAL214     -0.2867
    133  CB        -6.3240   23.2130   36.7720 C.3   214  VAL214      0.0252
    134  CG1       -4.8710   23.0330   36.3150 C.3   214  VAL214      0.0019
    135  CG2       -6.4820   24.5100   37.5590 C.3   214  VAL214      0.0019
    136  N         -8.7520   15.7920   40.1910 N.3   233  GLY233     -0.1210
    137  CA        -9.2320   15.5480   41.5430 C.3   233  GLY233      0.1956
    138  C         -8.8130   16.5860   42.5620 C.2   233  GLY233      0.2612
    139  O         -8.1720   17.5870   42.2320 O.2   233  GLY233     -0.2717
    140  N         -9.1900   16.3370   43.8140 N.am  234  ASP234     -0.1959
    141  CA        -8.8540   17.1490   44.9700 C.3   234  ASP234      0.1840
    142  C         -7.8680   16.3020   45.7780 C.2   234  ASP234      0.2622
    143  O         -8.2490   15.2470   46.2920 O.2   234  ASP234     -0.2715
    144  CB       -10.1360   17.4620   45.7810 C.3   234  ASP234      0.1450
    145  CG        -9.9600   18.1750   47.1210 C.2   234  ASP234      0.3671
    146  OD1       -8.7880   18.4500   47.5210 O.co2 234  ASP234     -0.2456
    147  OD2      -10.9790   18.4360   47.7850 O.co2 234  ASP234     -0.2456
    148  N         -6.6130   16.7490   45.8940 N.am  235  PHE235     -0.1960
    149  CA        -5.5970   15.9830   46.6420 C.3   235  PHE235      0.1771
    150  C         -5.7860   15.9510   48.1580 C.2   235  PHE235      0.2619
    151  O         -5.0400   15.2570   48.8390 O.2   235  PHE235     -0.2715
    152  CB        -4.1470   16.2900   46.2130 C.3   235  PHE235      0.0574
    153  CG        -3.7220   17.7400   46.1780 C.ar  235  PHE235     -0.0200
    154  CD1       -4.1250   18.6300   47.1740 C.ar  235  PHE235     -0.0042
    155  CD2       -2.8560   18.2010   45.1980 C.ar  235  PHE235     -0.0042
    156  CE1       -3.6890   19.9500   47.1700 C.ar  235  PHE235     -0.0003
    157  CE2       -2.4070   19.5160   45.2090 C.ar  235  PHE235     -0.0003
    158  CZ        -2.8470   20.3880   46.1780 C.ar  235  PHE235     -0.0000
    159  N         -6.8030   16.6550   48.6780 N.am  236  PHE236     -0.1974
    160  CA        -7.1240   16.6310   50.1090 C.3   236  PHE236      0.1639
    161  C         -8.1260   15.5320   50.4200 C.2   236  PHE236      0.2290
    162  O         -8.2960   15.2090   51.5900 O.2   236  PHE236     -0.2864
    163  CB        -7.6500   17.9910   50.6170 C.3   236  PHE236      0.0560
    164  CG        -6.5960   19.0610   50.7600 C.ar  236  PHE236     -0.0200
    165  CD1       -5.6010   18.9550   51.7230 C.ar  236  PHE236     -0.0042
    166  CD2       -6.5760   20.1560   49.9110 C.ar  236  PHE236     -0.0042
    167  CE1       -4.6160   19.9420   51.8420 C.ar  236  PHE236     -0.0003
    168  CE2       -5.5830   21.1300   50.0220 C.ar  236  PHE236     -0.0003
    169  CZ        -4.6130   21.0200   50.9880 C.ar  236  PHE236     -0.0000
    170  N          5.4270   21.2330   43.8410 N.3   249  ALA249     -0.1231
    171  CA         6.0450   22.5100   43.4630 C.3   249  ALA249      0.1694
    172  C          5.0810   23.6600   43.7350 C.2   249  ALA249      0.2592
    173  O          4.0080   23.7250   43.1300 O.2   249  ALA249     -0.2718
    174  CB         6.4690   22.4970   41.9980 C.3   249  ALA249      0.0304
    175  N          5.4540   24.5530   44.6680 N.am  250  ARG250     -0.1966
    176  CA         4.6670   25.7310   45.0380 C.3   250  ARG250      0.1729
    177  C          3.2250   25.3830   45.4580 C.2   250  ARG250      0.2616
    178  O          2.2800   26.1020   45.1200 O.2   250  ARG250     -0.2715
    179  CB         4.6870   26.8130   43.9200 C.3   250  ARG250      0.0348
    180  CG         6.0740   27.3630   43.6250 C.3   250  ARG250      0.0492
    181  CD         6.0090   28.5590   42.7080 C.3   250  ARG250      0.2205
    182  NE         5.6490   28.2060   41.3370 N.pl3 250  ARG250     -0.0865
    183  CZ         5.8140   29.0060   40.2880 C.cat 250  ARG250      0.5346
    184  NH1        6.3560   30.2130   40.4400 N.pl3 250  ARG250      0.1354
    185  NH2        5.4580   28.6000   39.0770 N.pl3 250  ARG250      0.1354
    186  N          3.0690   24.2780   46.2000 N.am  251  VAL251     -0.1977
    187  CA         1.7870   23.8390   46.7390 C.3   251  VAL251      0.1596
    188  C          1.7890   24.2010   48.2240 C.2   251  VAL251      0.2287
    189  O          0.9820   25.0260   48.6300 O.2   251  VAL251     -0.2864
    190  CB         1.4970   22.3430   46.4700 C.3   251  VAL251      0.0276
    191  CG1        0.2230   21.8910   47.1710 C.3   251  VAL251      0.0022
    192  CG2        1.4080   22.0690   44.9770 C.3   251  VAL251      0.0022
    193  N          3.3830   26.2680   50.0980 N.3   253  HIS253     -0.1226
    194  CA         3.3810   27.7050   50.3800 C.3   253  HIS253      0.1752
    195  C          1.9770   28.3650   50.3080 C.2   253  HIS253      0.2596
    196  O          1.8340   29.4930   50.7670 O.2   253  HIS253     -0.2718
    197  CB         4.4530   28.4540   49.5550 C.3   253  HIS253      0.0759
    198  CG         4.0680   28.7820   48.1390 C.ar  253  HIS253      0.0818
    199  ND1        4.5770   29.9010   47.4910 N.ar  253  HIS253     -0.2268
    200  CD2        3.2480   28.1290   47.2820 C.ar  253  HIS253      0.1154
    201  CE1        4.0410   29.8950   46.2780 C.ar  253  HIS253      0.1986
    202  NE2        3.2390   28.8480   46.1030 N.ar  253  HIS253     -0.2212
    203  N          0.9520   27.6670   49.7720 N.am  254  ASP254     -0.1960
    204  CA        -0.4030   28.2230   49.6520 C.3   254  ASP254      0.1840
    205  C         -1.1950   28.0060   50.9190 C.2   254  ASP254      0.2622
    206  O         -2.2460   28.6340   51.1050 O.2   254  ASP254     -0.2715
    207  CB        -1.1920   27.5210   48.5270 C.3   254  ASP254      0.1450
    208  CG        -0.6980   27.6540   47.1020 C.2   254  ASP254      0.3671
    209  OD1        0.1000   28.5760   46.8330 O.co2 254  ASP254     -0.2456
    210  OD2       -1.1830   26.8870   46.2290 O.co2 254  ASP254     -0.2456
    211  N         -0.7550   27.0470   51.7450 N.am  255  TRP255     -0.1974
    212  CA        -1.5160   26.6190   52.9050 C.3   255  TRP255      0.1640
    213  C         -0.8430   26.7450   54.2460 C.2   255  TRP255      0.2290
    214  O          0.3880   26.7670   54.3510 O.2   255  TRP255     -0.2864
    215  CB        -1.9750   25.1770   52.7030 C.3   255  TRP255      0.0576
    216  CG        -2.5330   24.8760   51.3400 C.ar  255  TRP255      0.0006
    217  CD1       -1.9330   24.1370   50.3590 C.ar  255  TRP255      0.0946
    218  CD2       -3.8190   25.2670   50.8220 C.ar  255  TRP255      0.0152
    219  NE1       -2.7610   24.0460   49.2610 N.ar  255  TRP255     -0.2442
    220  CE2       -3.9320   24.7170   49.5230 C.ar  255  TRP255      0.0810
    221  CE3       -4.9000   26.0110   51.3390 C.ar  255  TRP255      0.0012
    222  CZ2       -5.0800   24.8990   48.7270 C.ar  255  TRP255      0.0191
    223  CZ3       -6.0360   26.1930   50.5490 C.ar  255  TRP255      0.0001
    224  CH2       -6.1200   25.6400   49.2630 C.ar  255  TRP255      0.0015
@<TRIPOS>BOND
     1    59    57   am
     2    57    58    2
     3    57    56    1
     4    56    55    1
     5    55    52    1
     6    42    41    1
     7    54    53    2
     8    37    38    2
     9    37    36    1
    10    63    62    2
    11   132   131    2
    12    53    52    1
    13    62    61    1
    14    39    36    1
    15    39    40    1
    16    52    51    1
    17    41    40    1
    18    94    95    1
    19    36    35    1
    20   131   130    1
    21    97    96    2
    22    51    45   am
    23    96    95    1
    24    61    64    1
    25    61    60    1
    26    64    65    1
    27    93    92    2
    28    35    26   am
    29    24    25    1
    30    95    98    1
    31    92    91    1
    32   130   129    1
    33   130   133    1
    34    26    27    2
    35    26    25    1
    36    43    44    1
    37    45    46    2
    38    45    44    1
    39    65    66   ar
    40    65    67   ar
    41    66    68   ar
    42    25    28    1
    43   134   133    1
    44    89    88    2
    45    98    99    1
    46    44    47    1
    47    91    90    1
    48   133   135    1
    49   100    99    1
    50    28    29    1
    51    88    90   am
    52    88    87    1
    53    68    69   ar
    54    67    70   ar
    55    67    69   ar
    56    99   101    1
    57   124   123    2
    58    47    48    1
    59    81    79   ar
    60    70    72   ar
    61    69    71   ar
    62   102   103    1
    63    87    86    1
    64   117   118    1
    65   117   114    1
    66    29    31   ar
    67    29    30   ar
    68   123   122    1
    69    78    79    1
    70    78    75    1
    71    31    33   ar
    72    49    48    1
    73    79    80   ar
    74    18    20   ar
    75    18    17   ar
    76    48    50    1
    77   185   183    1
    78    15    14    2
    79   103   104    1
    80   103   106    1
    81    20    22   ar
    82   113   114    1
    83   113   104   am
    84    16    17    1
    85    16    13    1
    86   116   115    2
    87   120   118   ar
    88   118   119   ar
    89    17    19   ar
    90    14    13    1
    91   114   115    1
    92   104   105    2
    93    72    73   ar
    94    86    84   am
    95    13    12    1
    96   115   121   am
    97    30    32   ar
    98    22    23    1
    99    22    21   ar
   100    74    75    1
   101    71    73   ar
   102    19    21   ar
   103    77    76    2
   104    75    76    1
   105   121   122    1
   106    33    34   ar
   107   122   125    1
   108   136   137    1
   109   126   128    1
   110   126   125    1
   111   183   184    1
   112   183   182    2
   113   106   107    1
   114    84    85    2
   115    84    83    1
   116    32    34   ar
   117   125   127    1
   118   109   107   ar
   119   109   111   ar
   120   107   108   ar
   121   182   181    1
   122   137   138    1
   123    83    82    1
   124   111   112   ar
   125   174   171    1
   126   108   110   ar
   127   139   138    2
   128     4     3    2
   129   138   140   am
   130   181   180    1
   131   112   110   ar
   132     8    10   ar
   133     8     6   ar
   134    10    11   ar
   135   173   172    2
   136   171   172    1
   137   171   170    1
   138   180   179    1
   139     3     2    1
   140   172   175   am
   141   140   141    1
   142   179   176    1
   143     5     6    1
   144     5     2    1
   145     6     7   ar
   146    11     9   ar
   147     2     1    1
   148   175   176    1
   149   141   142    1
   150   141   144    1
   151   192   190    1
   152   176   177    1
   153   178   177    2
   154   155   157   ar
   155   155   153   ar
   156   157   158   ar
   157     7     9   ar
   158   177   186   am
   159   142   148   am
   160   142   143    2
   161   144   145    1
   162   148   149    1
   163   202   201   ar
   164   202   200   ar
   165   153   152    1
   166   153   154   ar
   167   158   156   ar
   168   186   187    1
   169   152   149    1
   170   210   208   ar
   171   201   199   ar
   172   190   187    1
   173   190   191    1
   174   149   150    1
   175   187   188    1
   176   209   208   ar
   177   208   207    1
   178   145   146   ar
   179   145   147   ar
   180   156   154   ar
   181   200   198   ar
   182   199   198   ar
   183   198   197    1
   184   150   159   am
   185   150   151    2
   186   188   189    2
   187   207   204    1
   188   159   160    1
   189   222   224   ar
   190   222   220   ar
   191   219   220   ar
   192   219   217   ar
   193   224   223   ar
   194   220   218   ar
   195   197   194    1
   196   204   203    1
   197   204   205    1
   198   203   195   am
   199   166   168   ar
   200   166   164   ar
   201   168   169   ar
   202   193   194    1
   203   160   161    1
   204   160   163    1
   205   195   194    1
   206   195   196    2
   207   217   216   ar
   208   161   162    2
   209   223   221   ar
   210   163   164    1
   211   164   165   ar
   212   218   221   ar
   213   218   216   ar
   214   205   206    2
   215   205   211   am
   216   169   167   ar
   217   216   215    1
   218   165   167   ar
   219   211   212    1
   220   215   212    1
   221   212   213    1
   222   213   214    2
