@<TRIPOS>MOLECULE
tmp/4a6eA01.pdb
 166 158 0 0 0
SMALL
GASTEIGER

@<TRIPOS>ATOM
      1  N          3.6210   35.9950   33.3830 N.3   105  MET105     -0.1245
      2  CA         3.8470   36.1530   34.8150 C.3   105  MET105      0.1570
      3  C          3.8050   37.6400   35.1850 C.2   105  MET105      0.2261
      4  O          3.1020   38.0290   36.1340 O.2   105  MET105     -0.2867
      5  CB         5.1760   35.4650   35.2340 C.3   105  MET105      0.0387
      6  CG         5.4260   35.4490   36.7460 C.3   105  MET105      0.0595
      7  SD         4.0240   34.9840   37.8350 S.3   105  MET105     -0.1393
      8  CE         4.4150   33.3680   38.0670 C.3   105  MET105      0.0692
      9  N          0.2490   38.9500   34.9580 N.3   108  TYR108     -0.1227
     10  CA        -0.4890   38.5010   36.1480 C.3   108  TYR108      0.1736
     11  C         -0.1220   39.3480   37.3470 C.2   108  TYR108      0.2595
     12  O         -0.9970   39.7410   38.0970 O.2   108  TYR108     -0.2718
     13  CB        -0.2650   36.9980   36.4480 C.3   108  TYR108      0.0548
     14  CG        -1.0850   36.4760   37.6130 C.ar  108  TYR108     -0.0200
     15  CD1       -2.4090   36.0900   37.4430 C.ar  108  TYR108     -0.0009
     16  CD2       -0.5440   36.3970   38.8940 C.ar  108  TYR108     -0.0009
     17  CE1       -3.1640   35.5970   38.5070 C.ar  108  TYR108      0.0417
     18  CE2       -1.2990   35.9390   39.9720 C.ar  108  TYR108      0.0417
     19  CZ        -2.6080   35.5430   39.7730 C.ar  108  TYR108      0.1957
     20  OH        -3.3410   35.0750   40.8320 O.3   108  TYR108     -0.2866
     21  N          1.1550   39.6280   37.5320 N.am  109  MET109     -0.1979
     22  CA         1.6130   40.4410   38.6430 C.3   109  MET109      0.1605
     23  C          0.9920   41.8440   38.6350 C.2   109  MET109      0.2287
     24  O          0.5870   42.3480   39.6900 O.2   109  MET109     -0.2864
     25  CB         3.1360   40.5030   38.6490 C.3   109  MET109      0.0413
     26  CG         3.7330   39.4140   39.4670 C.3   109  MET109      0.0598
     27  SD         5.5340   39.4660   39.5410 S.3   109  MET109     -0.1393
     28  CE         5.9040   38.6360   38.0840 C.3   109  MET109      0.0692
     29  N         -1.7370   40.5760   41.3960 N.3   113  SER113     -0.1217
     30  CA        -0.9790   40.8090   42.6340 C.3   113  SER113      0.1889
     31  C         -0.9260   42.2750   43.0040 C.2   113  SER113      0.2288
     32  O         -1.2570   42.6180   44.1360 O.2   113  SER113     -0.2866
     33  CB         0.4270   40.2260   42.5360 C.3   113  SER113      0.2089
     34  OG         0.4200   38.9800   41.8580 O.3   113  SER113     -0.2183
     35  N         -8.9990   28.6610   45.9310 N.3   143  PHE143     -0.1241
     36  CA        -8.9160   28.5960   44.4800 C.3   143  PHE143      0.1605
     37  C        -10.1730   29.0280   43.6950 C.2   143  PHE143      0.2264
     38  O        -10.0690   29.2770   42.4860 O.2   143  PHE143     -0.2867
     39  CB        -8.2050   27.3250   43.9910 C.3   143  PHE143      0.0534
     40  CG        -6.6950   27.4510   44.0900 C.ar  143  PHE143     -0.0203
     41  CD1       -6.0340   27.1950   45.2880 C.ar  143  PHE143     -0.0042
     42  CD2       -5.9380   27.8350   42.9890 C.ar  143  PHE143     -0.0042
     43  CE1       -4.6450   27.3210   45.3820 C.ar  143  PHE143     -0.0003
     44  CE2       -4.5440   27.9580   43.0830 C.ar  143  PHE143     -0.0003
     45  CZ        -3.9110   27.7170   44.2810 C.ar  143  PHE143     -0.0000
     46  N         -8.9770   32.6620   43.4800 N.3   146  ILE146     -0.1245
     47  CA        -7.8390   32.6950   42.5440 C.3   146  ILE146      0.1561
     48  C         -8.3090   32.4710   41.0770 C.2   146  ILE146      0.2260
     49  O         -7.8190   33.1730   40.1830 O.2   146  ILE146     -0.2867
     50  CB        -6.6530   31.7820   42.9710 C.3   146  ILE146      0.0252
     51  CG1       -6.1340   32.1780   44.3710 C.3   146  ILE146      0.0019
     52  CG2       -5.5150   31.8110   41.9220 C.3   146  ILE146      0.0019
     53  CD1       -5.0260   31.2510   44.9560 C.3   146  ILE146      0.0001
     54  N         -3.4370   32.7300   35.0680 N.3   156  PHE156     -0.1241
     55  CA        -2.7150   32.1480   36.1980 C.3   156  PHE156      0.1605
     56  C         -1.8450   30.9510   35.7200 C.2   156  PHE156      0.2264
     57  O         -0.6410   30.9070   36.0200 O.2   156  PHE156     -0.2867
     58  CB        -3.6930   31.7160   37.3060 C.3   156  PHE156      0.0534
     59  CG        -3.0200   31.2600   38.5770 C.ar  156  PHE156     -0.0203
     60  CD1       -2.6450   32.1780   39.5530 C.ar  156  PHE156     -0.0042
     61  CD2       -2.7590   29.9090   38.8020 C.ar  156  PHE156     -0.0042
     62  CE1       -2.0230   31.7580   40.7370 C.ar  156  PHE156     -0.0003
     63  CE2       -2.1230   29.4850   39.9840 C.ar  156  PHE156     -0.0003
     64  CZ        -1.7740   30.4110   40.9510 C.ar  156  PHE156     -0.0000
     65  N          2.3350   31.0690   35.7980 N.3   160  LEU160     -0.1245
     66  CA         3.1660   30.1700   36.6240 C.3   160  LEU160      0.1561
     67  C          4.1560   29.2710   35.9070 C.2   160  LEU160      0.2260
     68  O          5.2460   29.0210   36.4470 O.2   160  LEU160     -0.2867
     69  CB         2.3680   29.4330   37.7220 C.3   160  LEU160      0.0270
     70  CG         2.1920   30.2160   39.0340 C.3   160  LEU160      0.0019
     71  CD1        1.2250   31.3970   38.8790 C.3   160  LEU160      0.0001
     72  CD2        1.7100   29.3120   40.1370 C.3   160  LEU160      0.0001
     73  N          5.4540   24.5530   44.6680 N.3   250  ARG250     -0.1245
     74  CA         4.6670   25.7310   45.0380 C.3   250  ARG250      0.1563
     75  C          3.2250   25.3830   45.4580 C.2   250  ARG250      0.2260
     76  O          2.2800   26.1020   45.1200 O.2   250  ARG250     -0.2867
     77  CB         4.6870   26.8130   43.9200 C.3   250  ARG250      0.0307
     78  CG         6.0740   27.3630   43.6250 C.3   250  ARG250      0.0489
     79  CD         6.0090   28.5590   42.7080 C.3   250  ARG250      0.2205
     80  NE         5.6490   28.2060   41.3370 N.pl3 250  ARG250     -0.0865
     81  CZ         5.8140   29.0060   40.2880 C.cat 250  ARG250      0.5346
     82  NH1        6.3560   30.2130   40.4400 N.pl3 250  ARG250      0.1354
     83  NH2        5.4580   28.6000   39.0770 N.pl3 250  ARG250      0.1354
     84  N          3.3830   26.2680   50.0980 N.3   253  HIS253     -0.1226
     85  CA         3.3810   27.7050   50.3800 C.3   253  HIS253      0.1752
     86  C          1.9770   28.3650   50.3080 C.2   253  HIS253      0.2596
     87  O          1.8340   29.4930   50.7670 O.2   253  HIS253     -0.2718
     88  CB         4.4530   28.4540   49.5550 C.3   253  HIS253      0.0759
     89  CG         4.0680   28.7820   48.1390 C.ar  253  HIS253      0.0818
     90  ND1        4.5770   29.9010   47.4910 N.ar  253  HIS253     -0.2268
     91  CD2        3.2480   28.1290   47.2820 C.ar  253  HIS253      0.1154
     92  CE1        4.0410   29.8950   46.2780 C.ar  253  HIS253      0.1986
     93  NE2        3.2390   28.8480   46.1030 N.ar  253  HIS253     -0.2212
     94  N          0.9520   27.6670   49.7720 N.am  254  ASP254     -0.1974
     95  CA        -0.4030   28.2230   49.6520 C.3   254  ASP254      0.1709
     96  C         -1.1950   28.0060   50.9190 C.2   254  ASP254      0.2293
     97  O         -2.2460   28.6340   51.1050 O.2   254  ASP254     -0.2864
     98  CB        -1.1920   27.5210   48.5270 C.3   254  ASP254      0.1436
     99  CG        -0.6980   27.6540   47.1020 C.2   254  ASP254      0.3671
    100  OD1        0.1000   28.5760   46.8330 O.co2 254  ASP254     -0.2456
    101  OD2       -1.1830   26.8870   46.2290 O.co2 254  ASP254     -0.2456
    102  N          7.9430   37.3600   48.4710 N.3   297  TYR297     -0.1241
    103  CA         7.1100   36.2020   48.0910 C.3   297  TYR297      0.1605
    104  C          6.2390   35.6710   49.2650 C.2   297  TYR297      0.2264
    105  O          5.1010   35.2770   49.0170 O.2   297  TYR297     -0.2867
    106  CB         7.9670   35.0610   47.4660 C.3   297  TYR297      0.0534
    107  CG         8.2980   35.2530   45.9950 C.ar  297  TYR297     -0.0201
    108  CD1        8.2830   36.5230   45.4110 C.ar  297  TYR297     -0.0009
    109  CD2        8.5760   34.1620   45.1730 C.ar  297  TYR297     -0.0009
    110  CE1        8.5740   36.7060   44.0570 C.ar  297  TYR297      0.0417
    111  CE2        8.8830   34.3370   43.8170 C.ar  297  TYR297      0.0417
    112  CZ         8.8770   35.6140   43.2650 C.ar  297  TYR297      0.1957
    113  OH         9.1430   35.8220   41.9340 O.3   297  TYR297     -0.2866
    114  N          3.4800   38.1230   49.7500 N.3   300  ASN300     -0.1225
    115  CA         2.5220   37.8880   48.6650 C.3   300  ASN300      0.1785
    116  C          1.6070   36.6840   49.0070 C.2   300  ASN300      0.2597
    117  O          0.4380   36.7120   48.6470 O.2   300  ASN300     -0.2718
    118  CB         3.1970   37.6890   47.3190 C.3   300  ASN300      0.1169
    119  CG         2.2070   37.5650   46.1770 C.2   300  ASN300      0.2627
    120  OD1        1.4650   38.4930   45.8650 O.2   300  ASN300     -0.2716
    121  ND2        2.1080   36.3870   45.5880 N.am  300  ASN300     -0.0877
    122  N          2.1130   35.6650   49.7420 N.am  301  MET301     -0.1979
    123  CA         1.2650   34.5450   50.2050 C.3   301  MET301      0.1605
    124  C          0.2640   35.0310   51.2870 C.2   301  MET301      0.2287
    125  O         -0.8520   34.5270   51.3580 O.2   301  MET301     -0.2864
    126  CB         2.0900   33.3160   50.6710 C.3   301  MET301      0.0413
    127  CG         2.8810   32.6630   49.5560 C.3   301  MET301      0.0598
    128  SD         1.8540   31.8150   48.3070 S.3   301  MET301     -0.1393
    129  CE         1.9240   32.9910   46.8970 C.3   301  MET301      0.0692
    130  N         -2.1760   36.8420   48.8120 N.3   304  GLN304     -0.1231
    131  CA        -2.7630   36.0000   47.7600 C.3   304  GLN304      0.1698
    132  C         -3.2400   34.5760   48.1030 C.2   304  GLN304      0.2592
    133  O         -4.0220   34.0190   47.3350 O.2   304  GLN304     -0.2718
    134  CB        -1.8670   35.9780   46.5050 C.3   304  GLN304      0.0381
    135  CG        -2.0160   37.2130   45.6200 C.3   304  GLN304      0.0905
    136  CD        -1.7220   36.8720   44.1790 C.2   304  GLN304      0.2608
    137  OE1       -2.6130   36.5300   43.4070 O.2   304  GLN304     -0.2717
    138  NE2       -0.4610   36.9060   43.7910 N.am  304  GLN304     -0.0878
    139  N         -2.7250   33.9520   49.1780 N.am  305  THR305     -0.1953
    140  CA        -3.1160   32.5870   49.5510 C.3   305  THR305      0.1897
    141  C         -3.4520   32.5070   51.0460 C.2   305  THR305      0.2313
    142  O         -3.8830   33.4990   51.6310 O.2   305  THR305     -0.2863
    143  CB        -2.0450   31.5640   49.1240 C.3   305  THR305      0.1794
    144  OG1       -0.8770   31.7480   49.9270 O.3   305  THR305     -0.2208
    145  CG2       -1.7100   31.6060   47.6220 C.3   305  THR305      0.0378
    146  N          6.1380   31.5560   53.1280 N.3   309  GLU309     -0.1245
    147  CA         7.3710   30.9020   52.7160 C.3   309  GLU309      0.1567
    148  C          7.9630   30.2890   53.9910 C.2   309  GLU309      0.2260
    149  O          7.5860   30.6870   55.1110 O.2   309  GLU309     -0.2867
    150  CB         8.3360   31.8480   51.9720 C.3   309  GLU309      0.0388
    151  CG         7.8050   32.3360   50.6200 C.3   309  GLU309      0.1160
    152  CD         7.1530   31.3570   49.6500 C.2   309  GLU309      0.3649
    153  OE1        7.5350   30.1630   49.6270 O.co2 309  GLU309     -0.2457
    154  OE2        6.2930   31.8090   48.8620 O.co2 309  GLU309     -0.2457
    155  N         13.9000   29.1790   43.0860 N.3   336  TYR336     -0.1241
    156  CA        13.4290   27.8580   43.4940 C.3   336  TYR336      0.1605
    157  C         14.5110   26.8340   43.7950 C.2   336  TYR336      0.2264
    158  O         15.4560   26.6070   43.0080 O.2   336  TYR336     -0.2867
    159  CB        12.2660   27.3500   42.6150 C.3   336  TYR336      0.0534
    160  CG        11.0880   28.2990   42.6860 C.ar  336  TYR336     -0.0201
    161  CD1       10.3010   28.3790   43.8380 C.ar  336  TYR336     -0.0009
    162  CD2       10.8420   29.2190   41.6620 C.ar  336  TYR336     -0.0009
    163  CE1        9.2840   29.3260   43.9540 C.ar  336  TYR336      0.0417
    164  CE2        9.8010   30.1430   41.7530 C.ar  336  TYR336      0.0417
    165  CZ         9.0400   30.2080   42.9100 C.ar  336  TYR336      0.1957
    166  OH         8.0190   31.1180   43.0240 O.3   336  TYR336     -0.2866
@<TRIPOS>BOND
     1     1     2    1
     2     2     3    1
     3     2     5    1
     4     9    10    1
     5    54    55    1
     6     3     4    2
     7     5     6    1
     8    56    57    2
     9    56    55    1
    10    65    66    1
    11    67    68    2
    12    67    66    1
    13    10    13    1
    14    10    11    1
    15    55    58    1
    16    13    14    1
    17    66    69    1
    18     6     7    1
    19    58    59    1
    20    11    21   am
    21    11    12    2
    22    15    14   ar
    23    15    17   ar
    24    21    22    1
    25    14    16   ar
    26    69    70    1
    27     7     8    1
    28    28    27    1
    29    17    19   ar
    30    59    61   ar
    31    59    60   ar
    32    23    22    1
    33    23    24    2
    34    22    25    1
    35    25    26    1
    36    61    63   ar
    37    71    70    1
    38    16    18   ar
    39    70    72    1
    40    83    81    1
    41    26    27    1
    42    60    62   ar
    43    19    18   ar
    44    19    20    1
    45    63    64   ar
    46    49    48    2
    47    81    82    1
    48    81    80    2
    49    62    64   ar
    50    48    47    1
    51    80    79    1
    52    29    30    1
    53   162   164   ar
    54   162   160   ar
    55   164   165   ar
    56    34    33    1
    57    52    50    1
    58   113   112    1
    59    38    37    2
    60    33    30    1
    61    47    50    1
    62    47    46    1
    63   159   160    1
    64   159   156    1
    65    30    31    1
    66   160   161   ar
    67    79    78    1
    68   165   166    1
    69   165   163   ar
    70    50    51    1
    71    42    44   ar
    72    42    40   ar
    73    31    32    2
    74   158   157    2
    75    44    45   ar
    76   155   156    1
    77   112   111   ar
    78   112   110   ar
    79   137   136    2
    80   156   157    1
    81    78    77    1
    82    37    36    1
    83   138   136   am
    84   111   109   ar
    85   161   163   ar
    86    77    74    1
    87    39    40    1
    88    39    36    1
    89   110   108   ar
    90    40    41   ar
    91   136   135    1
    92    45    43   ar
    93    51    53    1
    94    36    35    1
    95    73    74    1
    96    74    75    1
    97    76    75    2
    98   109   107   ar
    99    41    43   ar
   100   108   107   ar
   101   121   119   am
   102   135   134    1
   103   120   119    2
   104   107   106    1
   105    93    92   ar
   106    93    91   ar
   107   119   118    1
   108   101    99   ar
   109    92    90   ar
   110   134   131    1
   111   100    99   ar
   112   129   128    1
   113    99    98    1
   114    91    89   ar
   115   118   115    1
   116   133   132    2
   117   106   103    1
   118    90    89   ar
   119   145   143    1
   120   131   132    1
   121   131   130    1
   122   103   102    1
   123   103   104    1
   124   132   139   am
   125    89    88    1
   126   128   127    1
   127    98    95    1
   128   117   116    2
   129   115   116    1
   130   115   114    1
   131   154   152   ar
   132   116   122   am
   133   105   104    2
   134   143   140    1
   135   143   144    1
   136   139   140    1
   137   140   141    1
   138    88    85    1
   139   127   126    1
   140   153   152   ar
   141   152   151    1
   142    95    94    1
   143    95    96    1
   144   122   123    1
   145    94    86   am
   146    84    85    1
   147   123   126    1
   148   123   124    1
   149    86    85    1
   150    86    87    2
   151   151   150    1
   152    96    97    2
   153   141   142    2
   154   124   125    2
   155   150   147    1
   156   147   146    1
   157   147   148    1
   158   148   149    2
