@<TRIPOS>MOLECULE
tmp/4a6hA01.pdb
 107 103 0 0 0
SMALL
GASTEIGER

@<TRIPOS>ATOM
      1  N         10.2750    5.0760    6.8920 N.3     1  HIS1       -0.1241
      2  CA         9.5650    3.8440    7.2290 C.3     1  HIS1        0.1621
      3  C          9.2810    3.7080    8.7290 C.2     1  HIS1        0.2264
      4  O          9.7870    2.7870    9.3710 O.2     1  HIS1       -0.2867
      5  CB        10.3610    2.6190    6.7500 C.3     1  HIS1        0.0745
      6  CG        10.6760    2.6330    5.2870 C.ar    1  HIS1        0.0817
      7  ND1        9.8600    2.0460    4.3420 N.ar    1  HIS1       -0.2268
      8  CD2       11.7210    3.1610    4.6060 C.ar    1  HIS1        0.1154
      9  CE1       10.3860    2.2190    3.1420 C.ar    1  HIS1        0.1986
     10  NE2       11.5140    2.8930    3.2740 N.ar    1  HIS1       -0.2212
     11  N          7.2840    2.7170   12.1650 N.3     3  PHE3       -0.1241
     12  CA         6.6010    1.4710   12.4850 C.3     3  PHE3        0.1605
     13  C          6.3550    1.4370   13.9840 C.2     3  PHE3        0.2264
     14  O          7.2410    1.7910   14.7750 O.2     3  PHE3       -0.2867
     15  CB         7.4620    0.2880   12.0350 C.3     3  PHE3        0.0534
     16  CG         6.6940   -0.9870   11.8250 C.ar    3  PHE3       -0.0203
     17  CD1        6.4950   -1.8750   12.8660 C.ar    3  PHE3       -0.0042
     18  CD2        6.1940   -1.3130   10.5740 C.ar    3  PHE3       -0.0042
     19  CE1        5.7950   -3.0510   12.6750 C.ar    3  PHE3       -0.0003
     20  CE2        5.4990   -2.4940   10.3770 C.ar    3  PHE3       -0.0003
     21  CZ         5.3020   -3.3670   11.4300 C.ar    3  PHE3       -0.0000
     22  N          6.6220   -0.3160   16.5330 N.3     5  GLU5       -0.1245
     23  CA         7.2750   -1.5070   17.0400 C.3     5  GLU5        0.1567
     24  C          7.4500   -1.3610   18.5400 C.2     5  GLU5        0.2260
     25  O          7.9200   -0.3280   19.0030 O.2     5  GLU5       -0.2867
     26  CB         8.6360   -1.6830   16.3480 C.3     5  GLU5        0.0388
     27  CG         9.7270   -2.3100   17.2020 C.3     5  GLU5        0.1160
     28  CD        11.1010   -2.0360   16.6360 C.2     5  GLU5        0.3649
     29  OE1       11.1740   -1.3710   15.5830 O.co2   5  GLU5       -0.2457
     30  OE2       12.1060   -2.4710   17.2360 O.co2   5  GLU5       -0.2457
     31  N         12.9840  -12.9750   11.7660 N.3    25  TYR25      -0.1241
     32  CA        13.0530  -11.6530   12.3550 C.3    25  TYR25       0.1605
     33  C         11.6640  -11.2500   12.8220 C.2    25  TYR25       0.2264
     34  O         10.7340  -11.1220   12.0230 O.2    25  TYR25      -0.2867
     35  CB        13.5990  -10.6150   11.3810 C.3    25  TYR25       0.0534
     36  CG        13.8760   -9.3000   12.0530 C.ar   25  TYR25      -0.0201
     37  CD1       14.9950   -9.1330   12.8610 C.ar   25  TYR25      -0.0009
     38  CD2       13.0020   -8.2330   11.9170 C.ar   25  TYR25      -0.0009
     39  CE1       15.2450   -7.9320   13.5000 C.ar   25  TYR25       0.0417
     40  CE2       13.2470   -7.0400   12.5570 C.ar   25  TYR25       0.0417
     41  CZ        14.3720   -6.8830   13.3270 C.ar   25  TYR25       0.1957
     42  OH        14.6110   -5.6830   13.9560 O.3    25  TYR25      -0.2866
     43  N          8.7550   -8.9490   14.9070 N.3    27  VAL27      -0.1245
     44  CA         8.3980   -7.5930   15.2950 C.3    27  VAL27       0.1561
     45  C          7.0880   -7.6410   16.0580 C.2    27  VAL27       0.2260
     46  O          6.0700   -8.0940   15.5140 O.2    27  VAL27      -0.2867
     47  CB         8.2770   -6.6660   14.0710 C.3    27  VAL27       0.0252
     48  CG1        7.8960   -5.2600   14.4940 C.3    27  VAL27       0.0019
     49  CG2        9.6040   -6.6480   13.2990 C.3    27  VAL27       0.0019
     50  N          9.1430  -11.8720    9.9010 N.3    36  PHE36      -0.1241
     51  CA         9.6810  -11.5920    8.5680 C.3    36  PHE36       0.1605
     52  C         10.8830  -12.4890    8.3170 C.2    36  PHE36       0.2264
     53  O         11.5540  -12.9360    9.2530 O.2    36  PHE36      -0.2867
     54  CB        10.0890  -10.1220    8.4520 C.3    36  PHE36       0.0534
     55  CG         8.9600   -9.1490    8.7080 C.ar   36  PHE36      -0.0203
     56  CD1        8.6840   -8.7190    9.9860 C.ar   36  PHE36      -0.0042
     57  CD2        8.1710   -8.6710    7.6720 C.ar   36  PHE36      -0.0042
     58  CE1        7.6520   -7.8250   10.2410 C.ar   36  PHE36      -0.0003
     59  CE2        7.1370   -7.7690    7.9260 C.ar   36  PHE36      -0.0003
     60  CZ         6.8730   -7.3570    9.2090 C.ar   36  PHE36      -0.0000
     61  N         13.6680  -11.5430    6.9410 N.3    38  THR38      -0.1203
     62  CA        14.8670  -10.7750    7.2350 C.3    38  THR38       0.1994
     63  C         14.5690   -9.5150    8.0190 C.2    38  THR38       0.2618
     64  O         13.4050   -9.1540    8.2370 O.2    38  THR38      -0.2717
     65  CB        15.5980  -10.3190    5.9540 C.3    38  THR38       0.1784
     66  OG1       14.8640   -9.2480    5.3440 O.3    38  THR38      -0.2211
     67  CG2       15.7390  -11.4620    4.9470 C.3    38  THR38       0.0376
     68  N         15.6370   -8.8360    8.4250 N.am   39  ALA39      -0.1965
     69  CA        15.5400   -7.6180    9.2030 C.3    39  ALA39       0.1728
     70  C         15.5240   -6.3630    8.3490 C.2    39  ALA39       0.2616
     71  O         15.6630   -5.2630    8.8760 O.2    39  ALA39      -0.2715
     72  CB        16.6790   -7.5450   10.2210 C.3    39  ALA39       0.0334
     73  N         15.3480   -6.5020    7.0410 N.am   40  ASP40      -0.1957
     74  CA        15.3680   -5.3110    6.1900 C.3    40  ASP40       0.1840
     75  C         14.0550   -4.5280    6.3390 C.2    40  ASP40       0.2621
     76  O         13.1010   -4.7710    5.6090 O.2    40  ASP40      -0.2715
     77  CB        15.6870   -5.6740    4.7420 C.3    40  ASP40       0.1450
     78  CG        15.9010   -4.4530    3.8790 C.2    40  ASP40       0.3671
     79  OD1       15.5200   -3.3500    4.3270 O.co2  40  ASP40      -0.2456
     80  OD2       16.4780   -4.5990    2.7880 O.co2  40  ASP40      -0.2456
     81  N         14.0510   -3.5920    7.2930 N.am   41  ARG41      -0.1977
     82  CA        12.8530   -2.8500    7.7130 C.3    41  ARG41       0.1597
     83  C         12.3380   -1.9040    6.6440 C.2    41  ARG41       0.2287
     84  O         11.2280   -1.3830    6.7550 O.2    41  ARG41      -0.2864
     85  CB        13.1330   -2.0350    8.9800 C.3    41  ARG41       0.0334
     86  CG        13.7520   -2.8180   10.1150 C.3    41  ARG41       0.0492
     87  CD        12.7540   -3.7300   10.7570 C.3    41  ARG41       0.2205
     88  NE        11.6140   -2.9720   11.2630 N.pl3  41  ARG41      -0.0865
     89  CZ        11.2740   -2.8920   12.5440 C.cat  41  ARG41       0.5346
     90  NH1       12.1080   -3.3230   13.4820 N.pl3  41  ARG41       0.1354
     91  NH2       10.1410   -2.2860   12.8880 N.pl3  41  ARG41       0.1354
     92  N         11.7000   -5.4880    3.2470 N.3    44  ASP44      -0.1225
     93  CA        11.0940   -6.8020    3.4940 C.3    44  ASP44       0.1805
     94  C          9.8930   -6.6390    4.4210 C.2    44  ASP44       0.2597
     95  O         10.0100   -6.7930    5.6210 O.2    44  ASP44      -0.2718
     96  CB        12.1350   -7.7580    4.1090 C.3    44  ASP44       0.1424
     97  CG        11.5740   -9.1470    4.4100 C.2    44  ASP44       0.3668
     98  OD1       10.4300   -9.4640    4.0200 O.co2  44  ASP44      -0.2456
     99  OD2       12.2910   -9.9310    5.0650 O.co2  44  ASP44      -0.2456
    100  N          8.7530   -6.2700    3.8450 N.am   45  LEU45      -0.1979
    101  CA         7.6030   -5.8780    4.6520 C.3    45  LEU45       0.1596
    102  C          6.3170   -6.6760    4.3830 C.2    45  LEU45       0.2287
    103  O          5.2400   -6.2340    4.7680 O.2    45  LEU45      -0.2864
    104  CB         7.3540   -4.3690    4.5210 C.3    45  LEU45       0.0297
    105  CG         8.2860   -3.4250    5.2930 C.3    45  LEU45       0.0022
    106  CD1        8.3000   -2.0410    4.6620 C.3    45  LEU45       0.0001
    107  CD2        7.8970   -3.3430    6.7620 C.3    45  LEU45       0.0001
@<TRIPOS>BOND
     1    80    78   ar
     2     9    10   ar
     3     9     7   ar
     4    92    93    1
     5    10     8   ar
     6    93    96    1
     7    93    94    1
     8   100    94   am
     9   100   101    1
    10    78    79   ar
    11    78    77    1
    12    98    97   ar
    13    96    97    1
    14     7     6   ar
    15   102   101    1
    16   102   103    2
    17    97    99   ar
    18    94    95    2
    19   104   101    1
    20   104   105    1
    21     8     6   ar
    22   106   105    1
    23    77    74    1
    24    67    65    1
    25     6     5    1
    26   105   107    1
    27    66    65    1
    28    76    75    2
    29    65    62    1
    30    74    75    1
    31    74    73    1
    32    75    81   am
    33    83    84    2
    34    83    82    1
    35     5     2    1
    36     1     2    1
    37    61    62    1
    38    73    70   am
    39     2     3    1
    40    62    63    1
    41    81    82    1
    42    57    59   ar
    43    57    55   ar
    44    82    85    1
    45    59    60   ar
    46    63    64    2
    47    63    68   am
    48    52    51    1
    49    52    53    2
    50    70    71    2
    51    70    69    1
    52    68    69    1
    53    54    51    1
    54    54    55    1
    55    51    50    1
    56    55    56   ar
    57     3     4    2
    58    85    86    1
    59    69    72    1
    60    60    58   ar
    61    56    58   ar
    62    86    87    1
    63    20    18   ar
    64    20    21   ar
    65    18    16   ar
    66    87    88    1
    67    88    89    2
    68    35    36    1
    69    35    32    1
    70    21    19   ar
    71    31    32    1
    72    16    15    1
    73    16    17   ar
    74    38    36   ar
    75    38    40   ar
    76    34    33    2
    77    15    12    1
    78    36    37   ar
    79    11    12    1
    80    32    33    1
    81    12    13    1
    82    89    91    1
    83    89    90    1
    84    40    41   ar
    85    19    17   ar
    86    37    39   ar
    87    49    47    1
    88    41    39   ar
    89    41    42    1
    90    13    14    2
    91    47    48    1
    92    47    44    1
    93    43    44    1
    94    44    45    1
    95    46    45    2
    96    29    28   ar
    97    26    23    1
    98    26    27    1
    99    22    23    1
   100    28    27    1
   101    28    30   ar
   102    23    24    1
   103    24    25    2
