@<TRIPOS>MOLECULE
tmp/4a6lB00.pdb
 166 162 0 0 0
SMALL
GASTEIGER

@<TRIPOS>ATOM
      1  N         34.1330   34.5810    3.1160 N.3    44  HIS44      -0.1241
      2  CA        33.2560   35.7440    3.2130 C.3    44  HIS44       0.1621
      3  C         31.8130   35.3440    3.5520 C.2    44  HIS44       0.2264
      4  O         31.0260   36.1870    3.9510 O.2    44  HIS44      -0.2867
      5  CB        33.3510   36.6510    1.9520 C.3    44  HIS44       0.0745
      6  CG        32.4820   36.2170    0.8130 C.ar   44  HIS44       0.0817
      7  ND1       33.0190   35.6550   -0.3290 N.ar   44  HIS44      -0.2268
      8  CD2       31.1390   36.2960    0.6710 C.ar   44  HIS44       0.1154
      9  CE1       31.9940   35.3730   -1.1060 C.ar   44  HIS44       0.1986
     10  NE2       30.8440   35.7540   -0.5590 N.ar   44  HIS44      -0.2212
     11  N         38.3210   40.6340   -2.1250 N.3    87  GLN87      -0.1245
     12  CA        39.1850   41.3320   -3.0840 C.3    87  GLN87       0.1566
     13  C         40.6910   41.1570   -2.7510 C.2    87  GLN87       0.2260
     14  O         41.5320   41.1050   -3.6560 O.2    87  GLN87      -0.2867
     15  CB        38.7900   42.8200   -3.2250 C.3    87  GLN87       0.0367
     16  CG        37.4160   43.0400   -3.8820 C.3    87  GLN87       0.0905
     17  CD        36.2460   42.7310   -2.9790 C.2    87  GLN87       0.2608
     18  OE1       36.2950   42.9020   -1.7570 O.2    87  GLN87      -0.2717
     19  NE2       35.1800   42.2050   -3.5560 N.am   87  GLN87      -0.0878
     20  N         39.6310   43.5700  -15.7590 N.3   162  TYR162     -0.1241
     21  CA        39.2090   44.3440  -14.5850 C.3   162  TYR162      0.1605
     22  C         39.7300   45.7700  -14.5930 C.2   162  TYR162      0.2264
     23  O         39.1240   46.6440  -13.9700 O.2   162  TYR162     -0.2867
     24  CB        39.5340   43.5700  -13.2750 C.3   162  TYR162      0.0534
     25  CG        38.3440   42.7470  -12.8440 C.ar  162  TYR162     -0.0201
     26  CD1       38.0420   41.5360  -13.4700 C.ar  162  TYR162     -0.0009
     27  CD2       37.4330   43.2440  -11.9150 C.ar  162  TYR162     -0.0009
     28  CE1       36.8990   40.8080  -13.1360 C.ar  162  TYR162      0.0417
     29  CE2       36.2940   42.5150  -11.5600 C.ar  162  TYR162      0.0417
     30  CZ        36.0320   41.3000  -12.1790 C.ar  162  TYR162      0.1957
     31  OH        34.9100   40.5850  -11.8770 O.3   162  TYR162     -0.2866
     32  N         38.2980   51.3630  -15.7230 N.3   166  ALA166     -0.1245
     33  CA        38.6470   51.6120  -14.3210 C.3   166  ALA166      0.1562
     34  C         39.8730   52.5370  -14.2290 C.2   166  ALA166      0.2260
     35  O         40.6460   52.6430  -15.1850 O.2   166  ALA166     -0.2867
     36  CB        38.9080   50.2960  -13.5760 C.3   166  ALA166      0.0290
     37  N         42.2790   52.2190  -11.8470 N.3   168  THR168     -0.1218
     38  CA        43.3470   51.3990  -11.2630 C.3   168  THR168      0.1862
     39  C         44.4980   51.2530  -12.2500 C.2   168  THR168      0.2287
     40  O         44.2550   50.8820  -13.4050 O.2   168  THR168     -0.2866
     41  CB        42.7830   50.0350  -10.8030 C.3   168  THR168      0.1770
     42  OG1       41.4750   50.1940  -10.2190 O.3   168  THR168     -0.2211
     43  CG2       43.7550   49.2740   -9.8900 C.3   168  THR168      0.0375
     44  N         44.6980   43.2550   -9.6300 N.3   174  ILE174     -0.1245
     45  CA        43.3430   43.1020   -9.0870 C.3   174  ILE174      0.1561
     46  C         43.0600   41.6250   -8.9230 C.2   174  ILE174      0.2260
     47  O         42.6640   41.1870   -7.8440 O.2   174  ILE174     -0.2867
     48  CB        42.2720   43.8420   -9.9290 C.3   174  ILE174      0.0252
     49  CG1       42.5830   45.3680  -10.0270 C.3   174  ILE174      0.0019
     50  CG2       40.8260   43.5780   -9.3710 C.3   174  ILE174      0.0019
     51  CD1       41.8300   46.1070  -11.1600 C.3   174  ILE174      0.0001
     52  N         27.3730   33.0820  -15.6930 N.3   188  ASP188     -0.1225
     53  CA        28.0760   33.4910  -14.4770 C.3   188  ASP188      0.1805
     54  C         27.4240   32.9720  -13.2020 C.2   188  ASP188      0.2598
     55  O         26.2950   32.4690  -13.1960 O.2   188  ASP188     -0.2718
     56  CB        28.1930   35.0630  -14.4200 C.3   188  ASP188      0.1424
     57  CG        29.3580   35.6420  -13.6310 C.2   188  ASP188      0.3668
     58  OD1       30.1380   34.8510  -13.0390 O.co2 188  ASP188     -0.2456
     59  OD2       29.5130   36.8830  -13.6290 O.co2 188  ASP188     -0.2456
     60  N         28.1630   33.1260  -12.1020 N.am  189  SER189     -0.1938
     61  CA        27.6920   32.8630  -10.7450 C.3   189  SER189      0.2055
     62  C         27.1990   34.2440  -10.2830 C.2   189  SER189      0.2643
     63  O         27.5210   35.2720  -10.9180 O.2   189  SER189     -0.2714
     64  CB        28.8400   32.3680   -9.8630 C.3   189  SER189      0.2130
     65  OG        29.9510   33.2520   -9.9360 O.3   189  SER189     -0.2179
     66  N         26.3640   34.2800   -9.2510 N.am  190  CYS190     -0.1953
     67  CA        25.8290   35.5500   -8.7730 C.3   190  CYS190      0.1843
     68  C         25.6110   35.4770   -7.2430 C.2   190  CYS190      0.2625
     69  O         25.9190   34.4560   -6.6460 O.2   190  CYS190     -0.2714
     70  CB        24.5450   35.9170   -9.5290 C.3   190  CYS190      0.0997
     71  SG        24.1400   37.6860   -9.5040 S.3   190  CYS190     -0.0797
     72  N         25.1400   36.5660   -6.6240 N.am  191  GLN191     -0.1977
     73  CA        24.8860   36.6110   -5.1820 C.3   191  GLN191      0.1601
     74  C         24.0360   35.4270   -4.7490 C.2   191  GLN191      0.2287
     75  O         23.0080   35.1470   -5.3810 O.2   191  GLN191     -0.2864
     76  CB        24.2810   37.9720   -4.7670 C.3   191  GLN191      0.0394
     77  CG        24.3790   38.2720   -3.2700 C.3   191  GLN191      0.0908
     78  CD        25.7980   38.3790   -2.7240 C.2   191  GLN191      0.2608
     79  OE1       26.3120   37.4530   -2.0740 O.2   191  GLN191     -0.2717
     80  NE2       26.4440   39.5210   -2.9450 N.am  191  GLN191     -0.0878
     81  N         27.9170   32.2310   -3.9110 N.3   194  SER194     -0.1217
     82  CA        29.1860   32.3760   -3.1540 C.3   194  SER194      0.1889
     83  C         29.4410   31.1660   -2.2490 C.2   194  SER194      0.2288
     84  O         28.5060   30.6120   -1.6520 O.2   194  SER194     -0.2866
     85  CB        29.1660   33.6340   -2.2980 C.3   194  SER194      0.2089
     86  OG        29.3470   34.7830   -3.1050 O.3   194  SER194     -0.2183
     87  N         33.2460   29.9330   -5.5640 N.3   212  VAL212     -0.1231
     88  CA        32.5960   31.2180   -5.9450 C.3   212  VAL212      0.1692
     89  C         32.9670   32.2700   -4.8880 C.2   212  VAL212      0.2593
     90  O         32.6850   32.0840   -3.7010 O.2   212  VAL212     -0.2718
     91  CB        31.0500   31.0890   -6.0990 C.3   212  VAL212      0.0266
     92  CG1       30.4250   32.4190   -6.4990 C.3   212  VAL212      0.0020
     93  CG2       30.6750   30.0130   -7.1000 C.3   212  VAL212      0.0020
     94  N         33.6880   33.3200   -5.3130 N.am  213  SER213     -0.1938
     95  CA        34.1820   34.3360   -4.4150 C.3   213  SER213      0.2055
     96  C         33.5770   35.7190   -4.6320 C.2   213  SER213      0.2643
     97  O         32.9100   36.2340   -3.7310 O.2   213  SER213     -0.2714
     98  CB        35.7120   34.3720   -4.4580 C.3   213  SER213      0.2130
     99  OG        36.2390   35.3300   -3.5620 O.3   213  SER213     -0.2179
    100  N         33.8660   36.3760   -5.7830 N.am  214  TRP214     -0.1959
    101  CA        33.3990   37.7260   -6.0190 C.3   214  TRP214      0.1771
    102  C         33.4390   38.0660   -7.4950 C.2   214  TRP214      0.2620
    103  O         33.6410   37.2060   -8.3310 O.2   214  TRP214     -0.2715
    104  CB        34.2310   38.7620   -5.2050 C.3   214  TRP214      0.0590
    105  CG        35.6680   38.9340   -5.6370 C.ar  214  TRP214      0.0006
    106  CD1       36.7040   38.0690   -5.4190 C.ar  214  TRP214      0.0946
    107  CD2       36.2340   40.0780   -6.3030 C.ar  214  TRP214      0.0152
    108  NE1       37.8860   38.6140   -5.8760 N.ar  214  TRP214     -0.2442
    109  CE2       37.6300   39.8520   -6.4120 C.ar  214  TRP214      0.0810
    110  CE3       35.7060   41.3050   -6.7600 C.ar  214  TRP214      0.0012
    111  CZ2       38.4940   40.7750   -7.0110 C.ar  214  TRP214      0.0191
    112  CZ3       36.5630   42.2150   -7.3480 C.ar  214  TRP214      0.0001
    113  CH2       37.9420   41.9560   -7.4580 C.ar  214  TRP214      0.0015
    114  N         33.2270   39.3430   -7.7690 N.am  215  GLY215     -0.1940
    115  CA        33.2790   39.9540   -9.0780 C.3   215  GLY215      0.2014
    116  C         32.5290   41.2500   -9.0100 C.2   215  GLY215      0.2639
    117  O         31.9450   41.5580   -7.9680 O.2   215  GLY215     -0.2714
    118  N         32.5390   42.0230  -10.1060 N.am  216  GLU216     -0.1963
    119  CA        31.7840   43.2610  -10.1480 C.3   216  GLU216      0.1733
    120  C         30.4780   42.9170  -10.8380 C.2   216  GLU216      0.2617
    121  O         30.4480   42.7040  -12.0570 O.2   216  GLU216     -0.2715
    122  CB        32.5420   44.3690  -10.8560 C.3   216  GLU216      0.0429
    123  CG        31.9110   45.7370  -10.6810 C.3   216  GLU216      0.1163
    124  CD        32.2440   46.6870  -11.8110 C.2   216  GLU216      0.3649
    125  OE1       33.4360   47.0250  -11.9740 O.co2 216  GLU216     -0.2457
    126  OE2       31.3160   47.0690  -12.5570 O.co2 216  GLU216     -0.2457
    127  N         29.4320   42.7530  -10.0260 N.am  217  GLY217     -0.1940
    128  CA        28.1190   42.3650  -10.5050 C.3   217  GLY217      0.2014
    129  C         28.1570   40.9440  -11.0390 C.2   217  GLY217      0.2639
    130  O         29.0290   40.1370  -10.6680 O.2   217  GLY217     -0.2714
    131  N         27.1950   40.6270  -11.9140 N.am  218  CYS218     -0.1967
    132  CA        27.0280   39.2930  -12.4630 C.3   218  CYS218      0.1712
    133  C         26.8390   39.4240  -13.9650 C.2   218  CYS218      0.2296
    134  O         25.9960   40.2040  -14.4150 O.2   218  CYS218     -0.2864
    135  CB        25.8370   38.5940  -11.8040 C.3   218  CYS218      0.0983
    136  SG        25.8230   38.7160   -9.9860 S.3   218  CYS218     -0.0798
    137  N         33.9560   41.9800  -16.7430 N.3   223  ARG223     -0.1231
    138  CA        33.9850   41.6190  -15.3100 C.3   223  ARG223      0.1679
    139  C         33.6680   40.1240  -15.0870 C.2   223  ARG223      0.2434
    140  O         32.6170   39.8240  -14.5380 O.2   223  ARG223     -0.2733
    141  CB        33.0530   42.5280  -14.4940 C.3   223  ARG223      0.0321
    142  CG        33.3000   44.0300  -14.6520 C.3   223  ARG223      0.0489
    143  CD        34.6430   44.4170  -14.0720 C.3   223  ARG223      0.2205
    144  NE        34.8330   45.8630  -14.0800 N.pl3 223  ARG223     -0.0865
    145  CZ        35.4910   46.5410  -15.0080 C.cat 223  ARG223      0.5346
    146  NH1       36.0550   45.9080  -16.0330 N.pl3 223  ARG223      0.1354
    147  NH2       35.5840   47.8550  -14.9300 N.pl3 223  ARG223      0.1354
    148  N         34.5220   39.1590  -15.5320 N.am  224  PRO224     -0.2718
    149  CA        34.2220   37.7370  -15.2860 C.3   224  PRO224      0.1535
    150  C         34.1520   37.4050  -13.7880 C.2   224  PRO224      0.2599
    151  O         34.6620   38.1520  -12.9410 O.2   224  PRO224     -0.2715
    152  CB        35.4090   37.0040  -15.9210 C.3   224  PRO224      0.0310
    153  CG        36.0570   37.9890  -16.7940 C.3   224  PRO224      0.0237
    154  CD        35.8310   39.3140  -16.2070 C.3   224  PRO224      0.0939
    155  N         33.4960   36.2860  -13.4870 N.am  225  GLY225     -0.1941
    156  CA        33.3490   35.7690  -12.1350 C.3   225  GLY225      0.2014
    157  C         34.7010   35.3950  -11.5700 C.2   225  GLY225      0.2638
    158  O         35.5220   34.7950  -12.2760 O.2   225  GLY225     -0.2714
    159  N         34.9650   35.8050  -10.3220 N.am  226  ILE226     -0.1977
    160  CA        36.2350   35.4930   -9.6540 C.3   226  ILE226      0.1596
    161  C         36.0280   34.3960   -8.6090 C.2   226  ILE226      0.2287
    162  O         35.0990   34.4640   -7.8040 O.2   226  ILE226     -0.2864
    163  CB        36.9700   36.7440   -9.1250 C.3   226  ILE226      0.0276
    164  CG1       37.2320   37.7180  -10.2930 C.3   226  ILE226      0.0022
    165  CG2       38.2990   36.3420   -8.4350 C.3   226  ILE226      0.0022
    166  CD1       37.6070   39.1520   -9.9120 C.3   226  ILE226      0.0001
@<TRIPOS>BOND
     1   153   154    1
     2   153   152    1
     3   137   138    1
     4   154   148    1
     5   146   145    1
     6   152   149    1
     7    20    21    1
     8    32    33    1
     9    52    53    1
    10   148   149    1
    11   148   139   am
    12   138   139    1
    13   138   141    1
    14   149   150    1
    15    35    34    2
    16   139   140    2
    17   145   147    1
    18   145   144    2
    19   142   141    1
    20   142   143    1
    21    22    21    1
    22    22    23    2
    23    21    24    1
    24    53    56    1
    25    53    54    1
    26    56    57    1
    27   134   133    2
    28    33    34    1
    29    33    36    1
    30   144   143    1
    31   133   132    1
    32   150   155   am
    33   150   151    2
    34    57    59   ar
    35    57    58   ar
    36   155   156    1
    37    26    28   ar
    38    26    25   ar
    39    40    39    2
    40    24    25    1
    41    54    55    2
    42    54    60   am
    43    28    30   ar
    44    25    27   ar
    45   126   124   ar
    46   132   131    1
    47   132   135    1
    48   158   157    2
    49    39    38    1
    50    30    31    1
    51    30    29   ar
    52   156   157    1
    53    60    61    1
    54   121   120    2
    55   125   124   ar
    56    27    29   ar
    57   131   129   am
    58    37    38    1
    59   124   123    1
    60   135   136    1
    61   157   159   am
    62    38    41    1
    63    51    49    1
    64   129   130    2
    65   129   128    1
    66    63    62    2
    67   122   123    1
    68   122   119    1
    69   120   119    1
    70   120   127   am
    71    41    42    1
    72    41    43    1
    73    61    62    1
    74    61    64    1
    75   128   127    1
    76   159   160    1
    77   164   166    1
    78   164   163    1
    79    62    66   am
    80   119   118    1
    81   118   116   am
    82    49    48    1
    83   136    71    1
    84    65    64    1
    85    48    50    1
    86    48    45    1
    87   160   163    1
    88   160   161    1
    89    44    45    1
    90    70    71    1
    91    70    67    1
    92    66    67    1
    93   163   165    1
    94    45    46    1
    95   115   116    1
    96   115   114    1
    97   116   117    2
    98    46    47    2
    99    67    68    1
   100   161   162    2
   101   103   102    2
   102   114   102   am
   103   102   101    1
   104   113   112   ar
   105   113   111   ar
   106   112   110   ar
   107    68    69    2
   108    68    72   am
   109    93    91    1
   110   111   109   ar
   111   110   107   ar
   112    72    73    1
   113    92    91    1
   114   109   107   ar
   115   109   108   ar
   116   107   105   ar
   117    91    88    1
   118   101   100    1
   119   101   104    1
   120    88    87    1
   121    88    89    1
   122   108   106   ar
   123   100    96   am
   124   105   106   ar
   125   105   104    1
   126    75    74    2
   127    94    89   am
   128    94    95    1
   129    73    76    1
   130    73    74    1
   131    89    90    2
   132    76    77    1
   133    96    95    1
   134    96    97    2
   135    98    95    1
   136    98    99    1
   137    81    82    1
   138    16    15    1
   139    16    17    1
   140    14    13    2
   141    19    17   am
   142    77    78    1
   143    15    12    1
   144    82    85    1
   145    82    83    1
   146    86    85    1
   147    12    13    1
   148    12    11    1
   149    17    18    2
   150    80    78   am
   151    78    79    2
   152    83    84    2
   153     9    10   ar
   154     9     7   ar
   155    10     8   ar
   156     7     6   ar
   157     8     6   ar
   158     6     5    1
   159     5     2    1
   160     1     2    1
   161     2     3    1
   162     3     4    2
