@<TRIPOS>MOLECULE
tmp/4a6oB00.pdb
 112 107 0 0 0
SMALL
GASTEIGER

@<TRIPOS>ATOM
      1  N        -12.7430    3.3220    4.4810 N.3    24  GLN24      -0.1231
      2  CA       -11.4830    4.0000    4.8260 C.3    24  GLN24       0.1698
      3  C        -11.0510    4.9750    3.7300 C.2    24  GLN24       0.2592
      4  O        -10.9200    4.5720    2.5720 O.2    24  GLN24      -0.2718
      5  CB       -10.3610    2.9720    5.0500 C.3    24  GLN24       0.0381
      6  CG        -8.9320    3.5460    5.1060 C.3    24  GLN24       0.0905
      7  CD        -7.9460    2.7660    4.2360 C.2    24  GLN24       0.2608
      8  OE1       -8.3290    2.2420    3.1710 O.2    24  GLN24      -0.2717
      9  NE2       -6.7010    2.6810    4.6580 N.am   24  GLN24      -0.0878
     10  N        -10.8330    6.2490    4.0640 N.am   25  SER25      -0.1952
     11  CA       -11.1630    6.8600    5.3530 C.3    25  SER25       0.1924
     12  C        -11.5970    8.2870    5.0490 C.2    25  SER25       0.2314
     13  O        -10.8920    9.0180    4.3480 O.2    25  SER25      -0.2863
     14  CB        -9.9590    6.8740    6.2950 C.3    25  SER25       0.2116
     15  OG       -10.2930    7.4810    7.5340 O.3    25  SER25      -0.2180
     16  N        -14.5190    8.2670    3.7360 N.3    27  ASN27      -0.1240
     17  CA       -15.3450    7.7440    2.6570 C.3    27  ASN27       0.1653
     18  C        -16.3770    6.7360    3.1890 C.2    27  ASN27       0.2266
     19  O        -16.3700    5.5700    2.7870 O.2    27  ASN27      -0.2867
     20  CB       -14.4530    7.0980    1.5950 C.3    27  ASN27       0.1155
     21  CG       -13.5970    8.1090    0.8640 C.2    27  ASN27       0.2627
     22  OD1      -14.0660    8.7960   -0.0420 O.2    27  ASN27      -0.2716
     23  ND2      -12.3300    8.1990    1.2490 N.am   27  ASN27      -0.0877
     24  N        -17.5360    9.5180   -2.3880 N.3    40  LEU40      -0.1245
     25  CA       -17.3150    8.0960   -2.6030 C.3    40  LEU40       0.1561
     26  C        -17.3610    7.3130   -1.3050 C.2    40  LEU40       0.2260
     27  O        -17.0300    7.8350   -0.2410 O.2    40  LEU40      -0.2867
     28  CB       -15.9490    7.8590   -3.2560 C.3    40  LEU40       0.0270
     29  CG       -15.4730    8.7280   -4.4220 C.3    40  LEU40       0.0019
     30  CD1      -14.0230    8.4000   -4.7470 C.3    40  LEU40       0.0001
     31  CD2      -16.3660    8.5620   -5.6430 C.3    40  LEU40       0.0001
     32  N        -15.3160    4.0260   -0.0820 N.3    42  ILE42      -0.1245
     33  CA       -14.1460    3.2470   -0.4840 C.3    42  ILE42       0.1561
     34  C        -13.8720    2.1310    0.5200 C.2    42  ILE42       0.2260
     35  O        -13.8850    2.3590    1.7300 O.2    42  ILE42      -0.2867
     36  CB       -12.8850    4.1410   -0.6700 C.3    42  ILE42       0.0252
     37  CG1      -13.1590    5.2540   -1.6910 C.3    42  ILE42       0.0019
     38  CG2      -11.6750    3.3010   -1.1020 C.3    42  ILE42       0.0019
     39  CD1      -12.1130    6.3510   -1.7340 C.3    42  ILE42       0.0001
     40  N        -17.2210    6.7890   -9.3800 N.3    70  GLU70      -0.1231
     41  CA       -16.4670    8.0400   -9.4060 C.3    70  GLU70       0.1699
     42  C        -16.3480    8.6160  -10.8160 C.2    70  GLU70       0.2592
     43  O        -16.5690    9.8100  -11.0290 O.2    70  GLU70      -0.2718
     44  CB       -15.0720    7.8070   -8.8260 C.3    70  GLU70       0.0402
     45  CG       -14.1640    9.0270   -8.8330 C.3    70  GLU70       0.1161
     46  CD       -12.8230    8.7550   -8.1830 C.2    70  GLU70       0.3649
     47  OE1      -12.5910    7.6080   -7.7400 O.co2  70  GLU70      -0.2457
     48  OE2      -11.9980    9.6930   -8.1130 O.co2  70  GLU70      -0.2457
     49  N        -15.9990    7.7490  -11.7630 N.am   71  LYS71      -0.1980
     50  CA       -15.7200    8.1290  -13.1430 C.3    71  LYS71       0.1596
     51  C        -15.7970    6.8880  -14.0300 C.2    71  LYS71       0.2287
     52  O        -16.0530    5.7870  -13.5440 O.2    71  LYS71      -0.2864
     53  CB       -14.3260    8.7670  -13.2430 C.3    71  LYS71       0.0298
     54  CG       -13.1940    7.8760  -12.7320 C.3    71  LYS71       0.0038
     55  CD       -11.8860    8.6260  -12.5580 C.3    71  LYS71       0.0206
     56  CE       -10.8970    7.7780  -11.7750 C.3    71  LYS71       0.1093
     57  NZ        -9.5220    8.3420  -11.7570 N.3    71  LYS71      -0.1314
     58  N        -12.9520    2.2750  -14.8860 N.3    74  PHE74      -0.1241
     59  CA       -12.6670    1.2280  -13.9040 C.3    74  PHE74       0.1605
     60  C        -12.9270   -0.1630  -14.4780 C.2    74  PHE74       0.2264
     61  O        -13.7020   -0.3180  -15.4220 O.2    74  PHE74      -0.2867
     62  CB       -13.5100    1.4170  -12.6390 C.3    74  PHE74       0.0534
     63  CG       -13.2190    2.6870  -11.8830 C.ar   74  PHE74      -0.0203
     64  CD1      -11.9090    3.0820  -11.6160 C.ar   74  PHE74      -0.0042
     65  CD2      -14.2640    3.4750  -11.4050 C.ar   74  PHE74      -0.0042
     66  CE1      -11.6480    4.2560  -10.9070 C.ar   74  PHE74      -0.0003
     67  CE2      -14.0120    4.6450  -10.6930 C.ar   74  PHE74      -0.0003
     68  CZ       -12.7010    5.0340  -10.4420 C.ar   74  PHE74      -0.0000
     69  N         -7.0880    2.9500  -14.9610 N.3   130  PHE130     -0.1241
     70  CA        -7.0790    3.0420  -13.5070 C.3   130  PHE130      0.1605
     71  C         -7.0240    1.6430  -12.8930 C.2   130  PHE130      0.2264
     72  O         -7.9860    1.1720  -12.2820 O.2   130  PHE130     -0.2867
     73  CB        -8.3000    3.8310  -13.0200 C.3   130  PHE130      0.0534
     74  CG        -8.5920    5.0640  -13.8390 C.ar  130  PHE130     -0.0203
     75  CD1       -7.7500    6.1770  -13.7800 C.ar  130  PHE130     -0.0042
     76  CD2       -9.7050    5.1110  -14.6740 C.ar  130  PHE130     -0.0042
     77  CE1       -8.0120    7.3170  -14.5400 C.ar  130  PHE130     -0.0003
     78  CE2       -9.9790    6.2490  -15.4360 C.ar  130  PHE130     -0.0003
     79  CZ        -9.1300    7.3550  -15.3680 C.ar  130  PHE130     -0.0000
     80  N         -5.0820    0.6970  -10.5230 N.3   132  GLN132     -0.1231
     81  CA        -4.6610    0.7730   -9.1260 C.3   132  GLN132      0.1698
     82  C         -5.8290    1.1270   -8.2080 C.2   132  GLN132      0.2592
     83  O         -5.6840    1.1600   -6.9820 O.2   132  GLN132     -0.2718
     84  CB        -3.5280    1.7940   -8.9780 C.3   132  GLN132      0.0381
     85  CG        -2.4390    1.3850   -7.9880 C.3   132  GLN132      0.0905
     86  CD        -1.7780    0.0630   -8.3490 C.2   132  GLN132      0.2608
     87  OE1       -1.5940   -0.2570   -9.5270 O.2   132  GLN132     -0.2717
     88  NE2       -1.4210   -0.7130   -7.3330 N.am  132  GLN132     -0.0878
     89  N         -6.9880    1.3620   -8.8210 N.am  133  ALA133     -0.1966
     90  CA        -8.1840    1.8400   -8.1320 C.3   133  ALA133      0.1728
     91  C         -8.6760    0.8960   -7.0430 C.2   133  ALA133      0.2616
     92  O         -8.6200   -0.3250   -7.1890 O.2   133  ALA133     -0.2715
     93  CB        -9.2940    2.1020   -9.1380 C.3   133  ALA133      0.0334
     94  N         -9.1520    1.4810   -5.9490 N.am  134  TRP134     -0.1974
     95  CA        -9.7970    0.7350   -4.8770 C.3   134  TRP134      0.1640
     96  C        -11.3020    0.6650   -5.1500 C.2   134  TRP134      0.2290
     97  O        -11.8390    1.4950   -5.8890 O.2   134  TRP134     -0.2864
     98  CB        -9.5120    1.4060   -3.5300 C.3   134  TRP134      0.0576
     99  CG        -8.0980    1.2180   -3.0270 C.ar  134  TRP134      0.0006
    100  CD1       -7.0530    0.6410   -3.6960 C.ar  134  TRP134      0.0946
    101  CD2       -7.5750    1.6370   -1.7600 C.ar  134  TRP134      0.0152
    102  NE1       -5.9220    0.6590   -2.9200 N.ar  134  TRP134     -0.2442
    103  CE2       -6.2120    1.2660   -1.7270 C.ar  134  TRP134      0.0810
    104  CE3       -8.1270    2.2840   -0.6450 C.ar  134  TRP134      0.0012
    105  CZ2       -5.3910    1.5220   -0.6220 C.ar  134  TRP134      0.0191
    106  CZ3       -7.3090    2.5410    0.4500 C.ar  134  TRP134      0.0001
    107  CH2       -5.9560    2.1580    0.4530 C.ar  134  TRP134      0.0015
    108  N        -14.9470    1.3210   -5.0900 N.3   136  ALA136     -0.1245
    109  CA       -15.6450    2.5520   -4.7230 C.3   136  ALA136      0.1562
    110  C        -16.9320    2.8040   -5.5060 C.2   136  ALA136      0.2260
    111  O        -16.9120    2.9510   -6.7330 O.2   136  ALA136     -0.2867
    112  CB       -14.7060    3.7540   -4.8470 C.3   136  ALA136      0.0290
@<TRIPOS>BOND
     1    78    79   ar
     2    78    76   ar
     3    61    60    2
     4    79    77   ar
     5    69    70    1
     6    58    59    1
     7    76    74   ar
     8    77    75   ar
     9    60    59    1
    10    51    52    2
    11    51    50    1
    12    59    62    1
    13    74    75   ar
    14    74    73    1
    15    70    73    1
    16    70    71    1
    17    53    50    1
    18    53    54    1
    19    50    49    1
    20    71    72    2
    21    54    55    1
    22    62    63    1
    23    55    56    1
    24    63    64   ar
    25    63    65   ar
    26    56    57    1
    27    49    42   am
    28    64    66   ar
    29    65    67   ar
    30    43    42    2
    31    66    68   ar
    32    42    41    1
    33    67    68   ar
    34    80    81    1
    35    87    86    2
    36    41    40    1
    37    41    44    1
    38    93    90    1
    39    81    84    1
    40    81    82    1
    41    84    85    1
    42    45    44    1
    43    45    46    1
    44    89    82   am
    45    89    90    1
    46    86    85    1
    47    86    88   am
    48    82    83    2
    49    46    48   ar
    50    46    47   ar
    51    90    91    1
    52    92    91    2
    53    91    94   am
    54   111   110    2
    55    94    95    1
    56    97    96    2
    57    31    29    1
    58   110   109    1
    59    96    95    1
    60   108   109    1
    61    95    98    1
    62   112   109    1
    63    30    29    1
    64    29    28    1
    65   100    99   ar
    66   100   102   ar
    67    98    99    1
    68    28    25    1
    69    99   101   ar
    70   102   103   ar
    71    25    24    1
    72    25    26    1
    73   101   103   ar
    74   101   104   ar
    75    39    37    1
    76   103   105   ar
    77    37    36    1
    78    26    27    2
    79    38    36    1
    80    36    33    1
    81   104   106   ar
    82   105   107   ar
    83    33    32    1
    84    33    34    1
    85    22    21    2
    86   106   107   ar
    87    34    35    2
    88    21    23   am
    89    21    20    1
    90    20    17    1
    91     4     3    2
    92    17    18    1
    93    17    16    1
    94    19    18    2
    95     8     7    2
    96     3    10   am
    97     3     2    1
    98    10    11    1
    99     7     9   am
   100     7     6    1
   101    13    12    2
   102     1     2    1
   103     2     5    1
   104    12    11    1
   105     5     6    1
   106    11    14    1
   107    14    15    1
