@<TRIPOS>MOLECULE
tmp/4a6rB01.pdb
 76 72 0 0 0
SMALL
GASTEIGER

@<TRIPOS>ATOM
      1  N         37.4990   32.2090   32.7590 N.3    26  LEU26      -0.1245
      2  CA        37.7800   30.9090   33.3560 C.3    26  LEU26       0.1561
      3  C         39.2640   30.5450   33.2270 C.2    26  LEU26       0.2260
      4  O         39.6190   29.5420   32.6350 O.2    26  LEU26      -0.2867
      5  CB        36.8760   29.8370   32.7400 C.3    26  LEU26       0.0270
      6  CG        35.3800   30.0300   33.0030 C.3    26  LEU26       0.0019
      7  CD1       34.5790   28.9080   32.3470 C.3    26  LEU26       0.0001
      8  CD2       35.0740   30.1020   34.5050 C.3    26  LEU26       0.0001
      9  N         36.7560   21.1800   23.7740 N.3    86  SER86      -0.1202
     10  CA        36.9800   21.6570   25.1390 C.3    86  SER86       0.2020
     11  C         38.0910   20.8930   25.8200 C.2    86  SER86       0.2619
     12  O         38.4650   19.7970   25.4010 O.2    86  SER86      -0.2717
     13  CB        35.7290   21.4580   25.9870 C.3    86  SER86       0.2103
     14  OG        35.4780   20.0600   26.1700 O.3    86  SER86      -0.2182
     15  N         38.5500   21.4380   26.9340 N.am   87  GLY87      -0.1942
     16  CA        39.5230   20.7610   27.7720 C.3    87  GLY87       0.2014
     17  C         38.9810   19.4530   28.3020 C.2    87  GLY87       0.2640
     18  O         39.7210   18.4770   28.4210 O.2    87  GLY87      -0.2714
     19  N         37.6930   19.4210   28.6300 N.am   88  SER88      -0.1935
     20  CA        37.0940   18.1890   29.1350 C.3    88  SER88       0.2055
     21  C         37.1570   17.0760   28.0830 C.2    88  SER88       0.2642
     22  O         37.5080   15.9310   28.3880 O.2    88  SER88      -0.2714
     23  CB        35.6590   18.4210   29.5990 C.3    88  SER88       0.2130
     24  OG        35.6230   19.2160   30.7680 O.3    88  SER88      -0.2179
     25  N         36.8450   17.4280   26.8320 N.am   89  GLU89      -0.1976
     26  CA        36.9390   16.4720   25.7380 C.3    89  GLU89       0.1602
     27  C         38.3800   16.0580   25.4680 C.2    89  GLU89       0.2287
     28  O         38.6490   14.9040   25.1480 O.2    89  GLU89      -0.2864
     29  CB        36.3040   17.0360   24.4670 C.3    89  GLU89       0.0415
     30  CG        34.8050   17.0490   24.4360 C.3    89  GLU89       0.1163
     31  CD        34.2810   17.3420   23.0380 C.2    89  GLU89       0.3649
     32  OE1       35.0530   17.8620   22.2110 O.co2  89  GLU89      -0.2457
     33  OE2       33.1190   16.9950   22.7460 O.co2  89  GLU89      -0.2457
     34  N         42.1480   18.2800   39.0610 N.3   120  TYR120     -0.1241
     35  CA        40.9480   18.5200   38.2800 C.3   120  TYR120      0.1605
     36  C         41.2640   18.3780   36.8050 C.2   120  TYR120      0.2264
     37  O         42.2030   19.0190   36.2870 O.2   120  TYR120     -0.2867
     38  CB        40.3670   19.9030   38.5640 C.3   120  TYR120      0.0534
     39  CG        39.0720   20.1360   37.8350 C.ar  120  TYR120     -0.0201
     40  CD1       37.9100   19.4670   38.2130 C.ar  120  TYR120     -0.0009
     41  CD2       39.0120   20.9790   36.7390 C.ar  120  TYR120     -0.0009
     42  CE1       36.7230   19.6690   37.5400 C.ar  120  TYR120      0.0417
     43  CE2       37.8060   21.2030   36.0650 C.ar  120  TYR120      0.0417
     44  CZ        36.6750   20.5320   36.4700 C.ar  120  TYR120      0.1957
     45  OH        35.4740   20.7140   35.8160 O.3   120  TYR120     -0.2866
     46  N         38.5200   18.2170   34.3000 N.3   122  GLY122     -0.1210
     47  CA        37.3060   18.4490   33.5370 C.3   122  GLY122      0.1956
     48  C         36.1490   17.6240   34.0380 C.2   122  GLY122      0.2613
     49  O         36.2390   16.9560   35.0700 O.2   122  GLY122     -0.2717
     50  N         35.0530   17.6640   33.2960 N.am  123  SER123     -0.1938
     51  CA        33.8050   17.1560   33.8140 C.3   123  SER123      0.2055
     52  C         33.1790   16.0230   33.0110 C.2   123  SER123      0.2643
     53  O         32.0290   15.7040   33.2550 O.2   123  SER123     -0.2714
     54  CB        32.7910   18.2910   33.9000 C.3   123  SER123      0.2130
     55  OG        32.6690   18.9120   32.6530 O.3   123  SER123     -0.2179
     56  N         33.8870   15.3940   32.0780 N.am  124  THR124     -0.1950
     57  CA        33.3360   14.1640   31.5410 C.3   124  THR124      0.1897
     58  C         33.4370   13.0850   32.6210 C.2   124  THR124      0.2313
     59  O         34.1710   13.2330   33.5910 O.2   124  THR124     -0.2863
     60  CB        34.0330   13.6550   30.2660 C.3   124  THR124      0.1794
     61  OG1       35.3540   13.2120   30.5870 O.3   124  THR124     -0.2208
     62  CG2       34.0560   14.6960   29.1440 C.3   124  THR124      0.0378
     63  N         42.9680   23.3400   26.6440 N.3   250  ALA250     -0.1231
     64  CA        41.5600   23.7230   26.6900 C.3   250  ALA250      0.1694
     65  C         41.4350   25.0500   25.9700 C.2   250  ALA250      0.2591
     66  O         42.3170   25.3990   25.1830 O.2   250  ALA250     -0.2718
     67  CB        41.0840   23.8210   28.1530 C.3   250  ALA250      0.0304
     68  N         40.3660   25.8000   26.2470 N.am  251  LYS251     -0.1980
     69  CA        40.0170   26.9540   25.4290 C.3   251  LYS251      0.1596
     70  C         40.9570   28.1620   25.6030 C.2   251  LYS251      0.2287
     71  O         40.8270   29.1360   24.8850 O.2   251  LYS251     -0.2864
     72  CB        38.5400   27.3500   25.6100 C.3   251  LYS251      0.0298
     73  CG        38.1700   27.9090   26.9740 C.3   251  LYS251      0.0038
     74  CD        36.6660   28.1000   27.0790 C.3   251  LYS251      0.0206
     75  CE        36.2350   28.4990   28.4820 C.3   251  LYS251      0.1093
     76  NZ        34.8040   28.9180   28.4620 N.3   251  LYS251     -0.1314
@<TRIPOS>BOND
     1    32    31   ar
     2    33    31   ar
     3    31    30    1
     4     9    10    1
     5    30    29    1
     6    29    26    1
     7    71    70    2
     8    10    11    1
     9    10    13    1
    10    28    27    2
    11    66    65    2
    12    12    11    2
    13    69    70    1
    14    69    72    1
    15    69    68    1
    16    27    26    1
    17    72    73    1
    18    26    25    1
    19    11    15   am
    20    65    68   am
    21    65    64    1
    22    13    14    1
    23    63    64    1
    24    64    67    1
    25    25    21   am
    26    15    16    1
    27    73    74    1
    28    74    75    1
    29    16    17    1
    30    21    22    2
    31    21    20    1
    32    17    18    2
    33    17    19   am
    34    76    75    1
    35    19    20    1
    36    20    23    1
    37    62    60    1
    38    23    24    1
    39    60    61    1
    40    60    57    1
    41    57    56    1
    42    57    58    1
    43    56    52   am
    44     7     6    1
    45    58    59    2
    46     4     3    2
    47    55    54    1
    48     5     6    1
    49     5     2    1
    50     1     2    1
    51     6     8    1
    52    52    53    2
    53    52    51    1
    54     3     2    1
    55    50    51    1
    56    50    48   am
    57    47    48    1
    58    47    46    1
    59    51    54    1
    60    48    49    2
    61    45    44    1
    62    43    44   ar
    63    43    41   ar
    64    37    36    2
    65    44    42   ar
    66    41    39   ar
    67    36    35    1
    68    42    40   ar
    69    39    40   ar
    70    39    38    1
    71    35    38    1
    72    35    34    1
