@<TRIPOS>MOLECULE
tmp/4a6sD00.pdb
 93 89 0 0 0
SMALL
GASTEIGER

@<TRIPOS>ATOM
      1  N        -14.2040    7.8830    0.3290 N.3    36  TYR36      -0.1227
      2  CA       -13.7930    6.5120    0.1380 C.3    36  TYR36       0.1736
      3  C        -13.8800    6.1240   -1.3360 C.2    36  TYR36       0.2596
      4  O        -13.8130    4.9530   -1.6520 O.2    36  TYR36      -0.2718
      5  CB       -14.6790    5.5960    0.9700 C.3    36  TYR36       0.0548
      6  CG       -16.1320    5.7240    0.6610 C.ar   36  TYR36      -0.0200
      7  CD1      -16.9100    6.6870    1.2800 C.ar   36  TYR36      -0.0009
      8  CD2      -16.7410    4.8740   -0.2690 C.ar   36  TYR36      -0.0009
      9  CE1      -18.2690    6.8100    0.9850 C.ar   36  TYR36       0.0417
     10  CE2      -18.0940    4.9770   -0.5730 C.ar   36  TYR36       0.0417
     11  CZ       -18.8450    5.9560    0.0510 C.ar   36  TYR36       0.1957
     12  OH       -20.1710    6.0650   -0.2420 O.3    36  TYR36      -0.2866
     13  N        -14.0490    7.0880   -2.2460 N.am   37  GLY37      -0.1943
     14  CA       -14.0970    6.7580   -3.6980 C.3    37  GLY37       0.1998
     15  C        -14.9860    7.6420   -4.5700 C.2    37  GLY37       0.2480
     16  O        -14.4950    8.2720   -5.4900 O.2    37  GLY37      -0.2729
     17  N        -16.3020    7.6960   -4.2930 N.am   38  PRO38      -0.2726
     18  CA       -17.1600    8.5870   -5.0850 C.3    38  PRO38       0.1402
     19  C        -16.6650   10.0380   -5.0840 C.2    38  PRO38       0.2269
     20  O        -15.8610   10.4140   -4.2250 O.2    38  PRO38      -0.2865
     21  CB       -18.5240    8.5080   -4.3840 C.3    38  PRO38       0.0296
     22  CG       -18.5000    7.2200   -3.6390 C.3    38  PRO38       0.0237
     23  CD       -17.0570    6.9700   -3.2550 C.3    38  PRO38       0.0939
     24  N        -24.1540    4.3330    3.0170 N.3    50  HIS50      -0.1227
     25  CA       -23.4050    3.3150    2.3300 C.3    50  HIS50       0.1737
     26  C        -23.3710    2.0850    3.1840 C.2    50  HIS50       0.2438
     27  O        -23.1730    2.2020    4.3870 O.2    50  HIS50      -0.2733
     28  CB       -22.0230    3.8270    2.0490 C.3    50  HIS50       0.0758
     29  CG       -21.2440    2.9640    1.1020 C.ar   50  HIS50       0.0818
     30  ND1      -21.6070    2.7870   -0.1920 N.ar   50  HIS50      -0.2268
     31  CD2      -20.0730    2.2170    1.2970 C.ar   50  HIS50       0.1154
     32  CE1      -20.7060    1.9780   -0.7970 C.ar   50  HIS50       0.1986
     33  NE2      -19.7650    1.6400    0.1130 N.ar   50  HIS50      -0.2212
     34  N        -23.6160    0.8880    2.5950 N.am   51  PRO51      -0.2729
     35  CA       -23.5670   -0.2860    3.4690 C.3    51  PRO51       0.1401
     36  C        -22.1290   -0.6810    3.8240 C.2    51  PRO51       0.2269
     37  O        -21.1530   -0.2010    3.2240 O.2    51  PRO51      -0.2865
     38  CB       -24.2740   -1.3910    2.6490 C.3    51  PRO51       0.0296
     39  CG       -24.1370   -0.9600    1.2380 C.3    51  PRO51       0.0237
     40  CD       -24.1580    0.5520    1.2610 C.3    51  PRO51       0.0939
     41  N        -19.3460   -3.2590    3.7290 N.3    53  GLN53      -0.1245
     42  CA       -18.8970   -4.4180    2.9230 C.3    53  GLN53       0.1566
     43  C        -17.6120   -5.0780    3.4450 C.2    53  GLN53       0.2260
     44  O        -16.8620   -5.6260    2.6430 O.2    53  GLN53      -0.2867
     45  CB       -18.6090   -3.9930    1.4690 C.3    53  GLN53       0.0367
     46  CG       -19.7870   -3.9020    0.5000 C.3    53  GLN53       0.0905
     47  CD       -20.9550   -4.7850    0.8410 C.2    53  GLN53       0.2608
     48  OE1      -22.0290   -4.2850    1.1570 O.2    53  GLN53      -0.2717
     49  NE2      -20.7660   -6.0970    0.7780 N.am   53  GLN53      -0.0878
     50  N        -15.8990   -3.2430    6.3730 N.3    55  LEU55      -0.1245
     51  CA       -15.2830   -2.0650    6.9760 C.3    55  LEU55       0.1561
     52  C        -14.3580   -2.4560    8.1510 C.2    55  LEU55       0.2260
     53  O        -14.6060   -3.4770    8.8250 O.2    55  LEU55      -0.2867
     54  CB       -16.3540   -1.0640    7.4300 C.3    55  LEU55       0.0270
     55  CG       -17.0650   -0.2700    6.3080 C.3    55  LEU55       0.0019
     56  CD1      -18.2550    0.4950    6.8610 C.3    55  LEU55       0.0001
     57  CD2      -16.1240    0.6690    5.5380 C.3    55  LEU55       0.0001
     58  N        -18.9520    3.8970    6.6110 N.3    62  CYS62      -0.1235
     59  CA       -17.8610    3.9920    5.6780 C.3    62  CYS62       0.1677
     60  C        -17.5110    5.4580    5.5440 C.2    62  CYS62       0.2270
     61  O        -18.4090    6.2950    5.4810 O.2    62  CYS62      -0.2867
     62  CB       -18.3370    3.4380    4.3340 C.3    62  CYS62       0.0956
     63  SG       -17.0260    3.2090    3.1070 S.3    62  CYS62      -0.0801
     64  N        -12.6510    2.4240    5.9370 N.3   100  ASP100     -0.1225
     65  CA       -12.9490    1.8770    4.6220 C.3   100  ASP100      0.1805
     66  C        -12.7140    0.3780    4.6660 C.2   100  ASP100      0.2597
     67  O        -12.3320   -0.1520    5.7000 O.2   100  ASP100     -0.2718
     68  CB       -12.0480    2.5110    3.5750 C.3   100  ASP100      0.1424
     69  CG       -12.6120    2.4010    2.1510 C.2   100  ASP100      0.3668
     70  OD1      -13.6710    1.7580    1.9420 O.co2 100  ASP100     -0.2456
     71  OD2      -11.9790    2.9700    1.2300 O.co2 100  ASP100     -0.2456
     72  N        -12.9400   -0.2940    3.5450 N.am  101  VAL101     -0.1980
     73  CA       -12.7140   -1.7380    3.3910 C.3   101  VAL101      0.1595
     74  C        -11.2340   -1.9590    3.0360 C.2   101  VAL101      0.2287
     75  O        -10.6930   -1.2300    2.1860 O.2   101  VAL101     -0.2864
     76  CB       -13.6630   -2.3450    2.3180 C.3   101  VAL101      0.0276
     77  CG1      -13.2680   -3.7730    1.9400 C.3   101  VAL101      0.0022
     78  CG2      -15.1150   -2.2980    2.7780 C.3   101  VAL101      0.0022
     79  N         -9.1450   -1.1580   -0.3670 N.3   104  THR104     -0.1218
     80  CA        -9.9140   -0.2680   -1.2340 C.3   104  THR104      0.1862
     81  C         -9.5730    1.1630   -0.9410 C.2   104  THR104      0.2287
     82  O        -10.2940    2.0760   -1.3580 O.2   104  THR104     -0.2866
     83  CB       -11.4450   -0.4980   -1.1350 C.3   104  THR104      0.1770
     84  OG1      -11.9410   -0.0130    0.1210 O.3   104  THR104     -0.2211
     85  CG2      -11.7660   -1.9700   -1.2680 C.3   104  THR104      0.0375
     86  N         -8.1760    4.4420   -3.8000 N.3   107  ASN107     -0.1240
     87  CA        -8.9270    5.4180   -4.5750 C.3   107  ASN107      0.1653
     88  C         -9.5450    6.5070   -3.6700 C.2   107  ASN107      0.2266
     89  O        -10.3410    7.3260   -4.1450 O.2   107  ASN107     -0.2867
     90  CB       -10.0050    4.7010   -5.3990 C.3   107  ASN107      0.1155
     91  CG       -11.1500    4.1970   -4.5220 C.2   107  ASN107      0.2627
     92  OD1      -10.9550    3.9180   -3.3180 O.2   107  ASN107     -0.2716
     93  ND2      -12.3480    4.0950   -5.1020 N.am  107  ASN107     -0.0877
@<TRIPOS>BOND
     1    16    15    2
     2    90    87    1
     3    90    91    1
     4    93    91   am
     5    18    19    1
     6    18    21    1
     7    18    17    1
     8    19    20    2
     9    87    86    1
    10    87    88    1
    11    15    17   am
    12    15    14    1
    13    91    92    2
    14    21    22    1
    15    17    23    1
    16    89    88    2
    17    14    13    1
    18    22    23    1
    19    13     3   am
    20     4     3    2
    21    82    81    2
    22     3     2    1
    23    85    83    1
    24    80    83    1
    25    80    81    1
    26    80    79    1
    27    83    84    1
    28    32    30   ar
    29    32    33   ar
    30    10     8   ar
    31    10    11   ar
    32     8     6   ar
    33    12    11    1
    34    30    29   ar
    35    11     9   ar
    36    33    31   ar
    37     2     1    1
    38     2     5    1
    39    46    47    1
    40    46    45    1
    41     6     5    1
    42     6     7   ar
    43    49    47   am
    44    47    48    2
    45     9     7   ar
    46    29    31   ar
    47    29    28    1
    48    71    69   ar
    49    39    40    1
    50    39    38    1
    51    40    34    1
    52    45    42    1
    53    77    76    1
    54    70    69   ar
    55    28    25    1
    56    69    68    1
    57    75    74    2
    58    76    78    1
    59    76    73    1
    60    25    24    1
    61    25    26    1
    62    34    26   am
    63    34    35    1
    64    44    43    2
    65    38    35    1
    66    42    43    1
    67    42    41    1
    68    74    73    1
    69    63    62    1
    70    26    27    2
    71    37    36    2
    72    73    72    1
    73    35    36    1
    74    72    66   am
    75    68    65    1
    76    62    59    1
    77    65    66    1
    78    65    64    1
    79    66    67    2
    80    61    60    2
    81    57    55    1
    82    60    59    1
    83    59    58    1
    84    55    56    1
    85    55    54    1
    86    50    51    1
    87    51    54    1
    88    51    52    1
    89    52    53    2
