@<TRIPOS>MOLECULE
tmp/4a6vA00.pdb
 167 160 0 0 0
SMALL
GASTEIGER

@<TRIPOS>ATOM
      1  N         11.7480   -6.5870   -1.8670 N.3    58  CYS58      -0.1235
      2  CA        12.4400   -5.3430   -2.3370 C.3    58  CYS58       0.1677
      3  C         13.0560   -5.5550   -3.7360 C.2    58  CYS58       0.2270
      4  O         13.0790   -4.6550   -4.5730 O.2    58  CYS58      -0.2867
      5  CB        13.5240   -4.9490   -1.3660 C.3    58  CYS58       0.0956
      6  SG        12.8450   -4.5720    0.2550 S.3    58  CYS58      -0.0801
      7  N         11.4040   -4.4550   -7.1100 N.3    61  TYR61      -0.1241
      8  CA        10.3310   -3.5120   -6.7770 C.3    61  TYR61       0.1605
      9  C         10.4990   -2.2440   -7.4970 C.2    61  TYR61       0.2264
     10  O         11.3890   -1.4350   -7.1990 O.2    61  TYR61      -0.2867
     11  CB        10.2870   -3.2550   -5.2760 C.3    61  TYR61       0.0534
     12  CG         9.1970   -2.2570   -4.8970 C.ar   61  TYR61      -0.0201
     13  CD1        7.9160   -2.6720   -4.6550 C.ar   61  TYR61      -0.0009
     14  CD2        9.4710   -0.9010   -4.7430 C.ar   61  TYR61      -0.0009
     15  CE1        6.8770   -1.7570   -4.2510 C.ar   61  TYR61       0.0417
     16  CE2        8.4490    0.0080   -4.3710 C.ar   61  TYR61       0.0417
     17  CZ         7.1650   -0.4430   -4.1510 C.ar   61  TYR61       0.1957
     18  OH         6.1490    0.4600   -3.8030 O.3    61  TYR61      -0.2866
     19  N         14.0280   -1.8060   -8.3010 N.3    64  TYR64      -0.1241
     20  CA        15.0650   -1.6200   -7.2730 C.3    64  TYR64       0.1605
     21  C         16.0180   -2.8340   -7.3270 C.2    64  TYR64       0.2264
     22  O         15.5650   -3.9690   -7.3590 O.2    64  TYR64      -0.2867
     23  CB        14.3770   -1.5290   -5.9050 C.3    64  TYR64       0.0534
     24  CG        15.3050   -1.2130   -4.7680 C.ar   64  TYR64      -0.0201
     25  CD1       15.9470    0.0350   -4.6310 C.ar   64  TYR64      -0.0009
     26  CD2       15.6440   -2.2300   -3.8890 C.ar   64  TYR64      -0.0009
     27  CE1       16.7980    0.2530   -3.4980 C.ar   64  TYR64       0.0417
     28  CE2       16.4770   -2.0030   -2.7970 C.ar   64  TYR64       0.0417
     29  CZ        17.0690   -0.8280   -2.6580 C.ar   64  TYR64       0.1957
     30  OH        17.9310   -0.6180   -1.6160 O.3    64  TYR64      -0.2866
     31  N         16.8100   -2.1690    2.0160 N.3    69  CYS69      -0.1235
     32  CA        17.2670   -0.7820    1.9060 C.3    69  CYS69       0.1677
     33  C         18.0430   -0.4130    3.1590 C.2    69  CYS69       0.2270
     34  O         17.6650   -0.7590    4.2540 O.2    69  CYS69      -0.2867
     35  CB        16.1400    0.2320    1.7680 C.3    69  CYS69       0.0956
     36  SG        15.0420   -0.0520    0.3520 S.3    69  CYS69      -0.0801
     37  N         15.3820    4.3100    1.4030 N.3    78  HIS78      -0.1241
     38  CA        15.7010    3.7180    0.1180 C.3    78  HIS78       0.1621
     39  C         17.1610    3.7790   -0.2170 C.2    78  HIS78       0.2264
     40  O         17.5140    3.6770   -1.3930 O.2    78  HIS78      -0.2867
     41  CB        14.8340    4.3000   -1.0380 C.3    78  HIS78       0.0745
     42  CG        13.3800    4.2940   -0.7270 C.ar   78  HIS78       0.0817
     43  ND1       12.4850    5.0920   -1.4070 N.ar   78  HIS78      -0.2268
     44  CD2       12.6650    3.6380    0.2330 C.ar   78  HIS78       0.1154
     45  CE1       11.2770    4.9060   -0.8990 C.ar   78  HIS78       0.1986
     46  NE2       11.3620    4.0450    0.1080 N.ar   78  HIS78      -0.2212
     47  N         15.9050   -1.8650    6.3790 N.3    96  ASP96      -0.1239
     48  CA        14.4760   -2.0900    6.1890 C.3    96  ASP96       0.1674
     49  C         14.3080   -3.3870    5.3940 C.2    96  ASP96       0.2266
     50  O         14.8680   -3.5190    4.2800 O.2    96  ASP96      -0.2867
     51  CB        13.8630   -0.8730    5.4390 C.3    96  ASP96       0.1410
     52  CG        12.3440   -0.9820    5.3580 C.2    96  ASP96       0.3668
     53  OD1       11.7950   -2.0100    5.8510 O.co2  96  ASP96      -0.2456
     54  OD2       11.7030   -0.0220    4.8690 O.co2  96  ASP96      -0.2456
     55  N         11.7160   -6.5230    3.8350 N.3    98  THR98      -0.1218
     56  CA        10.3760   -7.0650    3.5310 C.3    98  THR98       0.1862
     57  C         10.5390   -8.4550    2.9170 C.2    98  THR98       0.2287
     58  O         11.2440   -8.6280    1.8890 O.2    98  THR98      -0.2866
     59  CB         9.5810   -6.1740    2.6090 C.3    98  THR98       0.1770
     60  OG1        9.5660   -4.8430    3.1930 O.3    98  THR98      -0.2211
     61  CG2        8.1590   -6.7280    2.5380 C.3    98  THR98       0.0375
     62  N          7.0160   -6.7890    7.0310 N.3   107  ASP107     -0.1239
     63  CA         7.7250   -5.5650    6.6630 C.3   107  ASP107      0.1674
     64  C          8.1600   -4.8920    7.9530 C.2   107  ASP107      0.2266
     65  O          7.2960   -4.5960    8.8400 O.2   107  ASP107     -0.2867
     66  CB         6.7430   -4.6670    5.9070 C.3   107  ASP107      0.1410
     67  CG         7.4020   -3.5340    5.2190 C.2   107  ASP107      0.3668
     68  OD1        8.6390   -3.3050    5.3310 O.co2 107  ASP107     -0.2456
     69  OD2        6.6630   -2.8200    4.5730 O.co2 107  ASP107     -0.2456
     70  N          5.8700    9.8060    2.6480 N.3   167  TYR167     -0.1227
     71  CA         5.8030    8.3450    2.8170 C.3   167  TYR167      0.1736
     72  C          4.9360    8.0400    3.9900 C.2   167  TYR167      0.2595
     73  O          4.8400    8.8170    4.9320 O.2   167  TYR167     -0.2718
     74  CB         7.2380    7.7780    3.0380 C.3   167  TYR167      0.0548
     75  CG         8.0970    8.0620    1.8460 C.ar  167  TYR167     -0.0200
     76  CD1        7.8030    7.4840    0.6410 C.ar  167  TYR167     -0.0009
     77  CD2        9.1160    9.0280    1.8920 C.ar  167  TYR167     -0.0009
     78  CE1        8.5700    7.7200   -0.5270 C.ar  167  TYR167      0.0417
     79  CE2        9.8990    9.2590    0.7450 C.ar  167  TYR167      0.0417
     80  CZ         9.6090    8.5700   -0.4680 C.ar  167  TYR167      0.1957
     81  OH        10.3670    8.8370   -1.6440 O.3   167  TYR167     -0.2866
     82  N          4.3280    6.8620    3.9840 N.am  168  CYS168     -0.1970
     83  CA         3.3230    6.4850    4.9680 C.3   168  CYS168      0.1712
     84  C          3.3970    4.9680    5.1790 C.2   168  CYS168      0.2296
     85  O          3.9700    4.2120    4.3600 O.2   168  CYS168     -0.2864
     86  CB         1.8670    6.9130    4.5620 C.3   168  CYS168      0.0983
     87  SG         1.3480    6.2500    3.0240 S.3   168  CYS168     -0.0798
     88  N          1.1280    1.3260    5.6370 N.3   170  HIS170     -0.1241
     89  CA         0.2220    0.8000    4.6300 C.3   170  HIS170      0.1621
     90  C         -0.3540   -0.5170    5.0930 C.2   170  HIS170      0.2264
     91  O          0.3100   -1.3170    5.7950 O.2   170  HIS170     -0.2867
     92  CB         0.9950    0.5240    3.3010 C.3   170  HIS170      0.0745
     93  CG         2.2870   -0.1820    3.5180 C.ar  170  HIS170      0.0817
     94  ND1        2.4260   -1.5420    3.4370 N.ar  170  HIS170     -0.2268
     95  CD2        3.5130    0.3150    3.8540 C.ar  170  HIS170      0.1154
     96  CE1        3.6890   -1.8830    3.6710 C.ar  170  HIS170      0.1986
     97  NE2        4.3590   -0.7770    3.9820 N.ar  170  HIS170     -0.2212
     98  N          2.2720   -6.3060   -0.9890 N.3   176  PHE176     -0.1227
     99  CA         3.2470   -5.5400   -0.2190 C.3   176  PHE176      0.1736
    100  C          2.5460   -4.2450    0.3130 C.2   176  PHE176      0.2595
    101  O          2.6280   -3.9160    1.5050 O.2   176  PHE176     -0.2718
    102  CB         4.3990   -5.2180   -1.1830 C.3   176  PHE176      0.0547
    103  CG         5.6460   -4.5200   -0.5620 C.ar  176  PHE176     -0.0202
    104  CD1        5.7330   -4.0940    0.7540 C.ar  176  PHE176     -0.0042
    105  CD2        6.7590   -4.3070   -1.4000 C.ar  176  PHE176     -0.0042
    106  CE1        6.8830   -3.4520    1.2270 C.ar  176  PHE176     -0.0003
    107  CE2        7.9110   -3.7880   -0.9730 C.ar  176  PHE176     -0.0003
    108  CZ         7.9910   -3.3250    0.3780 C.ar  176  PHE176     -0.0000
    109  N          1.8690   -3.5330   -0.5410 N.am  177  HIS177     -0.1975
    110  CA         1.1140   -2.3500   -0.2060 C.3   177  HIS177      0.1656
    111  C         -0.3260   -2.5030   -0.5430 C.2   177  HIS177      0.2291
    112  O         -0.6980   -2.7060   -1.6910 O.2   177  HIS177     -0.2864
    113  CB         1.6670   -1.0750   -0.8870 C.3   177  HIS177      0.0771
    114  CG         3.1140   -0.8510   -0.6130 C.ar  177  HIS177      0.0820
    115  ND1        4.1180   -1.4280   -1.3800 N.ar  177  HIS177     -0.2267
    116  CD2        3.7130   -0.3720    0.5090 C.ar  177  HIS177      0.1154
    117  CE1        5.2900   -1.1440   -0.8050 C.ar  177  HIS177      0.1986
    118  NE2        5.0620   -0.5410    0.3550 N.ar  177  HIS177     -0.2212
    119  N          5.2450    3.2120   10.3660 N.3   203  GLU203     -0.1245
    120  CA         6.6590    3.3010    9.9830 C.3   203  GLU203      0.1567
    121  C          7.1340    4.7430    9.8150 C.2   203  GLU203      0.2260
    122  O          7.5730    5.1440    8.7610 O.2   203  GLU203     -0.2867
    123  CB         6.8960    2.4890    8.7010 C.3   203  GLU203      0.0388
    124  CG         5.8980    2.6570    7.6410 C.3   203  GLU203      0.1160
    125  CD         6.3120    2.0100    6.3190 C.2   203  GLU203      0.3649
    126  OE1        7.4130    2.3070    5.8920 O.co2 203  GLU203     -0.2457
    127  OE2        5.6390    1.1670    5.7460 O.co2 203  GLU203     -0.2457
    128  N          9.0190    8.1310    9.4100 N.3   205  MET205     -0.1245
    129  CA        10.3120    8.6660    9.1550 C.3   205  MET205      0.1570
    130  C         10.4460   10.0870    9.7540 C.2   205  MET205      0.2261
    131  O          9.5350   10.8970    9.5140 O.2   205  MET205     -0.2867
    132  CB        10.6340    8.7550    7.6370 C.3   205  MET205      0.0387
    133  CG        10.5450    7.4700    6.8570 C.3   205  MET205      0.0595
    134  SD        10.4690    7.8620    5.0790 S.3   205  MET205     -0.1393
    135  CE        10.1810    6.2050    4.4100 C.3   205  MET205      0.0692
    136  N         16.9310    6.7610   -6.4810 N.3   220  TRP220     -0.1241
    137  CA        16.4690    5.9550   -5.3520 C.3   220  TRP220      0.1605
    138  C         16.6950    6.6220   -3.9970 C.2   220  TRP220      0.2264
    139  O         15.7910    6.6560   -3.1530 O.2   220  TRP220     -0.2867
    140  CB        17.1640    4.5890   -5.3440 C.3   220  TRP220      0.0550
    141  CG        16.8000    3.6250   -6.4630 C.ar  220  TRP220      0.0003
    142  CD1       17.6410    3.1190   -7.4330 C.ar  220  TRP220      0.0946
    143  CD2       15.5000    3.1660   -6.7910 C.ar  220  TRP220      0.0152
    144  NE1       16.9340    2.2990   -8.2880 N.ar  220  TRP220     -0.2442
    145  CE2       15.6250    2.2970   -7.9170 C.ar  220  TRP220      0.0810
    146  CE3       14.2520    3.2970   -6.1910 C.ar  220  TRP220      0.0012
    147  CZ2       14.5470    1.6000   -8.4400 C.ar  220  TRP220      0.0191
    148  CZ3       13.1590    2.6050   -6.7500 C.ar  220  TRP220      0.0001
    149  CH2       13.3240    1.7650   -7.8600 C.ar  220  TRP220      0.0015
    150  N         13.9900    5.9940   11.2850 N.3   232  GLN232     -0.1245
    151  CA        12.7150    5.3040   11.0090 C.3   232  GLN232      0.1566
    152  C         12.7740    3.9910   11.7810 C.2   232  GLN232      0.2260
    153  O         13.8290    3.2980   11.8770 O.2   232  GLN232     -0.2867
    154  CB        12.6160    4.9960    9.5000 C.3   232  GLN232      0.0367
    155  CG        11.2770    4.3410    9.1160 C.3   232  GLN232      0.0905
    156  CD        11.1770    4.1260    7.6120 C.2   232  GLN232      0.2608
    157  OE1       12.1660    3.8900    6.9140 O.2   232  GLN232     -0.2717
    158  NE2        9.9180    4.1780    7.1150 N.am  232  GLN232     -0.0878
    159  N          9.8900    0.5050   11.8770 N.3   234  GLU234     -0.1245
    160  CA         8.6590   -0.0290   11.2750 C.3   234  GLU234      0.1567
    161  C          8.2890   -1.3560   11.9010 C.2   234  GLU234      0.2260
    162  O          9.1770   -2.1660   12.1120 O.2   234  GLU234     -0.2867
    163  CB         8.8760   -0.2320    9.7620 C.3   234  GLU234      0.0388
    164  CG         7.7520   -1.0100    9.0650 C.3   234  GLU234      0.1160
    165  CD         7.9540   -0.9830    7.5480 C.2   234  GLU234      0.3649
    166  OE1        9.1350   -0.9480    7.1450 O.co2 234  GLU234     -0.2457
    167  OE2        6.9540   -1.0400    6.7950 O.co2 234  GLU234     -0.2457
@<TRIPOS>BOND
     1   147   145   ar
     2   147   149   ar
     3    19    20    1
     4   144   145   ar
     5   144   142   ar
     6   145   143   ar
     7   149   148   ar
     8     9    10    2
     9     9     8    1
    10   142   141   ar
    11    22    21    2
    12    21    20    1
    13    20    23    1
    14     7     8    1
    15   143   141   ar
    16   143   146   ar
    17     8    11    1
    18   148   146   ar
    19   136   137    1
    20   141   140    1
    21    23    24    1
    22   137   140    1
    23   137   138    1
    24    11    12    1
    25    12    14   ar
    26    12    13   ar
    27    24    25   ar
    28    24    26   ar
    29    14    16   ar
    30    13    15   ar
    31    25    27   ar
    32     4     3    2
    33    16    17   ar
    34    15    17   ar
    35    17    18    1
    36   138   139    2
    37    26    28   ar
    38     3     2    1
    39    27    29   ar
    40    28    29   ar
    41    29    30    1
    42     2     1    1
    43     2     5    1
    44   112   111    2
    45    81    80    1
    46    43    45   ar
    47    43    42   ar
    48   105   107   ar
    49   105   103   ar
    50    40    39    2
    51   115   117   ar
    52   115   114   ar
    53     5     6    1
    54   102   103    1
    55   102    99    1
    56    41    42    1
    57    41    38    1
    58    98    99    1
    59   107   108   ar
    60    45    46   ar
    61   113   114    1
    62   113   110    1
    63   117   118   ar
    64    42    44   ar
    65   114   116   ar
    66   103   104   ar
    67   111   110    1
    68   109   110    1
    69   109   100   am
    70    78    80   ar
    71    78    76   ar
    72    80    79   ar
    73    99   100    1
    74    39    38    1
    75    46    44   ar
    76    38    37    1
    77   100   101    2
    78    36    35    1
    79   118   116   ar
    80   108   106   ar
    81    76    75   ar
    82    79    77   ar
    83   104   106   ar
    84    35    32    1
    85    75    77   ar
    86    75    74    1
    87    58    57    2
    88    32    31    1
    89    32    33    1
    90    61    59    1
    91    59    60    1
    92    59    56    1
    93    70    71    1
    94    71    74    1
    95    71    72    1
    96    57    56    1
    97    87    86    1
    98    33    34    2
    99    92    93    1
   100    92    89    1
   101    94    93   ar
   102    94    96   ar
   103    93    95   ar
   104    56    55    1
   105    96    97   ar
   106    95    97   ar
   107    82    72   am
   108    82    83    1
   109    72    73    2
   110    50    49    2
   111    85    84    2
   112   135   134    1
   113    86    83    1
   114    69    67   ar
   115    89    90    1
   116    89    88    1
   117    54    52   ar
   118    83    84    1
   119   134   133    1
   120    90    91    2
   121    67    68   ar
   122    67    66    1
   123    52    51    1
   124    52    53   ar
   125    49    48    1
   126    51    48    1
   127   127   125   ar
   128   126   125   ar
   129    66    63    1
   130    48    47    1
   131   125   124    1
   132    63    62    1
   133    63    64    1
   134   167   165   ar
   135   133   132    1
   136   157   156    2
   137   158   156   am
   138   166   165   ar
   139   165   164    1
   140   156   155    1
   141   132   129    1
   142   124   123    1
   143    64    65    2
   144   123   120    1
   145   122   121    2
   146   164   163    1
   147   155   154    1
   148   129   128    1
   149   129   130    1
   150   154   151    1
   151   131   130    2
   152   163   160    1
   153   121   120    1
   154   120   119    1
   155   151   150    1
   156   151   152    1
   157   160   159    1
   158   160   161    1
   159   152   153    2
   160   161   162    2
