@<TRIPOS>MOLECULE
tmp/4a6wA00.pdb
 160 156 0 0 0
SMALL
GASTEIGER

@<TRIPOS>ATOM
      1  N         -5.5410    6.5400   10.3030 N.3    58  CYS58      -0.1235
      2  CA        -6.1840    5.3280   10.7880 C.3    58  CYS58       0.1677
      3  C         -7.6650    5.5770   11.0380 C.2    58  CYS58       0.2270
      4  O         -8.5320    4.7130   10.7430 O.2    58  CYS58      -0.2867
      5  CB        -5.4730    4.8400   12.0810 C.3    58  CYS58       0.0956
      6  SG        -3.7660    4.4220   11.7370 S.3    58  CYS58      -0.0801
      7  N        -10.4940    4.6840    8.5450 N.3    61  TYR61      -0.1227
      8  CA        -9.9120    3.8150    7.5440 C.3    61  TYR61       0.1736
      9  C        -10.6500    2.4660    7.4980 C.2    61  TYR61       0.2595
     10  O        -10.5900    1.6910    8.4440 O.2    61  TYR61      -0.2718
     11  CB        -8.4670    3.5230    7.8600 C.3    61  TYR61       0.0548
     12  CG        -7.7640    2.6840    6.7800 C.ar   61  TYR61      -0.0200
     13  CD1       -7.5770    3.1830    5.4510 C.ar   61  TYR61      -0.0009
     14  CD2       -7.3230    1.4080    7.0560 C.ar   61  TYR61      -0.0009
     15  CE1       -6.9490    2.4120    4.4130 C.ar   61  TYR61       0.0417
     16  CE2       -6.7000    0.6210    6.0320 C.ar   61  TYR61       0.0417
     17  CZ        -6.4990    1.1600    4.7450 C.ar   61  TYR61       0.1957
     18  OH        -5.9020    0.3540    3.8420 O.3    61  TYR61      -0.2866
     19  N        -11.4130    2.2200    6.4200 N.am   62  HIS62      -0.1975
     20  CA       -12.2440    1.0120    6.3240 C.3    62  HIS62       0.1656
     21  C        -13.2280    0.9510    7.4720 C.2    62  HIS62       0.2291
     22  O        -13.7160   -0.1270    7.7910 O.2    62  HIS62      -0.2864
     23  CB       -11.4280   -0.2920    6.2410 C.3    62  HIS62       0.0771
     24  CG       -10.7010   -0.4370    4.9330 C.ar   62  HIS62       0.0820
     25  ND1      -11.3400   -0.4500    3.7060 N.ar   62  HIS62      -0.2267
     26  CD2       -9.3970   -0.6450    4.6730 C.ar   62  HIS62       0.1154
     27  CE1      -10.4340   -0.5750    2.7480 C.ar   62  HIS62       0.1986
     28  NE2       -9.2440   -0.6660    3.3160 N.ar   62  HIS62      -0.2212
     29  N        -12.4830    1.9830   10.5660 N.3    64  TYR64      -0.1241
     30  CA       -11.8150    1.8260   11.8830 C.3    64  TYR64       0.1605
     31  C        -12.1730    3.0050   12.8370 C.2    64  TYR64       0.2264
     32  O        -12.1380    4.1680   12.4230 O.2    64  TYR64      -0.2867
     33  CB       -10.3100    1.7110   11.6910 C.3    64  TYR64       0.0534
     34  CG        -9.5540    1.4210   12.9430 C.ar   64  TYR64      -0.0201
     35  CD1       -9.5490    0.1560   13.5210 C.ar   64  TYR64      -0.0009
     36  CD2       -8.8130    2.4150   13.5160 C.ar   64  TYR64      -0.0009
     37  CE1       -8.7770   -0.0740   14.7040 C.ar   64  TYR64       0.0417
     38  CE2       -8.0990    2.2350   14.6290 C.ar   64  TYR64       0.0417
     39  CZ        -8.0480    0.9840   15.2260 C.ar   64  TYR64       0.1957
     40  OH        -7.2900    0.7620   16.3880 O.3    64  TYR64      -0.2866
     41  N         -3.5760    2.3660   16.4800 N.3    69  CYS69      -0.1235
     42  CA        -3.8160    0.9570   16.8550 C.3    69  CYS69       0.1677
     43  C         -2.8370    0.6340   18.0050 C.2    69  CYS69       0.2270
     44  O         -1.6340    1.0220   18.0460 O.2    69  CYS69      -0.2867
     45  CB        -3.4980   -0.0130   15.7290 C.3    69  CYS69       0.0956
     46  SG        -4.5370    0.2560   14.2550 S.3    69  CYS69      -0.0801
     47  N         -3.6110   -4.1590   14.9440 N.3    78  HIS78      -0.1241
     48  CA        -4.9350   -3.5100   14.8110 C.3    78  HIS78       0.1621
     49  C         -5.7270   -3.5800   16.1060 C.2    78  HIS78       0.2264
     50  O         -6.9760   -3.4760   16.0600 O.2    78  HIS78      -0.2867
     51  CB        -5.7400   -4.1350   13.6260 C.3    78  HIS78       0.0745
     52  CG        -4.9990   -4.0900   12.3050 C.ar   78  HIS78       0.0817
     53  ND1       -5.3240   -4.8570   11.2160 N.ar   78  HIS78      -0.2268
     54  CD2       -3.8990   -3.3860   11.9490 C.ar   78  HIS78       0.1154
     55  CE1       -4.4870   -4.6000   10.2210 C.ar   78  HIS78       0.1986
     56  NE2       -3.6020   -3.7130   10.6430 N.ar   78  HIS78      -0.2212
     57  N          0.8620    2.0220   16.9860 N.3    96  ASP96      -0.1239
     58  CA         1.1080    2.2530   15.5940 C.3    96  ASP96       0.1674
     59  C          0.3670    3.5250   15.1450 C.2    96  ASP96       0.2266
     60  O         -0.8550    3.6920   15.4230 O.2    96  ASP96      -0.2867
     61  CB         0.5520    1.0570   14.8430 C.3    96  ASP96       0.1410
     62  CG         0.9780    1.0450   13.3740 C.2    96  ASP96       0.3668
     63  OD1        1.4980    2.0350   12.8380 O.co2  96  ASP96      -0.2456
     64  OD2        0.8960   -0.0040   12.7300 O.co2  96  ASP96      -0.2456
     65  N         -0.1780    6.5750   12.1690 N.3    98  THR98      -0.1218
     66  CA         0.0630    7.0860   10.8240 C.3    98  THR98       0.1862
     67  C         -0.5850    8.4790   10.7150 C.2    98  THR98       0.2287
     68  O         -1.8060    8.6400   10.9780 O.2    98  THR98      -0.2866
     69  CB        -0.6600    6.1920    9.7670 C.3    98  THR98       0.1770
     70  OG1       -0.2020    4.8500    9.9740 O.3    98  THR98      -0.2211
     71  CG2       -0.2840    6.6780    8.3580 C.3    98  THR98       0.0375
     72  N          4.3480    6.8650    8.6920 N.3   107  ASP107     -0.1239
     73  CA         3.7800    5.6860    9.3220 C.3   107  ASP107      0.1674
     74  C          4.8650    5.0120   10.1570 C.2   107  ASP107      0.2266
     75  O          5.9520    4.7050    9.6480 O.2   107  ASP107     -0.2867
     76  CB         3.3950    4.7610    8.1690 C.3   107  ASP107      0.1410
     77  CG         2.4850    3.6250    8.5690 C.2   107  ASP107      0.3668
     78  OD1        2.1600    3.5100    9.7770 O.co2 107  ASP107     -0.2456
     79  OD2        2.2380    2.7420    7.7200 O.co2 107  ASP107     -0.2456
     80  N          0.6570   -9.8000    6.5430 N.3   167  TYR167     -0.1227
     81  CA         0.7830   -8.3290    6.5180 C.3   167  TYR167      0.1736
     82  C          2.1760   -8.0220    6.0390 C.2   167  TYR167      0.2595
     83  O          3.0940   -8.8850    6.1660 O.2   167  TYR167     -0.2718
     84  CB         0.4980   -7.7150    7.8960 C.3   167  TYR167      0.0548
     85  CG        -0.8960   -7.9780    8.3270 C.ar  167  TYR167     -0.0200
     86  CD1       -1.9340   -7.2470    7.7810 C.ar  167  TYR167     -0.0009
     87  CD2       -1.2080   -8.9960    9.2420 C.ar  167  TYR167     -0.0009
     88  CE1       -3.2720   -7.4850    8.1610 C.ar  167  TYR167      0.0417
     89  CE2       -2.5490   -9.2480    9.6120 C.ar  167  TYR167      0.0417
     90  CZ        -3.5720   -8.5060    9.0430 C.ar  167  TYR167      0.1957
     91  OH        -4.9010   -8.7190    9.3990 O.3   167  TYR167     -0.2866
     92  N          2.3520   -6.8220    5.4860 N.am  168  CYS168     -0.1970
     93  CA         3.6430   -6.4830    4.9320 C.3   168  CYS168      0.1712
     94  C          3.8310   -5.0050    4.9620 C.2   168  CYS168      0.2296
     95  O          2.8520   -4.2630    5.1980 O.2   168  CYS168     -0.2864
     96  CB         3.7300   -6.9790    3.5000 C.3   168  CYS168      0.0983
     97  SG         2.4160   -6.3680    2.4080 S.3   168  CYS168     -0.0798
     98  N          4.8720   -1.4120    2.8800 N.3   170  HIS170     -0.1241
     99  CA         4.2320   -0.9010    1.7000 C.3   170  HIS170      0.1621
    100  C          4.8680    0.4090    1.2460 C.2   170  HIS170      0.2264
    101  O          5.3910    1.2090    2.0490 O.2   170  HIS170     -0.2867
    102  CB         2.7080   -0.6280    1.9610 C.3   170  HIS170      0.0745
    103  CG         2.4550    0.0630    3.2650 C.ar  170  HIS170      0.0817
    104  ND1        2.3350    1.4240    3.3620 N.ar  170  HIS170     -0.2268
    105  CD2        2.4300   -0.3980    4.5540 C.ar  170  HIS170      0.1154
    106  CE1        2.2050    1.7870    4.6300 C.ar  170  HIS170      0.1986
    107  NE2        2.2300    0.6960    5.3740 N.ar  170  HIS170     -0.2212
    108  N         -1.8440    6.0630    1.6270 N.3   176  PHE176     -0.1227
    109  CA        -1.4210    5.3280    2.8170 C.3   176  PHE176      0.1736
    110  C         -0.6400    4.0630    2.3250 C.2   176  PHE176      0.2595
    111  O          0.5280    3.8070    2.7690 O.2   176  PHE176     -0.2718
    112  CB        -2.7040    4.9680    3.6060 C.3   176  PHE176      0.0547
    113  CG        -2.5150    4.3370    4.9820 C.ar  176  PHE176     -0.0202
    114  CD1       -1.2660    3.8870    5.4320 C.ar  176  PHE176     -0.0042
    115  CD2       -3.6430    4.1830    5.8300 C.ar  176  PHE176     -0.0042
    116  CE1       -1.1370    3.2950    6.7180 C.ar  176  PHE176     -0.0003
    117  CE2       -3.5050    3.6200    7.1190 C.ar  176  PHE176     -0.0003
    118  CZ        -2.2390    3.1730    7.5560 C.ar  176  PHE176     -0.0000
    119  N         -1.2330    3.3160    1.4040 N.am  177  HIS177     -0.1975
    120  CA        -0.6650    2.1000    0.8350 C.3   177  HIS177      0.1656
    121  C         -0.4920    2.2550   -0.6650 C.2   177  HIS177      0.2291
    122  O         -1.4730    2.5260   -1.3820 O.2   177  HIS177     -0.2864
    123  CB        -1.4880    0.8360    1.1730 C.3   177  HIS177      0.0771
    124  CG        -1.7230    0.6460    2.6450 C.ar  177  HIS177      0.0820
    125  ND1       -2.7880    1.2160    3.3270 N.ar  177  HIS177     -0.2267
    126  CD2       -0.9540    0.0590    3.5890 C.ar  177  HIS177      0.1154
    127  CE1       -2.6870    0.9310    4.6160 C.ar  177  HIS177      0.1986
    128  NE2       -1.5670    0.2590    4.8020 N.ar  177  HIS177     -0.2212
    129  N          8.2090   -3.1620    8.4260 N.3   203  GLU203     -0.1245
    130  CA         7.3470   -3.2800    9.5900 C.3   203  GLU203      0.1567
    131  C          7.0470   -4.7410    9.9530 C.2   203  GLU203      0.2260
    132  O          5.9360   -5.1230   10.0850 O.2   203  GLU203     -0.2867
    133  CB         6.0950   -2.4030    9.4310 C.3   203  GLU203      0.0388
    134  CG         5.2860   -2.8010    8.2160 C.3   203  GLU203      0.1160
    135  CD         4.0200   -2.0100    8.1400 C.2   203  GLU203      0.3649
    136  OE1        3.1880   -2.2060    9.0310 O.co2 203  GLU203     -0.2457
    137  OE2        3.7870   -1.1510    7.2640 O.co2 203  GLU203     -0.2457
    138  N        -11.5770   -6.6560   13.7340 N.3   220  TRP220     -0.1241
    139  CA       -10.3800   -5.8280   13.6870 C.3   220  TRP220      0.1605
    140  C         -9.1790   -6.5310   14.3330 C.2   220  TRP220      0.2264
    141  O         -8.0720   -6.5750   13.7560 O.2   220  TRP220     -0.2867
    142  CB       -10.5830   -4.4460   14.3720 C.3   220  TRP220      0.0550
    143  CG       -11.5360   -3.5180   13.7120 C.ar  220  TRP220      0.0003
    144  CD1      -12.7350   -3.0460   14.2030 C.ar  220  TRP220      0.0946
    145  CD2      -11.3980   -2.9640   12.3830 C.ar  220  TRP220      0.0152
    146  NE1      -13.3350   -2.2240   13.2430 N.ar  220  TRP220     -0.2442
    147  CE2      -12.5330   -2.1310   12.1450 C.ar  220  TRP220      0.0810
    148  CE3      -10.4270   -3.0580   11.3900 C.ar  220  TRP220      0.0012
    149  CZ2      -12.6900   -1.3790   10.9380 C.ar  220  TRP220      0.0191
    150  CZ3      -10.6040   -2.3190   10.1700 C.ar  220  TRP220      0.0001
    151  CH2      -11.7260   -1.5010    9.9750 C.ar  220  TRP220      0.0015
    152  N          8.1190   -0.3920   13.1310 N.3   234  GLU234     -0.1245
    153  CA         7.9620    0.0870   11.7700 C.3   234  GLU234      0.1567
    154  C          8.6630    1.4300   11.6090 C.2   234  GLU234      0.2260
    155  O          8.5910    2.2480   12.5110 O.2   234  GLU234     -0.2867
    156  CB         6.4570    0.3480   11.5350 C.3   234  GLU234      0.0388
    157  CG         6.1700    1.0770   10.2010 C.3   234  GLU234      0.1160
    158  CD         4.6590    1.1400    9.9610 C.2   234  GLU234      0.3649
    159  OE1        3.8550    1.1770   10.9350 O.co2 234  GLU234     -0.2457
    160  OE2        4.2530    1.1040    8.7780 O.co2 234  GLU234     -0.2457
@<TRIPOS>BOND
     1   122   121    2
     2   121   120    1
     3   120   123    1
     4   120   119    1
     5   123   124    1
     6   100    99    1
     7   100   101    2
     8   119   110   am
     9   108   109    1
    10    99   102    1
    11    99    98    1
    12   102   103    1
    13   110   111    2
    14   110   109    1
    15    97    96    1
    16   124   125   ar
    17   124   126   ar
    18    27    28   ar
    19    27    25   ar
    20   109   112    1
    21   103   104   ar
    22   103   105   ar
    23    28    26   ar
    24   125   127   ar
    25   104   106   ar
    26    96    93    1
    27   126   128   ar
    28   112   113    1
    29    25    24   ar
    30    18    17    1
    31    15    17   ar
    32    15    13   ar
    33   105   107   ar
    34   127   128   ar
    35   106   107   ar
    36    26    24   ar
    37    17    16   ar
    38    93    94    1
    39    93    92    1
    40    24    23    1
    41    94    95    2
    42   113   114   ar
    43   113   115   ar
    44   114   116   ar
    45    13    12   ar
    46    92    82   am
    47   115   117   ar
    48    16    14   ar
    49    82    83    2
    50    82    81    1
    51    23    20    1
    52    20    19    1
    53    20    21    1
    54    19     9   am
    55    81    80    1
    56    81    84    1
    57   116   118   ar
    58    12    14   ar
    59    12    11    1
    60   117   118   ar
    61   137   135   ar
    62    21    22    2
    63     9     8    1
    64     9    10    2
    65     8    11    1
    66     8     7    1
    67    79    77   ar
    68    86    88   ar
    69    86    85   ar
    70    84    85    1
    71   135   134    1
    72   135   136   ar
    73    88    90   ar
    74    76    77    1
    75    76    73    1
    76   134   133    1
    77    85    87   ar
    78    71    69    1
    79   129   130    1
    80    77    78   ar
    81    72    73    1
    82   160   158   ar
    83    90    91    1
    84    90    89   ar
    85    87    89   ar
    86    73    74    1
    87   133   130    1
    88   130   131    1
    89    75    74    2
    90    69    70    1
    91    69    66    1
    92   131   132    2
    93   158   157    1
    94   158   159   ar
    95   151   150   ar
    96   151   149   ar
    97   150   148   ar
    98   157   156    1
    99    55    56   ar
   100    55    53   ar
   101     1     2    1
   102    29    30    1
   103    56    54   ar
   104    67    66    1
   105    67    68    2
   106     4     3    2
   107     2     3    1
   108     2     5    1
   109    66    65    1
   110   149   147   ar
   111    53    52   ar
   112   148   145   ar
   113   156   153    1
   114   154   153    1
   115   154   155    2
   116    33    30    1
   117    33    34    1
   118     6     5    1
   119   153   152    1
   120    30    31    1
   121    54    52   ar
   122   147   145   ar
   123   147   146   ar
   124    52    51    1
   125   145   143   ar
   126    32    31    2
   127    64    62   ar
   128    63    62   ar
   129    34    36   ar
   130    34    35   ar
   131   146   144   ar
   132    62    61    1
   133    36    38   ar
   134    35    37   ar
   135    51    48    1
   136   139   138    1
   137   139   140    1
   138   139   142    1
   139   143   144   ar
   140   143   142    1
   141   141   140    2
   142    46    45    1
   143    38    39   ar
   144    37    39   ar
   145    48    47    1
   146    48    49    1
   147    61    58    1
   148    59    60    2
   149    59    58    1
   150    39    40    1
   151    58    57    1
   152    45    42    1
   153    50    49    2
   154    41    42    1
   155    42    43    1
   156    43    44    2
