@<TRIPOS>MOLECULE
tmp/4a6xB00.pdb
 147 138 0 0 0
SMALL
GASTEIGER

@<TRIPOS>ATOM
      1  N         22.4980   16.3220   44.2990 N.3    33  PHE33      -0.1227
      2  CA        22.0610   17.5940   44.8580 C.3    33  PHE33       0.1736
      3  C         23.2660   18.4890   45.1320 C.2    33  PHE33       0.2596
      4  O         24.3230   18.0210   45.5610 O.2    33  PHE33      -0.2718
      5  CB        21.1850   17.4110   46.1050 C.3    33  PHE33       0.0547
      6  CG        21.9430   17.0190   47.3500 C.ar   33  PHE33      -0.0202
      7  CD1       22.6060   17.9740   48.1070 C.ar   33  PHE33      -0.0042
      8  CD2       21.9550   15.7040   47.7850 C.ar   33  PHE33      -0.0042
      9  CE1       23.2960   17.6230   49.2590 C.ar   33  PHE33      -0.0003
     10  CE2       22.6290   15.3440   48.9440 C.ar   33  PHE33      -0.0003
     11  CZ        23.3050   16.3100   49.6800 C.ar   33  PHE33      -0.0000
     12  N         23.1090   19.7740   44.8350 N.am   34  GLY34      -0.1942
     13  CA        24.1470   20.7530   45.0910 C.3    34  GLY34       0.2014
     14  C         25.2520   20.8310   44.0600 C.2    34  GLY34       0.2640
     15  O         26.1830   21.6300   44.2120 O.2    34  GLY34      -0.2714
     16  N         25.1670   20.0230   43.0030 N.am   35  SER35      -0.1935
     17  CA        26.2440   19.9760   42.0160 C.3    35  SER35       0.2055
     18  C         26.2870   21.2050   41.1030 C.2    35  SER35       0.2644
     19  O         27.3030   21.4690   40.4700 O.2    35  SER35      -0.2714
     20  CB        26.1950   18.6850   41.1880 C.3    35  SER35       0.2130
     21  OG        24.9040   18.4610   40.6470 O.3    35  SER35      -0.2179
     22  N         25.1810   21.9330   41.0160 N.am   36  GLY36      -0.1939
     23  CA        25.1640   23.2000   40.2960 C.3    36  GLY36       0.2014
     24  C         24.2650   23.2590   39.0720 C.2    36  GLY36       0.2639
     25  O         24.3960   24.1450   38.2430 O.2    36  GLY36      -0.2714
     26  N         23.3420   22.3140   38.9510 N.am   37  LYS37      -0.1963
     27  CA        22.5490   22.2240   37.7370 C.3    37  LYS37       0.1728
     28  C         21.6540   23.4420   37.5840 C.2    37  LYS37       0.2617
     29  O         21.5460   24.0190   36.5060 O.2    37  LYS37      -0.2715
     30  CB        21.7060   20.9390   37.7510 C.3    37  LYS37       0.0311
     31  CG        22.5430   19.6680   37.9410 C.3    37  LYS37       0.0038
     32  CD        21.6970   18.3860   37.9510 C.3    37  LYS37       0.0206
     33  CE        20.7420   18.3130   39.1300 C.3    37  LYS37       0.1093
     34  NZ        21.4070   18.1520   40.4730 N.3    37  LYS37      -0.1314
     35  N         21.0260   23.8340   38.6810 N.am   38  THR38      -0.1937
     36  CA        20.0760   24.9240   38.6380 C.3    38  THR38       0.2028
     37  C         20.8070   26.2470   38.4900 C.2    38  THR38       0.2642
     38  O         20.3140   27.1770   37.8480 O.2    38  THR38      -0.2714
     39  CB        19.1960   24.9130   39.8920 C.3    38  THR38       0.1808
     40  OG1       18.3680   23.7420   39.8460 O.3    38  THR38      -0.2208
     41  CG2       18.3300   26.1550   39.9590 C.3    38  THR38       0.0379
     42  N         21.9900   26.3360   39.0930 N.am   39  GLN39      -0.1976
     43  CA        22.7930   27.5450   38.9860 C.3    39  GLN39       0.1601
     44  C         23.2680   27.7490   37.5380 C.2    39  GLN39       0.2287
     45  O         23.2680   28.8720   37.0260 O.2    39  GLN39      -0.2864
     46  CB        23.9460   27.4930   39.9930 C.3    39  GLN39       0.0394
     47  CG        23.4490   27.6680   41.4250 C.3    39  GLN39       0.0908
     48  CD        22.7690   29.0190   41.6180 C.2    39  GLN39       0.2608
     49  OE1       21.6810   29.1150   42.2040 O.2    39  GLN39      -0.2717
     50  NE2       23.3970   30.0630   41.1050 N.am   39  GLN39      -0.0878
     51  N         10.2450   22.3240   40.7680 N.3    67  GLU67      -0.1245
     52  CA        10.4320   22.2720   42.2210 C.3    67  GLU67       0.1567
     53  C         10.6170   23.6690   42.8110 C.2    67  GLU67       0.2260
     54  O         11.1800   23.8280   43.9010 O.2    67  GLU67      -0.2867
     55  CB        11.6050   21.3500   42.6010 C.3    67  GLU67       0.0388
     56  CG        11.3830   19.8760   42.2150 C.3    67  GLU67       0.1160
     57  CD        12.5370   18.9620   42.6020 C.2    67  GLU67       0.3649
     58  OE1       13.6140   19.0460   41.9740 O.co2  67  GLU67      -0.2457
     59  OE2       12.3600   18.1410   43.5280 O.co2  67  GLU67      -0.2457
     60  N         12.5480   26.3020   42.2080 N.3    69  THR69      -0.1218
     61  CA        13.8930   26.7770   42.5310 C.3    69  THR69       0.1862
     62  C         14.3730   27.9420   41.6480 C.2    69  THR69       0.2287
     63  O         15.4750   28.4600   41.8380 O.2    69  THR69      -0.2866
     64  CB        14.9190   25.6330   42.5540 C.3    69  THR69       0.1770
     65  OG1       14.8550   24.9230   41.3160 O.3    69  THR69      -0.2211
     66  CG2       14.6080   24.6800   43.6930 C.3    69  THR69       0.0375
     67  N         18.2910   36.0710   41.6390 N.3    74  ARG74      -0.1245
     68  CA        19.5290   35.4550   41.1750 C.3    74  ARG74       0.1563
     69  C         19.7520   35.8120   39.7060 C.2    74  ARG74       0.2260
     70  O         20.8720   36.1260   39.3040 O.2    74  ARG74      -0.2867
     71  CB        19.5040   33.9310   41.3610 C.3    74  ARG74       0.0307
     72  CG        20.7790   33.2080   40.9150 C.3    74  ARG74       0.0489
     73  CD        22.0610   33.7830   41.5370 C.3    74  ARG74       0.2205
     74  NE        23.1640   32.8480   41.3220 N.pl3  74  ARG74      -0.0865
     75  CZ        24.4490   33.1720   41.2520 C.cat  74  ARG74       0.5346
     76  NH1       24.8400   34.4290   41.4030 N.pl3  74  ARG74       0.1354
     77  NH2       25.3470   32.2320   41.0270 N.pl3  74  ARG74       0.1354
     78  N         20.9390   39.4020   39.6800 N.3    77  GLU77      -0.1245
     79  CA        22.3320   39.5120   40.0940 C.3    77  GLU77       0.1567
     80  C         23.2900   39.1600   38.9700 C.2    77  GLU77       0.2260
     81  O         24.2390   39.8860   38.6980 O.2    77  GLU77      -0.2867
     82  CB        22.6240   38.6330   41.3160 C.3    77  GLU77       0.0388
     83  CG        24.0770   38.6710   41.7390 C.3    77  GLU77       0.1160
     84  CD        24.4150   37.6580   42.8160 C.2    77  GLU77       0.3649
     85  OE1       23.7340   36.6140   42.8940 O.co2  77  GLU77      -0.2457
     86  OE2       25.3720   37.8990   43.5840 O.co2  77  GLU77      -0.2457
     87  N         13.8140   22.2340   34.4460 N.3   131  ASP131     -0.1239
     88  CA        14.5170   21.9650   35.7010 C.3   131  ASP131      0.1674
     89  C         13.4230   21.6860   36.7190 C.2   131  ASP131      0.2266
     90  O         12.7830   22.6320   37.1840 O.2   131  ASP131     -0.2867
     91  CB        15.3140   23.2190   36.1030 C.3   131  ASP131      0.1410
     92  CG        16.1550   23.0300   37.3510 C.2   131  ASP131      0.3668
     93  OD1       16.4490   21.8800   37.7230 O.co2 131  ASP131     -0.2456
     94  OD2       16.5540   24.0590   37.9480 O.co2 131  ASP131     -0.2456
     95  N         18.6240   14.7390   38.3960 N.3   177  GLN177     -0.1245
     96  CA        19.3270   14.4940   39.6560 C.3   177  GLN177      0.1566
     97  C         19.7290   13.0300   39.8090 C.2   177  GLN177      0.2260
     98  O         18.9020   12.1220   39.6840 O.2   177  GLN177     -0.2867
     99  CB        18.4520   14.8790   40.8470 C.3   177  GLN177      0.0367
    100  CG        19.1820   14.8060   42.1770 C.3   177  GLN177      0.0905
    101  CD        18.2860   15.1130   43.3430 C.2   177  GLN177      0.2608
    102  OE1       18.2820   16.2330   43.8570 O.2   177  GLN177     -0.2717
    103  NE2       17.5180   14.1260   43.7760 N.am  177  GLN177     -0.0878
    104  N         30.6220   18.2300   42.5510 N.3   189  LYS189     -0.1245
    105  CA        31.2750   19.2230   43.3750 C.3   189  LYS189      0.1561
    106  C         32.6580   18.7100   43.7150 C.2   189  LYS189      0.2260
    107  O         32.8420   17.5170   43.9580 O.2   189  LYS189     -0.2867
    108  CB        30.4710   19.4450   44.6540 C.3   189  LYS189      0.0271
    109  CG        30.9320   20.6240   45.4990 C.3   189  LYS189      0.0035
    110  CD        30.1040   20.7170   46.7760 C.3   189  LYS189      0.0206
    111  CE        28.6210   20.5930   46.4630 C.3   189  LYS189      0.1093
    112  NZ        27.8230   20.1480   47.6430 N.3   189  LYS189     -0.1314
    113  N         33.3160   23.2200   40.7740 N.3   195  ARG195     -0.1245
    114  CA        32.4730   22.2140   40.1390 C.3   195  ARG195      0.1563
    115  C         33.2600   21.6600   38.9610 C.2   195  ARG195      0.2260
    116  O         33.9910   22.4010   38.3010 O.2   195  ARG195     -0.2867
    117  CB        31.1420   22.8070   39.6440 C.3   195  ARG195      0.0307
    118  CG        30.2370   23.3920   40.7200 C.3   195  ARG195      0.0489
    119  CD        30.1940   22.5070   41.9320 C.3   195  ARG195      0.2205
    120  NE        29.0640   22.7820   42.8160 N.pl3 195  ARG195     -0.0865
    121  CZ        29.1280   23.5610   43.8940 C.cat 195  ARG195      0.5346
    122  NH1       30.2580   24.1780   44.2060 N.pl3 195  ARG195      0.1354
    123  NH2       28.0590   23.7270   44.6580 N.pl3 195  ARG195      0.1354
    124  N         30.9090   28.8080   41.1110 N.3   214  ILE214     -0.1231
    125  CA        29.6400   29.5230   41.1070 C.3   214  ILE214      0.1692
    126  C         29.8730   30.8420   41.8390 C.2   214  ILE214      0.2593
    127  O         30.3210   30.8350   42.9890 O.2   214  ILE214     -0.2718
    128  CB        28.5240   28.6930   41.7660 C.3   214  ILE214      0.0266
    129  CG1       28.4000   27.3410   41.0480 C.3   214  ILE214      0.0019
    130  CG2       27.2040   29.4510   41.7470 C.3   214  ILE214      0.0020
    131  CD1       27.4990   26.3320   41.7310 C.3   214  ILE214      0.0001
    132  N         29.6070   31.9610   41.1630 N.am  215  THR215     -0.1939
    133  CA        29.9290   33.2950   41.6870 C.3   215  THR215      0.2028
    134  C         28.7870   34.2920   41.4880 C.2   215  THR215      0.2642
    135  O         27.6760   33.9210   41.0930 O.2   215  THR215     -0.2714
    136  CB        31.1630   33.9130   40.9910 C.3   215  THR215      0.1808
    137  OG1       30.8110   34.2870   39.6510 O.3   215  THR215     -0.2208
    138  CG2       32.3540   32.9530   40.9640 C.3   215  THR215      0.0379
    139  N         29.0690   35.5690   41.7490 N.am  216  GLU216     -0.1976
    140  CA        28.0820   36.6090   41.5280 C.3   216  GLU216      0.1602
    141  C         27.7420   36.7870   40.0460 C.2   216  GLU216      0.2287
    142  O         26.7250   37.3880   39.7100 O.2   216  GLU216     -0.2864
    143  CB        28.5510   37.9490   42.1220 C.3   216  GLU216      0.0415
    144  CG        29.6940   38.6030   41.3730 C.3   216  GLU216      0.1163
    145  CD        31.0520   38.0730   41.7660 C.2   216  GLU216      0.3649
    146  OE1       31.1170   37.1010   42.5520 O.co2 216  GLU216     -0.2457
    147  OE2       32.0600   38.6490   41.2980 O.co2 216  GLU216     -0.2457
@<TRIPOS>BOND
     1    87    88    1
     2    88    91    1
     3    88    89    1
     4    91    92    1
     5    29    28    2
     6    89    90    2
     7    45    44    2
     8    92    93   ar
     9    92    94   ar
    10    44    43    1
    11    28    27    1
    12    28    35   am
    13    27    30    1
    14    27    26    1
    15    30    31    1
    16    38    37    2
    17    31    32    1
    18    32    33    1
    19    25    24    2
    20   116   115    2
    21    95    96    1
    22    37    36    1
    23    37    42   am
    24    36    35    1
    25    36    39    1
    26    81    80    2
    27    26    24   am
    28   115   114    1
    29    80    79    1
    30    43    42    1
    31    43    46    1
    32    24    23    1
    33    33    34    1
    34    70    69    2
    35   117   114    1
    36   117   118    1
    37   137   136    1
    38    96    97    1
    39    96    99    1
    40    78    79    1
    41    98    97    2
    42    69    68    1
    43   142   141    2
    44    40    39    1
    45    39    41    1
    46    46    47    1
    47   141   140    1
    48    79    82    1
    49   114   113    1
    50    23    22    1
    51    19    18    2
    52    21    20    1
    53   118   119    1
    54    51    52    1
    55    99   100    1
    56    72    71    1
    57    72    73    1
    58   138   136    1
    59   136   133    1
    60    22    18   am
    61    77    75    1
    62   129   131    1
    63   129   128    1
    64   135   134    2
    65    18    17    1
    66    50    48   am
    67   125   124    1
    68   125   128    1
    69   125   126    1
    70   132   133    1
    71   132   126   am
    72    68    71    1
    73    68    67    1
    74    20    17    1
    75    75    74    2
    76    75    76    1
    77   147   145   ar
    78    65    64    1
    79    82    83    1
    80    74    73    1
    81   144   145    1
    82   144   143    1
    83    47    48    1
    84   134   133    1
    85   134   139   am
    86   140   139    1
    87   140   143    1
    88    48    49    2
    89    62    63    2
    90    62    61    1
    91    83    84    1
    92   130   128    1
    93   145   146   ar
    94   126   127    2
    95   119   120    1
    96    58    57   ar
    97    17    16    1
    98   100   101    1
    99    60    61    1
   100    56    55    1
   101    56    57    1
   102    52    55    1
   103    52    53    1
   104    61    64    1
   105   104   105    1
   106    64    66    1
   107    57    59   ar
   108    53    54    2
   109    84    85   ar
   110    84    86   ar
   111   120   121    2
   112    16    14   am
   113   101   103   am
   114   101   102    2
   115   105   106    1
   116   105   108    1
   117   106   107    2
   118   121   122    1
   119   121   123    1
   120    14    15    2
   121    14    13    1
   122     1     2    1
   123   108   109    1
   124    12    13    1
   125    12     3   am
   126     2     3    1
   127     2     5    1
   128     3     4    2
   129   109   110    1
   130     5     6    1
   131   111   110    1
   132   111   112    1
   133     6     8   ar
   134     6     7   ar
   135     8    10   ar
   136     7     9   ar
   137    10    11   ar
   138     9    11   ar
