@<TRIPOS>MOLECULE
tmp/4a6zA02.pdb
 85 79 0 0 0
SMALL
GASTEIGER

@<TRIPOS>ATOM
      1  N        -21.9320    5.2040  -17.4310 N.3    26  ALA26      -0.1245
      2  CA       -22.9890    5.9250  -16.7190 C.3    26  ALA26       0.1562
      3  C        -24.3760    5.3040  -16.9510 C.2    26  ALA26       0.2260
      4  O        -25.1800    5.1740  -16.0190 O.2    26  ALA26      -0.2867
      5  CB       -22.9740    7.4060  -17.1390 C.3    26  ALA26       0.0290
      6  N        -24.5390    2.0820  -15.0390 N.3    29  LEU29      -0.1231
      7  CA       -24.6960    2.3750  -13.6170 C.3    29  LEU29       0.1693
      8  C        -26.1680    2.5920  -13.2890 C.2    29  LEU29       0.2591
      9  O        -26.6620    2.1210  -12.2690 O.2    29  LEU29      -0.2718
     10  CB       -23.8720    3.6040  -13.2180 C.3    29  LEU29       0.0284
     11  CG       -22.3830    3.3890  -12.9340 C.3    29  LEU29       0.0019
     12  CD1      -21.6960    4.7400  -12.7720 C.3    29  LEU29       0.0001
     13  CD2      -22.1660    2.5300  -11.6710 C.3    29  LEU29       0.0001
     14  N        -26.8620    3.3000  -14.1730 N.am   30  ARG30      -0.1980
     15  CA       -28.2900    3.5480  -14.0210 C.3    30  ARG30       0.1597
     16  C        -29.0930    2.2470  -14.1670 C.2    30  ARG30       0.2287
     17  O        -30.0720    2.0080  -13.4380 O.2    30  ARG30      -0.2864
     18  CB       -28.7180    4.5880  -15.0640 C.3    30  ARG30       0.0334
     19  CG       -30.1800    4.9340  -15.0750 C.3    30  ARG30       0.0492
     20  CD       -30.4940    5.7790  -16.3010 C.3    30  ARG30       0.2205
     21  NE       -30.0880    7.1800  -16.1540 N.pl3  30  ARG30      -0.0865
     22  CZ       -30.0960    8.0710  -17.1470 C.cat  30  ARG30       0.5346
     23  NH1      -30.4600    7.7060  -18.3700 N.pl3  30  ARG30       0.1354
     24  NH2      -29.7300    9.3310  -16.9250 N.pl3  30  ARG30       0.1354
     25  N        -29.2130   -1.5530  -11.1850 N.3    33  ASP33      -0.1239
     26  CA       -29.4990   -0.8220   -9.9500 C.3    33  ASP33       0.1674
     27  C        -29.9140   -1.6890   -8.7590 C.2    33  ASP33       0.2266
     28  O        -30.3400   -1.1660   -7.7260 O.2    33  ASP33      -0.2867
     29  CB       -30.5470    0.2600  -10.2260 C.3    33  ASP33       0.1410
     30  CG       -31.9170   -0.3110  -10.5450 C.2    33  ASP33       0.3668
     31  OD1      -32.0200   -1.4910  -10.9640 O.co2  33  ASP33      -0.2456
     32  OD2      -32.9020    0.4390  -10.3790 O.co2  33  ASP33      -0.2456
     33  N        -29.2690   -2.5740   -3.7740 N.3    38  ALA38      -0.1231
     34  CA       -29.7100   -1.3840   -4.4970 C.3    38  ALA38       0.1694
     35  C        -28.7820   -0.1760   -4.3530 C.2    38  ALA38       0.2592
     36  O        -29.1420    0.9410   -4.7190 O.2    38  ALA38      -0.2718
     37  CB       -31.1630   -1.0150   -4.1340 C.3    38  ALA38       0.0304
     38  N        -27.5830   -0.4030   -3.8270 N.am   39  ILE39      -0.1966
     39  CA       -26.5570    0.6420   -3.8390 C.3    39  ILE39       0.1727
     40  C        -26.0820    0.8960   -5.2750 C.2    39  ILE39       0.2616
     41  O        -25.7730    2.0360   -5.6490 O.2    39  ILE39      -0.2715
     42  CB       -25.3660    0.2580   -2.9440 C.3    39  ILE39       0.0290
     43  CG1      -25.8160    0.2130   -1.4720 C.3    39  ILE39       0.0022
     44  CG2      -24.2190    1.2670   -3.1180 C.3    39  ILE39       0.0023
     45  CD1      -24.7490   -0.2980   -0.4940 C.3    39  ILE39       0.0001
     46  N        -26.0480   -0.1660   -6.0810 N.am   40  GLY40      -0.1955
     47  CA       -25.5120   -0.0830   -7.4410 C.3    40  GLY40       0.1869
     48  C        -23.9910   -0.1270   -7.4400 C.2    40  GLY40       0.2309
     49  O        -23.3660   -0.2000   -6.3750 O.2    40  GLY40      -0.2863
     50  N        -21.6780    2.0870   -8.3040 N.3    42  GLY42      -0.1210
     51  CA       -20.8930    3.3180   -8.1580 C.3    42  GLY42       0.1940
     52  C        -19.7330    3.1630   -7.1800 C.2    42  GLY42       0.2453
     53  O        -18.5660    3.3290   -7.5540 O.2    42  GLY42      -0.2732
     54  N        -20.0430    2.8470   -5.9110 N.am   43  PRO43      -0.2728
     55  CA       -18.9590    2.7540   -4.9210 C.3    43  PRO43       0.1401
     56  C        -17.8850    1.7170   -5.2750 C.2    43  PRO43       0.2269
     57  O        -16.7020    2.0120   -5.1490 O.2    43  PRO43      -0.2865
     58  CB       -19.7050    2.3980   -3.6320 C.3    43  PRO43       0.0296
     59  CG       -21.0800    3.0230   -3.8420 C.3    43  PRO43       0.0237
     60  CD       -21.3630    2.6580   -5.2750 C.3    43  PRO43       0.0939
     61  N        -21.4140   10.6720  -11.5940 N.3   117  GLU117     -0.1231
     62  CA       -22.8020   10.2130  -11.7040 C.3   117  GLU117      0.1699
     63  C        -23.5110   10.1680  -10.3460 C.2   117  GLU117      0.2592
     64  O        -24.7320   10.3250  -10.2690 O.2   117  GLU117     -0.2718
     65  CB       -22.8940    8.8810  -12.4630 C.3   117  GLU117      0.0402
     66  CG       -22.5110    9.0380  -13.9470 C.3   117  GLU117      0.1161
     67  CD       -23.4380    9.9920  -14.7190 C.2   117  GLU117      0.3649
     68  OE1      -24.6620    9.7460  -14.7420 O.co2 117  GLU117     -0.2457
     69  OE2      -22.9410   10.9860  -15.3070 O.co2 117  GLU117     -0.2457
     70  N        -22.7300   10.0040   -9.2840 N.am  118  MET118     -0.1979
     71  CA       -23.2600   10.0400   -7.9320 C.3   118  MET118      0.1605
     72  C        -23.2910   11.4670   -7.3500 C.2   118  MET118      0.2287
     73  O        -23.3600   11.6490   -6.1330 O.2   118  MET118     -0.2864
     74  CB       -22.4810    9.0710   -7.0370 C.3   118  MET118      0.0413
     75  CG       -22.6920    7.6040   -7.4410 C.3   118  MET118      0.0598
     76  SD       -21.9790    6.4470   -6.2510 S.3   118  MET118     -0.1393
     77  CE       -20.2320    6.6380   -6.6130 C.3   118  MET118      0.0692
     78  N        -24.9640    5.9010   -2.1380 N.3   195  ASN195     -0.1240
     79  CA       -24.6540    6.1020   -3.5580 C.3   195  ASN195      0.1653
     80  C        -24.8180    7.5620   -4.0140 C.2   195  ASN195      0.2266
     81  O        -25.0280    7.8480   -5.1960 O.2   195  ASN195     -0.2867
     82  CB       -25.4010    5.0980   -4.4600 C.3   195  ASN195      0.1155
     83  CG       -26.9150    5.2660   -4.4170 C.2   195  ASN195      0.2627
     84  OD1      -27.4400    6.2210   -3.8420 O.2   195  ASN195     -0.2716
     85  ND2      -27.6230    4.3260   -5.0390 N.am  195  ASN195     -0.0877
@<TRIPOS>BOND
     1    23    22    1
     2     1     2    1
     3    22    24    1
     4    22    21    2
     5     5     2    1
     6     3     2    1
     7     3     4    2
     8    20    21    1
     9    20    19    1
    10    69    67   ar
    11    19    18    1
    12    18    15    1
    13     6     7    1
    14    68    67   ar
    15    67    66    1
    16    14    15    1
    17    14     8   am
    18    16    15    1
    19    16    17    2
    20    66    65    1
    21     7     8    1
    22     7    10    1
    23     8     9    2
    24    10    11    1
    25    11    12    1
    26    11    13    1
    27    65    62    1
    28    62    61    1
    29    62    63    1
    30    25    26    1
    31    31    30   ar
    32    30    32   ar
    33    30    29    1
    34    63    64    2
    35    63    70   am
    36    29    26    1
    37    26    27    1
    38    70    71    1
    39    27    28    2
    40    50    51    1
    41    51    52    1
    42    71    72    1
    43    71    74    1
    44    53    52    2
    45    75    74    1
    46    75    76    1
    47    47    48    1
    48    47    46    1
    49    48    49    2
    50    72    73    2
    51    52    54   am
    52    77    76    1
    53    46    40   am
    54    54    60    1
    55    54    55    1
    56    41    40    2
    57    40    39    1
    58    56    57    2
    59    56    55    1
    60    60    59    1
    61    81    80    2
    62    85    83   am
    63    55    58    1
    64    36    35    2
    65    34    35    1
    66    34    37    1
    67    34    33    1
    68    82    83    1
    69    82    79    1
    70    83    84    2
    71    35    38   am
    72    80    79    1
    73    59    58    1
    74    39    38    1
    75    39    42    1
    76    79    78    1
    77    44    42    1
    78    42    43    1
    79    43    45    1
