@<TRIPOS>MOLECULE
tmp/4a71A02.pdb
 87 84 0 0 0
SMALL
GASTEIGER

@<TRIPOS>ATOM
      1  N        -24.5130    2.0520  -14.9130 N.3    29  LEU29      -0.1231
      2  CA       -24.7000    2.4000  -13.4960 C.3    29  LEU29       0.1693
      3  C        -26.1720    2.6350  -13.1810 C.2    29  LEU29       0.2591
      4  O        -26.6820    2.1890  -12.1530 O.2    29  LEU29      -0.2718
      5  CB       -23.8880    3.6440  -13.1240 C.3    29  LEU29       0.0284
      6  CG       -22.4060    3.4330  -12.8210 C.3    29  LEU29       0.0019
      7  CD1      -21.7290    4.7760  -12.6500 C.3    29  LEU29       0.0001
      8  CD2      -22.2140    2.5580  -11.5760 C.3    29  LEU29       0.0001
      9  N        -26.8460    3.3460  -14.0760 N.am   30  ARG30      -0.1980
     10  CA       -28.2830    3.5630  -13.9820 C.3    30  ARG30       0.1597
     11  C        -29.0700    2.2460  -14.1130 C.2    30  ARG30       0.2287
     12  O        -30.0360    2.0090  -13.3800 O.2    30  ARG30      -0.2864
     13  CB       -28.6960    4.5630  -15.0700 C.3    30  ARG30       0.0334
     14  CG       -30.1520    4.9560  -15.0640 C.3    30  ARG30       0.0492
     15  CD       -30.4550    5.7970  -16.2940 C.3    30  ARG30       0.2205
     16  NE       -30.0450    7.1950  -16.1520 N.pl3  30  ARG30      -0.0865
     17  CZ       -30.0310    8.0760  -17.1520 C.cat  30  ARG30       0.5346
     18  NH1      -30.3740    7.7010  -18.3790 N.pl3  30  ARG30       0.1354
     19  NH2      -29.6640    9.3320  -16.9320 N.pl3  30  ARG30       0.1354
     20  N        -29.2120   -1.3540  -11.0480 N.3    33  ASP33      -0.1239
     21  CA       -29.4780   -0.5950   -9.8310 C.3    33  ASP33       0.1674
     22  C        -29.6730   -1.4390   -8.5730 C.2    33  ASP33       0.2266
     23  O        -29.6590   -0.9010   -7.4640 O.2    33  ASP33      -0.2867
     24  CB       -30.6750    0.3460  -10.0410 C.3    33  ASP33       0.1410
     25  CG       -31.9890   -0.4000  -10.2570 C.2    33  ASP33       0.3668
     26  OD1      -32.0000   -1.4640  -10.9180 O.co2  33  ASP33      -0.2456
     27  OD2      -33.0290    0.0930   -9.7650 O.co2  33  ASP33      -0.2456
     28  N        -27.6010   -0.3050   -3.6010 N.3    39  ILE39      -0.1231
     29  CA       -26.5880    0.7570   -3.5930 C.3    39  ILE39       0.1692
     30  C        -26.1460    1.0510   -5.0340 C.2    39  ILE39       0.2593
     31  O        -25.9230    2.2080   -5.4090 O.2    39  ILE39      -0.2718
     32  CB       -25.3700    0.4040   -2.7000 C.3    39  ILE39       0.0266
     33  CG1      -25.8040    0.3100   -1.2280 C.3    39  ILE39       0.0019
     34  CG2      -24.2510    1.4480   -2.8570 C.3    39  ILE39       0.0020
     35  CD1      -24.7340   -0.2280   -0.2950 C.3    39  ILE39       0.0001
     36  N        -26.0680   -0.0050   -5.8420 N.am   40  GLY40      -0.1942
     37  CA       -25.5830    0.1160   -7.2080 C.3    40  GLY40       0.2014
     38  C        -24.0690    0.0090   -7.2200 C.2    40  GLY40       0.2639
     39  O        -23.4340   -0.0980   -6.1620 O.2    40  GLY40      -0.2714
     40  N        -23.4920    0.0190   -8.4150 N.am   41  TYR41      -0.1959
     41  CA       -22.0640   -0.2390   -8.5850 C.3    41  TYR41       0.1771
     42  C        -21.1440    0.9700   -8.3930 C.2    41  TYR41       0.2620
     43  O        -19.9180    0.8310   -8.5000 O.2    41  TYR41      -0.2715
     44  CB       -21.8070   -0.8520   -9.9620 C.3    41  TYR41       0.0574
     45  CG       -22.1870   -2.3150  -10.0710 C.ar   41  TYR41      -0.0198
     46  CD1      -21.2600   -3.3220   -9.7790 C.ar   41  TYR41      -0.0009
     47  CD2      -23.4640   -2.6920  -10.4810 C.ar   41  TYR41      -0.0009
     48  CE1      -21.6020   -4.6720   -9.8900 C.ar   41  TYR41       0.0417
     49  CE2      -23.8200   -4.0440  -10.5930 C.ar   41  TYR41       0.0417
     50  CZ       -22.8830   -5.0270  -10.2970 C.ar   41  TYR41       0.1957
     51  OH       -23.2290   -6.3650  -10.4030 O.3    41  TYR41      -0.2866
     52  N        -21.7170    2.1460   -8.1260 N.am   42  GLY42      -0.1940
     53  CA       -20.9170    3.3730   -7.9860 C.3    42  GLY42       0.1998
     54  C        -19.7670    3.2290   -6.9980 C.2    42  GLY42       0.2480
     55  O        -18.6030    3.4090   -7.3620 O.2    42  GLY42      -0.2729
     56  N        -20.0840    2.9300   -5.7280 N.am   43  PRO43      -0.2726
     57  CA       -19.0130    2.8130   -4.7240 C.3    43  PRO43       0.1402
     58  C        -17.9200    1.7930   -5.0690 C.2    43  PRO43       0.2269
     59  O        -16.7330    2.1030   -4.9370 O.2    43  PRO43      -0.2865
     60  CB       -19.7730    2.4360   -3.4480 C.3    43  PRO43       0.0296
     61  CG       -21.1360    3.0640   -3.6540 C.3    43  PRO43       0.0237
     62  CD       -21.4220    2.8200   -5.1170 C.3    43  PRO43       0.0939
     63  N        -21.4150   10.6730  -11.5470 N.3   117  GLU117     -0.1231
     64  CA       -22.8040   10.2320  -11.6640 C.3   117  GLU117      0.1699
     65  C        -23.5010   10.2090  -10.3060 C.2   117  GLU117      0.2592
     66  O        -24.7120   10.3940  -10.2220 O.2   117  GLU117     -0.2718
     67  CB       -22.9100    8.8920  -12.4060 C.3   117  GLU117      0.0402
     68  CG       -22.5240    9.0120  -13.8910 C.3   117  GLU117      0.1161
     69  CD       -23.4490    9.9280  -14.6770 C.2   117  GLU117      0.3649
     70  OE1      -24.6720    9.6750  -14.6750 O.co2 117  GLU117     -0.2457
     71  OE2      -22.9540   10.8940  -15.2990 O.co2 117  GLU117     -0.2457
     72  N        -22.7220   10.0340   -9.2450 N.am  118  MET118     -0.1979
     73  CA       -23.2600   10.0830   -7.8890 C.3   118  MET118      0.1605
     74  C        -23.2670   11.5040   -7.3100 C.2   118  MET118      0.2287
     75  O        -23.3080   11.6930   -6.0900 O.2   118  MET118     -0.2864
     76  CB       -22.4950    9.1170   -6.9830 C.3   118  MET118      0.0413
     77  CG       -22.7250    7.6410   -7.3290 C.3   118  MET118      0.0598
     78  SD       -21.9940    6.5140   -6.1140 S.3   118  MET118     -0.1393
     79  CE       -20.2480    6.6970   -6.4970 C.3   118  MET118      0.0692
     80  N        -24.9470    6.0190   -1.9460 N.3   195  ASN195     -0.1240
     81  CA       -24.6410    6.2130   -3.3660 C.3   195  ASN195      0.1653
     82  C        -24.7810    7.6600   -3.8440 C.2   195  ASN195      0.2266
     83  O        -25.0220    7.9100   -5.0270 O.2   195  ASN195     -0.2867
     84  CB       -25.4380    5.2430   -4.2560 C.3   195  ASN195      0.1155
     85  CG       -26.9500    5.4060   -4.1140 C.2   195  ASN195      0.2627
     86  OD1      -27.4390    6.3880   -3.5530 O.2   195  ASN195     -0.2716
     87  ND2      -27.6960    4.4270   -4.6250 N.am  195  ASN195     -0.0877
@<TRIPOS>BOND
     1    18    17    1
     2    17    19    1
     3    17    16    2
     4    15    16    1
     5    15    14    1
     6    71    69   ar
     7    13    14    1
     8    13    10    1
     9     1     2    1
    10    69    70   ar
    11    69    68    1
    12    11    10    1
    13    11    12    2
    14     9    10    1
    15     9     3   am
    16    68    67    1
    17     2     3    1
    18     2     5    1
    19     3     4    2
    20     5     6    1
    21     6     7    1
    22     6     8    1
    23    67    64    1
    24    64    63    1
    25    64    65    1
    26    20    21    1
    27    26    25   ar
    28    49    47   ar
    29    49    50   ar
    30    47    45   ar
    31    51    50    1
    32    65    66    2
    33    65    72   am
    34    50    48   ar
    35    25    24    1
    36    25    27   ar
    37    45    44    1
    38    45    46   ar
    39    24    21    1
    40    44    41    1
    41    48    46   ar
    42    21    22    1
    43    72    73    1
    44    41    40    1
    45    41    42    1
    46    22    23    2
    47    43    42    2
    48    40    38   am
    49    42    52   am
    50    52    53    1
    51    53    54    1
    52    73    74    1
    53    73    76    1
    54    55    54    2
    55    77    76    1
    56    77    78    1
    57    74    75    2
    58    38    37    1
    59    38    39    2
    60    37    36    1
    61    54    56   am
    62    79    78    1
    63    36    30   am
    64    56    62    1
    65    56    57    1
    66    31    30    2
    67    62    61    1
    68    58    59    2
    69    58    57    1
    70    30    29    1
    71    83    82    2
    72    57    60    1
    73    87    85   am
    74    84    85    1
    75    84    81    1
    76    85    86    2
    77    82    81    1
    78    61    60    1
    79    28    29    1
    80    29    32    1
    81    81    80    1
    82    34    32    1
    83    32    33    1
    84    33    35    1
