@<TRIPOS>MOLECULE
tmp/4a75A00.pdb
 164 161 0 0 0
SMALL
GASTEIGER

@<TRIPOS>ATOM
      1  N          1.0830  -10.6350  -16.8020 N.3    14  LYS14      -0.1231
      2  CA        -0.1060   -9.9200  -17.2440 C.3    14  LYS14       0.1693
      3  C         -0.1420   -9.8240  -18.7650 C.2    14  LYS14       0.2592
      4  O         -1.1380  -10.1960  -19.4020 O.2    14  LYS14      -0.2718
      5  CB        -0.1300   -8.5080  -16.6420 C.3    14  LYS14       0.0285
      6  CG        -1.4170   -7.7670  -16.9190 C.3    14  LYS14       0.0035
      7  CD        -1.3250   -6.2960  -16.4370 C.3    14  LYS14       0.0206
      8  CE        -2.5330   -5.5120  -16.8300 C.3    14  LYS14       0.1093
      9  NZ        -2.3690   -4.0380  -16.5800 N.3    14  LYS14      -0.1314
     10  N          0.9270   -9.2550  -19.3270 N.am   15  TRP15      -0.1962
     11  CA         1.1750   -9.2390  -20.7710 C.3    15  TRP15       0.1771
     12  C          2.6550   -9.0920  -21.0130 C.2    15  TRP15       0.2620
     13  O          3.3910   -8.6610  -20.1270 O.2    15  TRP15      -0.2715
     14  CB         0.4230   -8.1250  -21.4960 C.3    15  TRP15       0.0590
     15  CG         0.7140   -6.6680  -21.0560 C.ar   15  TRP15       0.0006
     16  CD1        0.0650   -5.9660  -20.0780 C.ar   15  TRP15       0.0946
     17  CD2        1.6760   -5.7600  -21.6140 C.ar   15  TRP15       0.0152
     18  NE1        0.5780   -4.6810  -19.9810 N.ar   15  TRP15      -0.2442
     19  CE2        1.5620   -4.5300  -20.9170 C.ar   15  TRP15       0.0810
     20  CE3        2.6250   -5.8580  -22.6250 C.ar   15  TRP15       0.0012
     21  CZ2        2.3620   -3.4280  -21.2170 C.ar   15  TRP15       0.0191
     22  CZ3        3.4180   -4.7610  -22.9030 C.ar   15  TRP15       0.0001
     23  CH2        3.2940   -3.5780  -22.2080 C.ar   15  TRP15       0.0015
     24  N          3.1070   -9.4690  -22.1980 N.am   16  PHE16      -0.1960
     25  CA         4.4930   -9.2610  -22.5650 C.3    16  PHE16       0.1771
     26  C          4.5590   -9.0620  -24.0620 C.2    16  PHE16       0.2619
     27  O          3.8530   -9.7410  -24.8080 O.2    16  PHE16      -0.2715
     28  CB         5.3600  -10.4490  -22.1590 C.3    16  PHE16       0.0574
     29  CG         6.8170  -10.1460  -22.1800 C.ar   16  PHE16      -0.0200
     30  CD1        7.4460   -9.6170  -21.0540 C.ar   16  PHE16      -0.0042
     31  CD2        7.5700  -10.3590  -23.3330 C.ar   16  PHE16      -0.0042
     32  CE1        8.7740   -9.3050  -21.1030 C.ar   16  PHE16      -0.0003
     33  CE2        8.9050  -10.0640  -23.3640 C.ar   16  PHE16      -0.0003
     34  CZ         9.5030   -9.5180  -22.2510 C.ar   16  PHE16      -0.0000
     35  N          5.3600   -8.0890  -24.4830 N.am   17  ASN17      -0.1972
     36  CA         5.4720   -7.7200  -25.8900 C.3    17  ASN17       0.1688
     37  C          6.9300   -7.8700  -26.2960 C.2    17  ASN17       0.2292
     38  O          7.8100   -7.0670  -25.8970 O.2    17  ASN17      -0.2864
     39  CB         4.9470   -6.2940  -26.0850 C.3    17  ASN17       0.1181
     40  CG         4.9710   -5.8140  -27.5570 C.2    17  ASN17       0.2629
     41  OD1        5.9690   -5.9600  -28.2580 O.2    17  ASN17      -0.2716
     42  ND2        3.8670   -5.1910  -28.0010 N.am   17  ASN17      -0.0877
     43  N          8.7570   -4.9750  -28.1400 N.3    20  MET20      -0.1245
     44  CA         9.1710   -3.8810  -27.2770 C.3    20  MET20       0.1570
     45  C         10.1860   -4.3340  -26.2300 C.2    20  MET20       0.2261
     46  O         10.9490   -3.5220  -25.7030 O.2    20  MET20      -0.2867
     47  CB         7.9500   -3.2970  -26.5890 C.3    20  MET20       0.0387
     48  CG         6.9100   -2.8490  -27.5880 C.3    20  MET20       0.0595
     49  SD         7.3740   -1.2940  -28.3420 S.3    20  MET20      -0.1393
     50  CE         6.7190   -0.2420  -27.0370 C.3    20  MET20       0.0692
     51  N          9.4310   -5.8590  -23.2580 N.3    22  PHE22      -0.1241
     52  CA         8.9380   -5.7760  -21.8760 C.3    22  PHE22       0.1605
     53  C          7.4580   -6.1060  -21.7690 C.2    22  PHE22       0.2264
     54  O          6.7400   -6.2510  -22.7740 O.2    22  PHE22      -0.2867
     55  CB         9.2320   -4.4060  -21.2340 C.3    22  PHE22       0.0534
     56  CG         8.4790   -3.2480  -21.8310 C.ar   22  PHE22      -0.0203
     57  CD1        7.2090   -2.9030  -21.3650 C.ar   22  PHE22      -0.0042
     58  CD2        9.0440   -2.4940  -22.8740 C.ar   22  PHE22      -0.0042
     59  CE1        6.5120   -1.8530  -21.9390 C.ar   22  PHE22      -0.0003
     60  CE2        8.3570   -1.4130  -23.4270 C.ar   22  PHE22      -0.0003
     61  CZ         7.0910   -1.0960  -22.9550 C.ar   22  PHE22      -0.0000
     62  N          4.3490   -6.6480  -18.1730 N.3    24  PHE24      -0.1241
     63  CA         4.0300   -6.5230  -16.7560 C.3    24  PHE24       0.1605
     64  C          3.6830   -7.8690  -16.1530 C.2    24  PHE24       0.2264
     65  O          3.1170   -8.7540  -16.8000 O.2    24  PHE24      -0.2867
     66  CB         2.9000   -5.5210  -16.4970 C.3    24  PHE24       0.0534
     67  CG         3.3240   -4.0970  -16.6680 C.ar   24  PHE24      -0.0203
     68  CD1        3.3800   -3.5400  -17.9320 C.ar   24  PHE24      -0.0042
     69  CD2        3.7450   -3.3390  -15.5840 C.ar   24  PHE24      -0.0042
     70  CE1        3.7930   -2.2490  -18.1120 C.ar   24  PHE24      -0.0003
     71  CE2        4.1460   -2.0420  -15.7420 C.ar   24  PHE24      -0.0003
     72  CZ         4.1750   -1.4820  -17.0070 C.ar   24  PHE24      -0.0000
     73  N          0.6700   -4.3110  -10.4330 N.3    40  ASP40      -0.1239
     74  CA         1.4550   -4.5320  -11.6580 C.3    40  ASP40       0.1674
     75  C          2.9130   -4.1870  -11.3660 C.2    40  ASP40       0.2266
     76  O          3.2010   -3.1840  -10.7490 O.2    40  ASP40      -0.2867
     77  CB         1.0090   -3.6670  -12.8240 C.3    40  ASP40       0.1410
     78  CG        -0.2820   -4.1320  -13.4770 C.2    40  ASP40       0.3668
     79  OD1       -0.8750   -5.1360  -13.0450 O.co2  40  ASP40      -0.2456
     80  OD2       -0.7180   -3.4180  -14.4090 O.co2  40  ASP40      -0.2456
     81  N          6.5780   -3.9350  -13.5860 N.3    42  PHE42      -0.1241
     82  CA         7.2390   -3.8950  -14.8800 C.3    42  PHE42       0.1605
     83  C          8.2620   -5.0080  -14.9420 C.2    42  PHE42       0.2264
     84  O          8.9740   -5.2680  -13.9550 O.2    42  PHE42      -0.2867
     85  CB         7.8900   -2.5130  -15.0590 C.3    42  PHE42       0.0534
     86  CG         8.7510   -2.3610  -16.3100 C.ar   42  PHE42      -0.0203
     87  CD1        8.1730   -2.0510  -17.5420 C.ar   42  PHE42      -0.0042
     88  CD2       10.1230   -2.5060  -16.2350 C.ar   42  PHE42      -0.0042
     89  CE1        8.9490   -1.8720  -18.6710 C.ar   42  PHE42      -0.0003
     90  CE2       10.9270   -2.3200  -17.3680 C.ar   42  PHE42      -0.0003
     91  CZ        10.3280   -2.0050  -18.5800 C.ar   42  PHE42      -0.0000
     92  N         11.3720   -6.2390  -17.6600 N.3    44  HIS44      -0.1241
     93  CA        12.1490   -6.1420  -18.9050 C.3    44  HIS44       0.1621
     94  C         12.7020   -7.5290  -19.3300 C.2    44  HIS44       0.2264
     95  O         13.0560   -8.3630  -18.4560 O.2    44  HIS44      -0.2867
     96  CB        13.2700   -5.1490  -18.7200 C.3    44  HIS44       0.0745
     97  CG        13.9610   -4.7900  -19.9920 C.ar   44  HIS44       0.0817
     98  ND1       15.1970   -5.2960  -20.3250 N.ar   44  HIS44      -0.2268
     99  CD2       13.5760   -4.0080  -21.0380 C.ar   44  HIS44       0.1154
    100  CE1       15.5670   -4.8180  -21.5010 C.ar   44  HIS44       0.1986
    101  NE2       14.5930   -4.0520  -21.9700 N.ar   44  HIS44      -0.2212
    102  N         15.4990   -8.4680  -20.2700 N.3    46  SER46      -0.1202
    103  CA        16.8280   -8.7680  -19.7570 C.3    46  SER46       0.2020
    104  C         16.8330   -9.4580  -18.4030 C.2    46  SER46       0.2618
    105  O         17.8490  -10.0340  -17.9980 O.2    46  SER46      -0.2717
    106  CB        17.6870   -7.5140  -19.6940 C.3    46  SER46       0.2103
    107  OG        17.1410   -6.5450  -18.8010 O.3    46  SER46      -0.2182
    108  N         15.6960   -9.4030  -17.7030 N.am   47  LYS47      -0.1979
    109  CA        15.5950   -9.9400  -16.3510 C.3    47  LYS47       0.1596
    110  C         15.1170  -11.3820  -16.2770 C.2    47  LYS47       0.2287
    111  O         15.0870  -11.9780  -15.1780 O.2    47  LYS47      -0.2864
    112  CB        14.6620   -9.0500  -15.5120 C.3    47  LYS47       0.0298
    113  CG        14.9260   -7.5700  -15.6180 C.3    47  LYS47       0.0038
    114  CD        16.3270   -7.1690  -15.2290 C.3    47  LYS47       0.0206
    115  CE        16.4490   -5.7060  -14.8960 C.3    47  LYS47       0.1093
    116  NZ        17.8100   -5.2940  -14.4990 N.3    47  LYS47      -0.1314
    117  N          1.7320  -14.8620  -21.6010 N.3    58  GLU58      -0.1245
    118  CA         0.5950  -14.3760  -20.8350 C.3    58  GLU58       0.1567
    119  C          0.0690  -15.4410  -19.8890 C.2    58  GLU58       0.2260
    120  O         -0.2060  -16.5780  -20.3060 O.2    58  GLU58      -0.2867
    121  CB        -0.4920  -13.9130  -21.7880 C.3    58  GLU58       0.0388
    122  CG        -1.5960  -13.1500  -21.1470 C.3    58  GLU58       0.1160
    123  CD        -2.3950  -12.3560  -22.1500 C.2    58  GLU58       0.3649
    124  OE1       -1.8070  -11.5390  -22.9070 O.co2  58  GLU58      -0.2457
    125  OE2       -3.6100  -12.5810  -22.1980 O.co2  58  GLU58      -0.2457
    126  N         10.6490    1.7650   -8.4180 N.3    69  SER69      -0.1217
    127  CA        11.4460    2.5330   -9.3880 C.3    69  SER69       0.1889
    128  C         10.8000    3.8720   -9.6560 C.2    69  SER69       0.2288
    129  O          9.6960    4.1220   -9.2070 O.2    69  SER69      -0.2866
    130  CB        11.5540    1.7750  -10.7130 C.3    69  SER69       0.2089
    131  OG        10.2640    1.5120  -11.2490 O.3    69  SER69      -0.2183
    132  N          9.3510    4.9500  -12.2780 N.3    71  LYS71      -0.1231
    133  CA         8.1250    4.8370  -13.0770 C.3    71  LYS71       0.1693
    134  C          7.0680    3.8820  -12.5290 C.2    71  LYS71       0.2593
    135  O          5.9640    3.8030  -13.0720 O.2    71  LYS71      -0.2718
    136  CB         8.4810    4.4490  -14.5120 C.3    71  LYS71       0.0285
    137  CG         9.3300    5.5060  -15.1860 C.3    71  LYS71       0.0035
    138  CD         9.2730    5.4160  -16.6950 C.3    71  LYS71       0.0206
    139  CE         9.8150    6.6790  -17.3240 C.3    71  LYS71       0.1093
    140  NZ         9.7890    6.6060  -18.8090 N.3    71  LYS71      -0.1314
    141  N          7.3840    3.2000  -11.4410 N.am   72  GLY72      -0.1942
    142  CA         6.4640    2.2180  -10.8440 C.3    72  GLY72       0.2014
    143  C          7.2470    1.2540   -9.9770 C.2    72  GLY72       0.2639
    144  O          7.8540    1.6660   -8.9780 O.2    72  GLY72      -0.2714
    145  N          7.2450   -0.0180  -10.3720 N.am   73  PHE73      -0.1959
    146  CA         8.0900   -1.0360   -9.7820 C.3    73  PHE73       0.1771
    147  C          8.8450   -1.6520  -10.9290 C.2    73  PHE73       0.2619
    148  O          8.4270   -1.5340  -12.0920 O.2    73  PHE73      -0.2715
    149  CB         7.2540   -2.0680   -9.0560 C.3    73  PHE73       0.0574
    150  CG         6.6120   -1.5020   -7.8230 C.ar   73  PHE73      -0.0200
    151  CD1        7.3280   -1.4700   -6.6240 C.ar   73  PHE73      -0.0042
    152  CD2        5.3540   -0.9120   -7.8760 C.ar   73  PHE73      -0.0042
    153  CE1        6.7800   -0.8940   -5.4920 C.ar   73  PHE73      -0.0003
    154  CE2        4.8000   -0.3300   -6.7190 C.ar   73  PHE73      -0.0003
    155  CZ         5.5280   -0.3250   -5.5450 C.ar   73  PHE73      -0.0000
    156  N          9.9560   -2.2780  -10.5880 N.am   74  GLU74      -0.1977
    157  CA        10.8160   -2.9240  -11.5710 C.3    74  GLU74       0.1602
    158  C         11.1840   -4.3330  -11.1030 C.2    74  GLU74       0.2287
    159  O         11.6840   -4.4830   -9.9900 O.2    74  GLU74      -0.2864
    160  CB        12.0820   -2.0820  -11.7070 C.3    74  GLU74       0.0415
    161  CG        13.1420   -2.6190  -12.6110 C.3    74  GLU74       0.1163
    162  CD        14.4240   -1.7880  -12.5710 C.2    74  GLU74       0.3649
    163  OE1       14.5840   -0.9330  -11.6640 O.co2  74  GLU74      -0.2457
    164  OE2       15.2750   -2.0110  -13.4420 O.co2  74  GLU74      -0.2457
@<TRIPOS>BOND
     1    49    48    1
     2    49    50    1
     3    41    40    2
     4    43    44    1
     5    42    40   am
     6    48    47    1
     7    40    39    1
     8    44    47    1
     9    44    45    1
    10    37    38    2
    11    37    36    1
    12    45    46    2
    13    39    36    1
    14    36    35    1
    15    27    26    2
    16    35    26   am
    17    26    25    1
    18    60    61   ar
    19    60    58   ar
    20    33    31   ar
    21    33    34   ar
    22    31    29   ar
    23    51    52    1
    24    61    59   ar
    25   124   123   ar
    26    22    20   ar
    27    22    23   ar
    28    58    56   ar
    29    54    53    2
    30    20    17   ar
    31    25    24    1
    32    25    28    1
    33    34    32   ar
    34    23    21   ar
    35    24    12   am
    36   125   123   ar
    37    29    28    1
    38    29    30   ar
    39   123   122    1
    40   101   100   ar
    41   101    99   ar
    42    59    57   ar
    43    52    53    1
    44    52    55    1
    45    56    57   ar
    46    56    55    1
    47   121   122    1
    48   121   118    1
    49    17    15   ar
    50    17    19   ar
    51   117   118    1
    52   100    98   ar
    53    14    15    1
    54    14    11    1
    55    21    19   ar
    56    32    30   ar
    57    15    16   ar
    58    99    97   ar
    59    12    11    1
    60    12    13    2
    61    19    18   ar
    62   118   119    1
    63    11    10    1
    64    98    97   ar
    65   120   119    2
    66   102   103    1
    67    16    18   ar
    68    97    96    1
    69   103   106    1
    70   103   104    1
    71   106   107    1
    72     4     3    2
    73    94    93    1
    74    94    95    2
    75    10     3   am
    76    93    96    1
    77    93    92    1
    78   140   139    1
    79     3     2    1
    80    89    91   ar
    81    89    87   ar
    82    91    90   ar
    83   104   105    2
    84   104   108   am
    85    62    63    1
    86    70    68   ar
    87    70    72   ar
    88    68    67   ar
    89   108   109    1
    90    87    86   ar
    91    90    88   ar
    92   139   138    1
    93     2     1    1
    94     2     5    1
    95    72    71   ar
    96     6     5    1
    97     6     7    1
    98     8     9    1
    99     8     7    1
   100    65    64    2
   101    63    66    1
   102    63    64    1
   103   138   137    1
   104    67    66    1
   105    67    69   ar
   106   109   110    1
   107   109   112    1
   108    86    88   ar
   109    86    85    1
   110   110   111    2
   111    71    69   ar
   112   113   112    1
   113   113   114    1
   114   114   115    1
   115   137   136    1
   116    85    82    1
   117    83    82    1
   118    83    84    2
   119   115   116    1
   120    82    81    1
   121   136   133    1
   122    80    78   ar
   123    78    79   ar
   124    78    77    1
   125   164   162   ar
   126   133   134    1
   127   133   132    1
   128   135   134    2
   129    77    74    1
   130   161   162    1
   131   161   160    1
   132   162   163   ar
   133   134   141   am
   134   148   147    2
   135   160   157    1
   136    74    75    1
   137    74    73    1
   138   157   158    1
   139   157   156    1
   140   141   142    1
   141    75    76    2
   142   131   130    1
   143   158   159    2
   144   147   156   am
   145   147   146    1
   146   142   143    1
   147   130   127    1
   148   145   143   am
   149   145   146    1
   150   143   144    2
   151   146   149    1
   152   128   127    1
   153   128   129    2
   154   127   126    1
   155   149   150    1
   156   152   150   ar
   157   152   154   ar
   158   150   151   ar
   159   154   155   ar
   160   151   153   ar
   161   155   153   ar
