@<TRIPOS>MOLECULE
tmp/4a76E00.pdb
 164 161 0 0 0
SMALL
GASTEIGER

@<TRIPOS>ATOM
      1  N        -24.9920  -10.3690   32.7610 N.3    12  LYS12      -0.1231
      2  CA       -26.1780   -9.6010   32.3450 C.3    12  LYS12       0.1693
      3  C        -26.1650   -9.3380   30.8530 C.2    12  LYS12       0.2592
      4  O        -27.1140   -9.6740   30.1350 O.2    12  LYS12      -0.2718
      5  CB       -26.2230   -8.2810   33.1150 C.3    12  LYS12       0.0285
      6  CG       -27.4340   -7.4100   32.8420 C.3    12  LYS12       0.0035
      7  CD       -27.6060   -6.3760   33.9650 C.3    12  LYS12       0.0206
      8  CE       -28.9140   -5.6150   33.8740 C.3    12  LYS12       0.1093
      9  NZ       -29.3500   -5.1840   35.2320 N.3    12  LYS12      -0.1314
     10  N        -25.0720   -8.7700   30.3770 N.am   13  TRP13      -0.1962
     11  CA       -24.8030   -8.6910   28.9510 C.3    13  TRP13       0.1771
     12  C        -23.3190   -8.5490   28.7130 C.2    13  TRP13       0.2620
     13  O        -22.5790   -8.1790   29.6210 O.2    13  TRP13      -0.2715
     14  CB       -25.5730   -7.5620   28.2810 C.3    13  TRP13       0.0590
     15  CG       -25.2550   -6.1990   28.7570 C.ar   13  TRP13       0.0006
     16  CD1      -25.8310   -5.5380   29.8050 C.ar   13  TRP13       0.0946
     17  CD2      -24.3250   -5.2940   28.1750 C.ar   13  TRP13       0.0152
     18  NE1      -25.3010   -4.2850   29.9190 N.ar   13  TRP13      -0.2442
     19  CE2      -24.3740   -4.1040   28.9280 C.ar   13  TRP13       0.0810
     20  CE3      -23.4440   -5.3730   27.0920 C.ar   13  TRP13       0.0012
     21  CZ2      -23.5820   -3.0030   28.6340 C.ar   13  TRP13       0.0191
     22  CZ3      -22.6490   -4.2810   26.8110 C.ar   13  TRP13       0.0001
     23  CH2      -22.7280   -3.1090   27.5760 C.ar   13  TRP13       0.0015
     24  N        -22.8900   -8.8620   27.4970 N.am   14  PHE14      -0.1960
     25  CA       -21.5010   -8.6560   27.0980 C.3    14  PHE14       0.1771
     26  C        -21.4010   -8.3250   25.6160 C.2    14  PHE14       0.2619
     27  O        -21.9940   -9.0080   24.7780 O.2    14  PHE14      -0.2715
     28  CB       -20.6310   -9.8680   27.4300 C.3    14  PHE14       0.0574
     29  CG       -19.1660   -9.5560   27.4520 C.ar   14  PHE14      -0.0200
     30  CD1      -18.4090   -9.6490   26.3060 C.ar   14  PHE14      -0.0042
     31  CD2      -18.5550   -9.1420   28.6160 C.ar   14  PHE14      -0.0042
     32  CE1      -17.0720   -9.3440   26.3210 C.ar   14  PHE14      -0.0003
     33  CE2      -17.2160   -8.8390   28.6360 C.ar   14  PHE14      -0.0003
     34  CZ       -16.4750   -8.9370   27.4880 C.ar   14  PHE14      -0.0000
     35  N        -20.6340   -7.2860   25.2970 N.am   15  ASN15      -0.1972
     36  CA       -20.4480   -6.8710   23.9080 C.3    15  ASN15       0.1688
     37  C        -18.9970   -7.0380   23.4680 C.2    15  ASN15       0.2292
     38  O        -18.1150   -6.3080   23.9040 O.2    15  ASN15      -0.2864
     39  CB       -20.8880   -5.4120   23.7480 C.3    15  ASN15       0.1181
     40  CG       -20.8600   -4.9500   22.3160 C.2    15  ASN15       0.2629
     41  OD1      -19.9230   -5.2310   21.5840 O.2    15  ASN15      -0.2716
     42  ND2      -21.9020   -4.2530   21.9050 N.am   15  ASN15      -0.0877
     43  N        -17.0990   -4.0820   21.7770 N.3    18  MET18      -0.1245
     44  CA       -16.6760   -3.0770   22.7270 C.3    18  MET18       0.1570
     45  C        -15.6750   -3.5630   23.7680 C.2    18  MET18       0.2261
     46  O        -14.9240   -2.7720   24.3090 O.2    18  MET18      -0.2867
     47  CB       -17.9020   -2.5360   23.4530 C.3    18  MET18       0.0387
     48  CG       -18.9870   -1.9990   22.5640 C.3    18  MET18       0.0595
     49  SD       -20.4350   -1.6230   23.5860 S.3    18  MET18      -0.1393
     50  CE       -21.6180   -1.0360   22.3900 C.3    18  MET18       0.0692
     51  N        -16.4780   -5.2710   26.6540 N.3    20  PHE20      -0.1241
     52  CA       -17.0260   -5.1650   27.9870 C.3    20  PHE20       0.1605
     53  C        -18.5030   -5.4260   28.0690 C.2    20  PHE20       0.2264
     54  O        -19.1570   -5.6340   27.0710 O.2    20  PHE20      -0.2867
     55  CB       -16.7020   -3.7930   28.5940 C.3    20  PHE20       0.0534
     56  CG       -17.5420   -2.6720   28.0980 C.ar   20  PHE20      -0.0203
     57  CD1      -17.1530   -1.9200   26.9950 C.ar   20  PHE20      -0.0042
     58  CD2      -18.7080   -2.3270   28.7630 C.ar   20  PHE20      -0.0042
     59  CE1      -17.9280   -0.8320   26.5680 C.ar   20  PHE20      -0.0003
     60  CE2      -19.4760   -1.2690   28.3430 C.ar   20  PHE20      -0.0003
     61  CZ       -19.1030   -0.5220   27.2510 C.ar   20  PHE20      -0.0000
     62  N        -21.6900   -6.2030   31.5850 N.3    22  PHE22      -0.1241
     63  CA       -22.0390   -6.1910   33.0120 C.3    22  PHE22       0.1605
     64  C        -22.3930   -7.5530   33.5700 C.2    22  PHE22       0.2264
     65  O        -22.8740   -8.4220   32.8700 O.2    22  PHE22      -0.2867
     66  CB       -23.1590   -5.1920   33.2980 C.3    22  PHE22       0.0534
     67  CG       -22.6950   -3.7840   33.2840 C.ar   22  PHE22      -0.0203
     68  CD1      -22.6170   -3.0800   32.0810 C.ar   22  PHE22      -0.0042
     69  CD2      -22.3260   -3.1440   34.4550 C.ar   22  PHE22      -0.0042
     70  CE1      -22.1840   -1.7840   32.0580 C.ar   22  PHE22      -0.0003
     71  CE2      -21.8640   -1.8360   34.4160 C.ar   22  PHE22      -0.0003
     72  CZ       -21.8010   -1.1700   33.2150 C.ar   22  PHE22      -0.0000
     73  N        -25.4350   -4.3920   39.4410 N.3    38  ASP38      -0.1239
     74  CA       -24.6490   -4.4190   38.2000 C.3    38  ASP38       0.1674
     75  C        -23.1790   -4.1490   38.5060 C.2    38  ASP38       0.2266
     76  O        -22.8490   -3.2900   39.3010 O.2    38  ASP38      -0.2867
     77  CB       -25.1710   -3.4180   37.1650 C.3    38  ASP38       0.1410
     78  CG       -26.3920   -3.9290   36.4040 C.2    38  ASP38       0.3668
     79  OD1      -26.8280   -5.0620   36.6470 O.co2  38  ASP38      -0.2456
     80  OD2      -26.9240   -3.1850   35.5540 O.co2  38  ASP38      -0.2456
     81  N        -19.6360   -3.8250   36.3790 N.3    40  PHE40      -0.1241
     82  CA       -18.9510   -3.7050   35.1060 C.3    40  PHE40       0.1605
     83  C        -17.8880   -4.7960   34.9460 C.2    40  PHE40       0.2264
     84  O        -17.1340   -5.0880   35.8740 O.2    40  PHE40      -0.2867
     85  CB       -18.2790   -2.3310   35.0680 C.3    40  PHE40       0.0534
     86  CG       -17.3820   -2.1170   33.8940 C.ar   40  PHE40      -0.0203
     87  CD1      -17.8840   -1.6430   32.6980 C.ar   40  PHE40      -0.0042
     88  CD2      -16.0210   -2.3350   34.0080 C.ar   40  PHE40      -0.0042
     89  CE1      -17.0410   -1.4300   31.6130 C.ar   40  PHE40      -0.0003
     90  CE2      -15.1740   -2.1240   32.9520 C.ar   40  PHE40      -0.0003
     91  CZ       -15.6840   -1.6640   31.7370 C.ar   40  PHE40      -0.0000
     92  N        -14.7200   -5.9100   32.2560 N.3    42  HIS42      -0.1241
     93  CA       -13.9200   -5.7490   31.0550 C.3    42  HIS42       0.1621
     94  C        -13.4210   -7.0970   30.5540 C.2    42  HIS42       0.2264
     95  O        -13.2340   -8.0240   31.3340 O.2    42  HIS42      -0.2867
     96  CB       -12.7540   -4.8010   31.2590 C.3    42  HIS42       0.0745
     97  CG       -12.0700   -4.4340   29.9830 C.ar   42  HIS42       0.0817
     98  ND1      -10.8160   -4.8930   29.6500 N.ar   42  HIS42      -0.2268
     99  CD2      -12.4760   -3.6580   28.9480 C.ar   42  HIS42       0.1154
    100  CE1      -10.4710   -4.3980   28.4750 C.ar   42  HIS42       0.1986
    101  NE2      -11.4710   -3.6690   28.0160 N.ar   42  HIS42      -0.2212
    102  N        -10.5990   -7.9020   29.4790 N.3    44  SER44      -0.1202
    103  CA        -9.2680   -8.1990   29.9830 C.3    44  SER44       0.2020
    104  C         -9.2840   -8.9750   31.3000 C.2    44  SER44       0.2618
    105  O         -8.2960   -9.5840   31.6330 O.2    44  SER44      -0.2717
    106  CB        -8.4550   -6.9180   30.1820 C.3    44  SER44       0.2103
    107  OG        -9.0530   -6.1030   31.1600 O.3    44  SER44      -0.2182
    108  N        -10.3970   -8.9690   32.0150 N.am   45  LYS45      -0.1979
    109  CA       -10.4850   -9.5880   33.3420 C.3    45  LYS45       0.1596
    110  C        -10.9830  -11.0170   33.3420 C.2    45  LYS45       0.2287
    111  O        -11.0480  -11.6250   34.3850 O.2    45  LYS45      -0.2864
    112  CB       -11.3950   -8.7710   34.2600 C.3    45  LYS45       0.0298
    113  CG       -11.0470   -7.3220   34.3130 C.3    45  LYS45       0.0038
    114  CD        -9.7420   -7.0720   34.9040 C.3    45  LYS45       0.0206
    115  CE        -9.4830   -5.5390   34.9770 C.3    45  LYS45       0.1093
    116  NZ        -8.2040   -5.2530   35.5520 N.3    45  LYS45      -0.1314
    117  N        -24.3310  -14.3360   27.8670 N.3    56  GLU56      -0.1245
    118  CA       -25.4400  -13.8790   28.6800 C.3    56  GLU56       0.1567
    119  C        -25.9250  -15.0720   29.4770 C.2    56  GLU56       0.2260
    120  O        -26.1050  -16.1740   28.9310 O.2    56  GLU56      -0.2867
    121  CB       -26.5820  -13.3790   27.7900 C.3    56  GLU56       0.0388
    122  CG       -27.1420  -12.0460   28.1830 C.3    56  GLU56       0.1160
    123  CD       -28.1730  -11.5180   27.2030 C.2    56  GLU56       0.3649
    124  OE1      -29.0190  -12.3070   26.7240 O.co2  56  GLU56      -0.2457
    125  OE2      -28.1420  -10.3060   26.9110 O.co2  56  GLU56      -0.2457
    126  N        -15.5560    1.2990   42.0600 N.3    67  SER67      -0.1217
    127  CA       -14.7750    2.1780   41.2220 C.3    67  SER67       0.1889
    128  C        -15.4790    3.5230   41.1480 C.2    67  SER67       0.2288
    129  O        -16.6530    3.6400   41.4880 O.2    67  SER67      -0.2866
    130  CB       -14.6410    1.5910   39.8200 C.3    67  SER67       0.2089
    131  OG       -14.1140    2.5490   38.9290 O.3    67  SER67      -0.2183
    132  N        -16.3200    4.9860   38.4880 N.3    69  LYS69      -0.1231
    133  CA       -17.3320    4.7760   37.4460 C.3    69  LYS69       0.1693
    134  C        -18.5280    3.9600   37.9320 C.2    69  LYS69       0.2593
    135  O        -19.6410    4.0920   37.4230 O.2    69  LYS69      -0.2718
    136  CB       -16.7070    4.0610   36.2390 C.3    69  LYS69       0.0285
    137  CG       -16.1660    4.9860   35.1800 C.3    69  LYS69       0.0035
    138  CD       -17.2590    5.9340   34.6860 C.3    69  LYS69       0.0206
    139  CE       -17.1660    6.2050   33.1930 C.3    69  LYS69       0.1093
    140  NZ       -18.1830    7.2170   32.7500 N.3    69  LYS69      -0.1314
    141  N        -18.2740    3.1010   38.9100 N.am   70  GLY70      -0.1942
    142  CA       -19.2490    2.1440   39.3910 C.3    70  GLY70       0.2014
    143  C        -18.4710    1.0610   40.0840 C.2    70  GLY70       0.2639
    144  O        -17.4640    1.3500   40.6810 O.2    70  GLY70      -0.2714
    145  N        -18.9200   -0.1840   39.9950 N.am   71  PHE71      -0.1959
    146  CA       -18.1230   -1.3090   40.4490 C.3    71  PHE71       0.1771
    147  C        -17.3080   -1.8520   39.2750 C.2    71  PHE71       0.2619
    148  O        -17.7140   -1.7360   38.1350 O.2    71  PHE71      -0.2715
    149  CB       -19.0170   -2.3850   41.0330 C.3    71  PHE71       0.0574
    150  CG       -19.6640   -1.9860   42.3120 C.ar   71  PHE71      -0.0200
    151  CD1      -18.9910   -2.1520   43.5210 C.ar   71  PHE71      -0.0042
    152  CD2      -20.9230   -1.4220   42.3240 C.ar   71  PHE71      -0.0042
    153  CE1      -19.5850   -1.7740   44.7180 C.ar   71  PHE71      -0.0003
    154  CE2      -21.5170   -1.0230   43.5240 C.ar   71  PHE71      -0.0003
    155  CZ       -20.8500   -1.2010   44.7150 C.ar   71  PHE71      -0.0000
    156  N        -16.1570   -2.4290   39.5610 N.am   72  GLU72      -0.1977
    157  CA       -15.3280   -2.9860   38.5300 C.3    72  GLU72       0.1602
    158  C        -14.9130   -4.3740   38.9160 C.2    72  GLU72       0.2287
    159  O        -14.4550   -4.5720   40.0370 O.2    72  GLU72      -0.2864
    160  CB       -14.1180   -2.1120   38.3860 C.3    72  GLU72       0.0415
    161  CG       -13.1900   -2.5430   37.3360 C.3    72  GLU72       0.1163
    162  CD       -11.8760   -1.8340   37.4740 C.2    72  GLU72       0.3649
    163  OE1      -11.6760   -1.1720   38.5120 O.co2  72  GLU72      -0.2457
    164  OE2      -11.0570   -1.9540   36.5620 O.co2  72  GLU72      -0.2457
@<TRIPOS>BOND
     1    41    40    2
     2    43    44    1
     3    42    40   am
     4    40    39    1
     5    50    49    1
     6    48    47    1
     7    48    49    1
     8    44    47    1
     9    44    45    1
    10    37    38    2
    11    37    36    1
    12    39    36    1
    13    45    46    2
    14    36    35    1
    15    27    26    2
    16    35    26   am
    17    26    25    1
    18    30    32   ar
    19    30    29   ar
    20    32    34   ar
    21    59    57   ar
    22    59    61   ar
    23    51    52    1
    24   124   123   ar
    25    22    20   ar
    26    22    23   ar
    27   125   123   ar
    28    57    56   ar
    29    54    53    2
    30    20    17   ar
    31    25    28    1
    32    25    24    1
    33   123   122    1
    34    61    60   ar
    35    28    29    1
    36    29    31   ar
    37    34    33   ar
    38    24    12   am
    39    23    21   ar
    40   121   122    1
    41   121   118    1
    42   117   118    1
    43    52    53    1
    44    52    55    1
    45   101   100   ar
    46   101    99   ar
    47    56    55    1
    48    56    58   ar
    49    17    15   ar
    50    17    19   ar
    51    14    15    1
    52    14    11    1
    53    60    58   ar
    54   100    98   ar
    55    31    33   ar
    56    21    19   ar
    57   118   119    1
    58    12    11    1
    59    12    13    2
    60    15    16   ar
    61    19    18   ar
    62   120   119    2
    63    99    97   ar
    64    11    10    1
    65   102   103    1
    66    98    97   ar
    67    16    18   ar
    68   103   106    1
    69   103   104    1
    70    97    96    1
    71     4     3    2
    72   106   107    1
    73    10     3   am
    74    94    93    1
    75    94    95    2
    76     3     2    1
    77    93    96    1
    78    93    92    1
    79   104   105    2
    80   104   108   am
    81    62    63    1
    82    89    91   ar
    83    89    87   ar
    84    91    90   ar
    85   108   109    1
    86    70    68   ar
    87    70    72   ar
    88    68    67   ar
    89     2     1    1
    90     2     5    1
    91    87    86   ar
    92   140   139    1
    93     6     5    1
    94     6     7    1
    95    65    64    2
    96    90    88   ar
    97    63    66    1
    98    63    64    1
    99   139   138    1
   100    72    71   ar
   101    67    66    1
   102    67    69   ar
   103   110   109    1
   104   110   111    2
   105   109   112    1
   106     8     7    1
   107     8     9    1
   108    86    88   ar
   109    86    85    1
   110   112   113    1
   111   113   114    1
   112    71    69   ar
   113   138   137    1
   114   114   115    1
   115    83    82    1
   116    83    84    2
   117   115   116    1
   118    85    82    1
   119    82    81    1
   120   137   136    1
   121    80    78   ar
   122   136   133    1
   123    78    79   ar
   124    78    77    1
   125   164   162   ar
   126    77    74    1
   127   161   162    1
   128   161   160    1
   129   135   134    2
   130   133   134    1
   131   133   132    1
   132   162   163   ar
   133   134   141   am
   134   148   147    2
   135    74    75    1
   136    74    73    1
   137   160   157    1
   138    75    76    2
   139   157   158    1
   140   157   156    1
   141   141   142    1
   142   158   159    2
   143   131   130    1
   144   147   156   am
   145   147   146    1
   146   142   143    1
   147   130   127    1
   148   145   143   am
   149   145   146    1
   150   143   144    2
   151   146   149    1
   152   149   150    1
   153   128   127    1
   154   128   129    2
   155   127   126    1
   156   150   152   ar
   157   150   151   ar
   158   152   154   ar
   159   151   153   ar
   160   154   155   ar
   161   155   153   ar
