@<TRIPOS>MOLECULE
tmp/4a79A01.pdb
 187 183 0 0 0
SMALL
GASTEIGER

@<TRIPOS>ATOM
      1  N         60.3510  152.9250   22.7710 N.3    58  TYR58      -0.1241
      2  CA        60.8020  153.3440   24.1040 C.3    58  TYR58       0.1605
      3  C         61.2250  152.2070   25.0150 C.2    58  TYR58       0.2264
      4  O         60.5990  151.1500   25.0410 O.2    58  TYR58      -0.2867
      5  CB        59.7380  154.2110   24.7960 C.3    58  TYR58       0.0534
      6  CG        59.3070  155.3670   23.9250 C.ar   58  TYR58      -0.0201
      7  CD1       60.1860  156.4170   23.6450 C.ar   58  TYR58      -0.0009
      8  CD2       58.0420  155.3880   23.3400 C.ar   58  TYR58      -0.0009
      9  CE1       59.8080  157.4750   22.8150 C.ar   58  TYR58       0.0417
     10  CE2       57.6560  156.4360   22.5000 C.ar   58  TYR58       0.0417
     11  CZ        58.5430  157.4730   22.2470 C.ar   58  TYR58       0.1957
     12  OH        58.1720  158.5120   21.4200 O.3    58  TYR58      -0.2866
     13  N         55.3940  164.1480   36.8570 N.3   100  PRO100     -0.2102
     14  CA        54.6370  163.1830   36.0620 C.3   100  PRO100      0.1504
     15  C         53.1210  163.4090   36.0800 C.2   100  PRO100      0.2576
     16  O         52.4320  162.9360   35.1690 O.2   100  PRO100     -0.2718
     17  CB        54.9960  161.8370   36.6990 C.3   100  PRO100      0.0282
     18  CG        55.4080  162.1730   38.1010 C.3   100  PRO100      0.0208
     19  CD        56.0180  163.5360   38.0490 C.3   100  PRO100      0.0893
     20  N         52.6200  164.1390   37.0800 N.am  101  PHE101     -0.1963
     21  CA        51.1700  164.3240   37.2700 C.3   101  PHE101      0.1756
     22  C         50.6770  165.7050   36.8370 C.2   101  PHE101      0.2461
     23  O         51.1550  166.7190   37.3490 O.2   101  PHE101     -0.2730
     24  CB        50.7560  164.0930   38.7390 C.3   101  PHE101      0.0574
     25  CG        51.2950  162.8190   39.3540 C.ar  101  PHE101     -0.0200
     26  CD1       51.2430  161.6070   38.6660 C.ar  101  PHE101     -0.0042
     27  CD2       51.8490  162.8390   40.6360 C.ar  101  PHE101     -0.0042
     28  CE1       51.7420  160.4370   39.2360 C.ar  101  PHE101     -0.0003
     29  CE2       52.3460  161.6700   41.2190 C.ar  101  PHE101     -0.0003
     30  CZ        52.2930  160.4680   40.5130 C.ar  101  PHE101     -0.0000
     31  N         49.7010  165.7530   35.9040 N.am  102  PRO102     -0.2727
     32  CA        49.0680  167.0250   35.5520 C.3   102  PRO102      0.1402
     33  C         48.4900  167.6980   36.8020 C.2   102  PRO102      0.2269
     34  O         47.8930  167.0170   37.6330 O.2   102  PRO102     -0.2865
     35  CB        47.9380  166.6050   34.6060 C.3   102  PRO102      0.0296
     36  CG        48.3870  165.3240   34.0250 C.3   102  PRO102      0.0237
     37  CD        49.1380  164.6330   35.1280 C.3   102  PRO102      0.0939
     38  N         44.1520  156.9490   40.9790 N.3   117  TRP117     -0.1241
     39  CA        45.4520  156.3110   40.7240 C.3   117  TRP117      0.1605
     40  C         45.8570  155.3650   41.8570 C.2   117  TRP117      0.2264
     41  O         46.3640  154.2580   41.6150 O.2   117  TRP117     -0.2867
     42  CB        46.5390  157.3660   40.4550 C.3   117  TRP117      0.0550
     43  CG        46.1170  158.3340   39.4150 C.ar  117  TRP117      0.0003
     44  CD1       45.9370  159.6800   39.5670 C.ar  117  TRP117      0.0946
     45  CD2       45.7660  158.0290   38.0580 C.ar  117  TRP117      0.0152
     46  NE1       45.5080  160.2340   38.3830 N.ar  117  TRP117     -0.2442
     47  CE2       45.3850  159.2430   37.4440 C.ar  117  TRP117      0.0810
     48  CE3       45.7390  156.8460   37.3020 C.ar  117  TRP117      0.0012
     49  CZ2       44.9860  159.3120   36.1020 C.ar  117  TRP117      0.0191
     50  CZ3       45.3360  156.9140   35.9670 C.ar  117  TRP117      0.0001
     51  CH2       44.9650  158.1390   35.3830 C.ar  117  TRP117      0.0015
     52  N         40.5360  161.9080   32.3350 N.3   162  LEU162     -0.1245
     53  CA        41.9630  161.5990   32.3130 C.3   162  LEU162      0.1561
     54  C         42.1790  160.0890   32.3920 C.2   162  LEU162      0.2260
     55  O         43.0580  159.5500   31.7170 O.2   162  LEU162     -0.2867
     56  CB        42.7110  162.3230   33.4510 C.3   162  LEU162      0.0270
     57  CG        44.2450  162.1900   33.4510 C.3   162  LEU162      0.0019
     58  CD1       44.8550  162.6590   32.1280 C.3   162  LEU162      0.0001
     59  CD2       44.8910  162.9210   34.6430 C.3   162  LEU162      0.0001
     60  N         41.6110  158.5890   28.8860 N.3   165  LEU165     -0.1231
     61  CA        42.8090  158.8120   28.0780 C.3   165  LEU165      0.1693
     62  C         43.9200  157.8350   28.4980 C.2   165  LEU165      0.2592
     63  O         44.5560  157.2020   27.6540 O.2   165  LEU165     -0.2718
     64  CB        43.2560  160.2860   28.2070 C.3   165  LEU165      0.0284
     65  CG        44.3780  160.7950   27.2920 C.3   165  LEU165      0.0019
     66  CD1       44.3160  162.3260   27.1810 C.3   165  LEU165      0.0001
     67  CD2       45.7360  160.3570   27.8150 C.3   165  LEU165      0.0001
     68  N         44.1220  157.6970   29.8060 N.am  166  PHE166     -0.1976
     69  CA        45.0910  156.7360   30.3670 C.3   166  PHE166      0.1639
     70  C         44.9070  155.3130   29.8250 C.2   166  PHE166      0.2290
     71  O         45.8750  154.6820   29.3850 O.2   166  PHE166     -0.2864
     72  CB        45.0000  156.7790   31.9000 C.3   166  PHE166      0.0560
     73  CG        45.7910  155.7150   32.6110 C.ar  166  PHE166     -0.0200
     74  CD1       47.1800  155.7980   32.7050 C.ar  166  PHE166     -0.0042
     75  CD2       45.1360  154.6640   33.2510 C.ar  166  PHE166     -0.0042
     76  CE1       47.9110  154.8170   33.3950 C.ar  166  PHE166     -0.0003
     77  CE2       45.8610  153.6790   33.9470 C.ar  166  PHE166     -0.0003
     78  CZ        47.2460  153.7620   34.0110 C.ar  166  PHE166     -0.0000
     79  N         45.5870  155.1350   25.9720 N.3   169  LEU169     -0.1231
     80  CA        47.0100  155.3040   25.6670 C.3   169  LEU169      0.1693
     81  C         47.8670  154.1000   26.0810 C.2   169  LEU169      0.2592
     82  O         48.8440  153.7600   25.3930 O.2   169  LEU169     -0.2718
     83  CB        47.5310  156.5800   26.3340 C.3   169  LEU169      0.0284
     84  CG        48.9840  156.9950   26.1230 C.3   169  LEU169      0.0019
     85  CD1       49.3250  157.0850   24.6190 C.3   169  LEU169      0.0001
     86  CD2       49.2190  158.3350   26.8130 C.3   169  LEU169      0.0001
     87  N         47.4990  153.4590   27.1880 N.am  170  CYS170     -0.1970
     88  CA        48.2110  152.2710   27.6660 C.3   170  CYS170      0.1712
     89  C         47.9930  151.0620   26.7660 C.2   170  CYS170      0.2296
     90  O         48.9370  150.3150   26.4950 O.2   170  CYS170     -0.2864
     91  CB        47.7610  151.8970   29.0820 C.3   170  CYS170      0.0983
     92  SG        48.5030  152.8800   30.4050 S.3   170  CYS170     -0.0798
     93  N         51.0320  152.5430   38.2130 N.3   193  THR193     -0.1218
     94  CA        50.5900  153.7210   37.4590 C.3   193  THR193      0.1862
     95  C         51.7270  154.7020   37.1790 C.2   193  THR193      0.2287
     96  O         51.9150  155.1060   36.0410 O.2   193  THR193     -0.2866
     97  CB        49.4100  154.4490   38.1320 C.3   193  THR193      0.1770
     98  OG1       49.7540  154.8080   39.4780 O.3   193  THR193     -0.2211
     99  CG2       48.1620  153.5620   38.1430 C.3   193  THR193      0.0375
    100  N         54.3430  153.2900   34.5890 N.3   196  ILE196     -0.1231
    101  CA        53.8740  153.1320   33.2110 C.3   196  ILE196      0.1692
    102  C         53.7050  154.4650   32.4700 C.2   196  ILE196      0.2591
    103  O         53.9550  154.5390   31.2700 O.2   196  ILE196     -0.2718
    104  CB        52.6080  152.2280   33.1080 C.3   196  ILE196      0.0266
    105  CG1       52.4880  151.6150   31.7060 C.3   196  ILE196      0.0019
    106  CG2       51.3240  152.9760   33.5610 C.3   196  ILE196      0.0020
    107  CD1       51.4140  150.5110   31.6170 C.3   196  ILE196      0.0001
    108  N         53.3200  155.5130   33.1930 N.am  197  ILE197     -0.1980
    109  CA        53.0690  156.8220   32.5810 C.3   197  ILE197      0.1595
    110  C         54.2910  157.7260   32.4770 C.2   197  ILE197      0.2287
    111  O         54.2340  158.7670   31.8100 O.2   197  ILE197     -0.2864
    112  CB        51.9820  157.6190   33.3400 C.3   197  ILE197      0.0276
    113  CG1       52.4800  158.0150   34.7370 C.3   197  ILE197      0.0022
    114  CG2       50.7020  156.8200   33.4250 C.3   197  ILE197      0.0022
    115  CD1       52.3250  159.4660   35.0380 C.3   197  ILE197      0.0001
    116  N         58.9160  155.4350   29.2190 N.3   204  GLN204     -0.1245
    117  CA        59.2380  156.2520   28.0450 C.3   204  GLN204      0.1566
    118  C         60.5540  157.0320   28.1590 C.2   204  GLN204      0.2260
    119  O         60.7690  157.9810   27.4140 O.2   204  GLN204     -0.2867
    120  CB        58.0670  157.1910   27.7020 C.3   204  GLN204      0.0367
    121  CG        56.8750  156.4690   27.0640 C.3   204  GLN204      0.0905
    122  CD        56.1610  155.5400   28.0360 C.2   204  GLN204      0.2608
    123  OE1       56.0940  154.3240   27.8230 O.2   204  GLN204     -0.2717
    124  NE2       55.6440  156.1050   29.1180 N.am  204  GLN204     -0.0878
    125  N         49.4910  166.0720   26.4410 N.3   314  ILE314     -0.1245
    126  CA        48.4350  165.1610   26.8390 C.3   314  ILE314      0.1561
    127  C         47.1310  165.8740   26.4760 C.2   314  ILE314      0.2260
    128  O         46.7950  166.9030   27.0750 O.2   314  ILE314     -0.2867
    129  CB        48.5270  164.8570   28.3600 C.3   314  ILE314      0.0252
    130  CG1       49.8760  164.1860   28.6900 C.3   314  ILE314      0.0019
    131  CG2       47.3570  163.9900   28.8220 C.3   314  ILE314      0.0019
    132  CD1       50.3710  164.4580   30.1100 C.3   314  ILE314      0.0001
    133  N         48.2390  162.0190   22.5640 N.3   324  TYR324     -0.1241
    134  CA        49.5500  162.0250   23.2290 C.3   324  TYR324      0.1605
    135  C         50.6950  162.2050   22.2530 C.2   324  TYR324      0.2264
    136  O         50.7410  161.5520   21.2060 O.2   324  TYR324     -0.2867
    137  CB        49.7690  160.7090   23.9700 C.3   324  TYR324      0.0534
    138  CG        50.9290  160.6940   24.9530 C.ar  324  TYR324     -0.0201
    139  CD1       50.9170  161.5170   26.0840 C.ar  324  TYR324     -0.0009
    140  CD2       52.0070  159.8250   24.7750 C.ar  324  TYR324     -0.0009
    141  CE1       51.9560  161.4970   27.0050 C.ar  324  TYR324      0.0417
    142  CE2       53.0680  159.7880   25.6990 C.ar  324  TYR324      0.0417
    143  CZ        53.0260  160.6280   26.8130 C.ar  324  TYR324      0.1957
    144  OH        54.0400  160.6030   27.7460 O.3   324  TYR324     -0.2866
    145  N         55.2260  162.9670   22.0720 N.3   326  LEU326     -0.1245
    146  CA        56.5550  163.1380   22.6740 C.3   326  LEU326      0.1561
    147  C         57.4990  163.7770   21.6360 C.2   326  LEU326      0.2260
    148  O         57.3300  163.5740   20.4310 O.2   326  LEU326     -0.2867
    149  CB        57.1190  161.7870   23.1250 C.3   326  LEU326      0.0270
    150  CG        56.4180  161.1110   24.3080 C.3   326  LEU326      0.0019
    151  CD1       56.8520  159.6550   24.4400 C.3   326  LEU326      0.0001
    152  CD2       56.6890  161.8820   25.6010 C.3   326  LEU326      0.0001
    153  N         50.3530  159.6590   18.7080 N.3   341  PHE341     -0.1241
    154  CA        49.5440  158.4600   18.5340 C.3   341  PHE341      0.1605
    155  C         48.0860  158.8210   18.2420 C.2   341  PHE341      0.2264
    156  O         47.4910  159.6390   18.9560 O.2   341  PHE341     -0.2867
    157  CB        49.5460  157.5940   19.8060 C.3   341  PHE341      0.0534
    158  CG        50.8600  156.9230   20.1190 C.ar  341  PHE341     -0.0203
    159  CD1       51.4960  156.1080   19.1890 C.ar  341  PHE341     -0.0042
    160  CD2       51.4390  157.0820   21.3780 C.ar  341  PHE341     -0.0042
    161  CE1       52.7160  155.4770   19.4960 C.ar  341  PHE341     -0.0003
    162  CE2       52.6490  156.4530   21.6990 C.ar  341  PHE341     -0.0003
    163  CZ        53.2820  155.6410   20.7510 C.ar  341  PHE341     -0.0000
    164  N         49.5240  148.2950   20.4220 N.3   396  TYR396     -0.1241
    165  CA        50.8490  147.7070   20.7120 C.3   396  TYR396      0.1605
    166  C         50.7810  146.2090   20.9500 C.2   396  TYR396      0.2264
    167  O         51.7430  145.4720   20.6670 O.2   396  TYR396     -0.2867
    168  CB        51.4310  148.3110   21.9950 C.3   396  TYR396      0.0534
    169  CG        51.1020  149.7720   22.2340 C.ar  396  TYR396     -0.0201
    170  CD1       51.4100  150.7450   21.2810 C.ar  396  TYR396     -0.0009
    171  CD2       50.5180  150.1840   23.4430 C.ar  396  TYR396     -0.0009
    172  CE1       51.1060  152.0900   21.5060 C.ar  396  TYR396      0.0417
    173  CE2       50.2220  151.5160   23.6710 C.ar  396  TYR396      0.0417
    174  CZ        50.5270  152.4630   22.7050 C.ar  396  TYR396      0.1957
    175  OH        50.2410  153.7900   22.9220 O.3   396  TYR396     -0.2866
    176  N         55.4140  144.8400   25.8260 N.3   433  TYR433     -0.1241
    177  CA        56.5960  145.6510   25.5030 C.3   433  TYR433      0.1605
    178  C         57.7320  144.8140   24.9120 C.2   433  TYR433      0.2264
    179  O         57.7110  143.5750   24.9740 O.2   433  TYR433     -0.2867
    180  CB        57.1010  146.3580   26.7810 C.3   433  TYR433      0.0534
    181  CG        56.1510  147.4110   27.3310 C.ar  433  TYR433     -0.0201
    182  CD1       54.9630  147.0420   27.9680 C.ar  433  TYR433     -0.0009
    183  CD2       56.4510  148.7770   27.2170 C.ar  433  TYR433     -0.0009
    184  CE1       54.0840  148.0010   28.4690 C.ar  433  TYR433      0.0417
    185  CE2       55.5870  149.7440   27.7190 C.ar  433  TYR433      0.0417
    186  CZ        54.4050  149.3430   28.3410 C.ar  433  TYR433      0.1957
    187  OH        53.5400  150.2790   28.8220 O.3   433  TYR433     -0.2866
@<TRIPOS>BOND
     1   155   154    1
     2   155   156    2
     3   154   153    1
     4   154   157    1
     5   159   161   ar
     6   159   158   ar
     7   161   163   ar
     8   157   158    1
     9   158   160   ar
    10   164   165    1
    11   148   147    2
    12   167   166    2
    13   165   166    1
    14   165   168    1
    15   163   162   ar
    16   136   135    2
    17   170   172   ar
    18   170   169   ar
    19   160   162   ar
    20    12    11    1
    21   172   174   ar
    22   147   146    1
    23   168   169    1
    24   145   146    1
    25   169   171   ar
    26    11    10   ar
    27    11     9   ar
    28   135   134    1
    29    10     8   ar
    30   133   134    1
    31   146   149    1
    32   174   175    1
    33   174   173   ar
    34     1     2    1
    35     9     7   ar
    36   149   150    1
    37   134   137    1
    38     8     6   ar
    39   171   173   ar
    40     7     6   ar
    41     6     5    1
    42   137   138    1
    43     2     5    1
    44     2     3    1
    45   150   151    1
    46   150   152    1
    47    85    84    1
    48   140   138   ar
    49   140   142   ar
    50   178   179    2
    51   178   177    1
    52   138   139   ar
    53     3     4    2
    54    82    81    2
    55   177   176    1
    56   177   180    1
    57    80    79    1
    58    80    81    1
    59    80    83    1
    60   142   143   ar
    61    81    87   am
    62   139   141   ar
    63    84    83    1
    64    84    86    1
    65   125   126    1
    66   127   126    1
    67   127   128    2
    68    90    89    2
    69    89    88    1
    70   180   181    1
    71   143   141   ar
    72   143   144    1
    73   126   129    1
    74   121   120    1
    75   121   122    1
    76    66    65    1
    77    87    88    1
    78   183   181   ar
    79   183   185   ar
    80    65    67    1
    81    65    64    1
    82   181   182   ar
    83   119   118    2
    84    63    62    2
    85    88    91    1
    86   120   117    1
    87   185   186   ar
    88   123   122    2
    89   182   184   ar
    90   122   124   am
    91   117   118    1
    92   117   116    1
    93    61    64    1
    94    61    62    1
    95    61    60    1
    96   186   184   ar
    97   186   187    1
    98   129   130    1
    99   129   131    1
   100    62    68   am
   101   130   132    1
   102    91    92    1
   103    71    70    2
   104    68    69    1
   105    70    69    1
   106    69    72    1
   107   103   102    2
   108   107   105    1
   109   105   104    1
   110    55    54    2
   111   111   110    2
   112    72    73    1
   113    58    57    1
   114    53    52    1
   115    53    54    1
   116    53    56    1
   117   102   108   am
   118   102   101    1
   119   110   109    1
   120   109   108    1
   121   109   112    1
   122    73    74   ar
   123    73    75   ar
   124    74    76   ar
   125   104   101    1
   126   104   106    1
   127   101   100    1
   128    75    77   ar
   129   112   114    1
   130   112   113    1
   131    76    78   ar
   132    57    56    1
   133    57    59    1
   134    77    78   ar
   135    36    35    1
   136    36    37    1
   137    35    32    1
   138   113   115    1
   139    37    31    1
   140    16    15    2
   141    51    50   ar
   142    51    49   ar
   143    32    31    1
   144    32    33    1
   145    31    22   am
   146    50    48   ar
   147    96    95    2
   148    14    15    1
   149    14    17    1
   150    14    13    1
   151    15    20   am
   152    49    47   ar
   153    17    18    1
   154    33    34    2
   155    22    21    1
   156    22    23    2
   157    13    19    1
   158    20    21    1
   159    95    94    1
   160    21    24    1
   161    48    45   ar
   162    47    45   ar
   163    47    46   ar
   164    94    97    1
   165    94    93    1
   166    19    18    1
   167    45    43   ar
   168    97    99    1
   169    97    98    1
   170    46    44   ar
   171    26    28   ar
   172    26    25   ar
   173    24    25    1
   174    28    30   ar
   175    25    27   ar
   176    43    44   ar
   177    43    42    1
   178    42    39    1
   179    30    29   ar
   180    27    29   ar
   181    39    38    1
   182    39    40    1
   183    41    40    2
