@<TRIPOS>MOLECULE
tmp/4a7aA01.pdb
 169 164 0 0 0
SMALL
GASTEIGER

@<TRIPOS>ATOM
      1  N         60.1890  152.5950   22.6670 N.3    58  TYR58      -0.1241
      2  CA        60.6350  153.0350   23.9950 C.3    58  TYR58       0.1605
      3  C         61.0760  151.8960   24.8930 C.2    58  TYR58       0.2264
      4  O         60.4770  150.8190   24.8870 O.2    58  TYR58      -0.2867
      5  CB        59.5620  153.9000   24.6840 C.3    58  TYR58       0.0534
      6  CG        59.1520  155.0670   23.8160 C.ar   58  TYR58      -0.0201
      7  CD1       60.0350  156.1280   23.5810 C.ar   58  TYR58      -0.0009
      8  CD2       57.9140  155.0850   23.1770 C.ar   58  TYR58      -0.0009
      9  CE1       59.6840  157.1880   22.7440 C.ar   58  TYR58       0.0417
     10  CE2       57.5530  156.1380   22.3370 C.ar   58  TYR58       0.0417
     11  CZ        58.4420  157.1810   22.1250 C.ar   58  TYR58       0.1957
     12  OH        58.0890  158.2150   21.2970 O.3    58  TYR58      -0.2866
     13  N         55.0280  163.5600   36.4610 N.3   100  PRO100     -0.2116
     14  CA        54.3910  162.6170   35.5320 C.3   100  PRO100      0.1372
     15  C         52.8720  162.7610   35.4010 C.2   100  PRO100      0.2244
     16  O         52.3240  162.4700   34.3310 O.2   100  PRO100     -0.2868
     17  CB        54.7550  161.2420   36.1070 C.3   100  PRO100      0.0268
     18  CG        55.0910  161.4880   37.5310 C.3   100  PRO100      0.0207
     19  CD        55.6710  162.8690   37.5960 C.3   100  PRO100      0.0892
     20  N         49.3670  165.0780   35.3940 N.3   102  PRO102     -0.2116
     21  CA        48.8810  166.4590   35.2890 C.3   102  PRO102      0.1372
     22  C         48.2210  166.9180   36.5940 C.2   102  PRO102      0.2244
     23  O         47.3960  166.1870   37.1470 O.2   102  PRO102     -0.2868
     24  CB        47.8630  166.4090   34.1430 C.3   102  PRO102      0.0268
     25  CG        47.5880  164.9850   33.8960 C.3   102  PRO102      0.0207
     26  CD        48.7570  164.1910   34.3890 C.3   102  PRO102      0.0892
     27  N         44.1210  156.7600   40.8070 N.3   117  TRP117     -0.1241
     28  CA        45.4180  156.1360   40.5640 C.3   117  TRP117      0.1605
     29  C         45.7720  155.1690   41.6960 C.2   117  TRP117      0.2264
     30  O         46.2290  154.0490   41.4530 O.2   117  TRP117     -0.2867
     31  CB        46.5100  157.1960   40.3930 C.3   117  TRP117      0.0550
     32  CG        46.2780  158.1570   39.2540 C.ar  117  TRP117      0.0003
     33  CD1       45.8970  159.4670   39.3510 C.ar  117  TRP117      0.0946
     34  CD2       46.4340  157.8900   37.8500 C.ar  117  TRP117      0.0152
     35  NE1       45.8030  160.0310   38.0990 N.ar  117  TRP117     -0.2442
     36  CE2       46.1270  159.0870   37.1590 C.ar  117  TRP117      0.0810
     37  CE3       46.8020  156.7560   37.1110 C.ar  117  TRP117      0.0012
     38  CZ2       46.1780  159.1860   35.7610 C.ar  117  TRP117      0.0191
     39  CZ3       46.8540  156.8550   35.7140 C.ar  117  TRP117      0.0001
     40  CH2       46.5430  158.0640   35.0570 C.ar  117  TRP117      0.0015
     41  N         40.3700  161.6110   32.1700 N.3   162  LEU162     -0.1245
     42  CA        41.8050  161.3050   32.1650 C.3   162  LEU162      0.1561
     43  C         42.0540  159.7970   32.2500 C.2   162  LEU162      0.2260
     44  O         42.9450  159.2780   31.5850 O.2   162  LEU162     -0.2867
     45  CB        42.5380  162.0410   33.3020 C.3   162  LEU162      0.0270
     46  CG        44.0690  161.9570   33.2900 C.3   162  LEU162      0.0019
     47  CD1       44.6630  162.5160   31.9870 C.3   162  LEU162      0.0001
     48  CD2       44.6580  162.6680   34.5030 C.3   162  LEU162      0.0001
     49  N         41.5120  158.2700   28.8050 N.3   165  LEU165     -0.1231
     50  CA        42.6960  158.4900   27.9800 C.3   165  LEU165      0.1693
     51  C         43.8080  157.5120   28.3850 C.2   165  LEU165      0.2592
     52  O         44.4260  156.8860   27.5250 O.2   165  LEU165     -0.2718
     53  CB        43.1550  159.9550   28.0790 C.3   165  LEU165      0.0284
     54  CG        44.2310  160.4530   27.1020 C.3   165  LEU165      0.0019
     55  CD1       44.1090  161.9570   26.9120 C.3   165  LEU165      0.0001
     56  CD2       45.6530  160.0840   27.5470 C.3   165  LEU165      0.0001
     57  N         44.0380  157.3810   29.6940 N.am  166  PHE166     -0.1976
     58  CA        44.9990  156.4170   30.2570 C.3   166  PHE166      0.1639
     59  C         44.8070  154.9990   29.6940 C.2   166  PHE166      0.2290
     60  O         45.7700  154.3700   29.2390 O.2   166  PHE166     -0.2864
     61  CB        44.8900  156.4420   31.7910 C.3   166  PHE166      0.0560
     62  CG        45.6690  155.3670   32.5040 C.ar  166  PHE166     -0.0200
     63  CD1       47.0570  155.3180   32.4250 C.ar  166  PHE166     -0.0042
     64  CD2       45.0100  154.4400   33.3110 C.ar  166  PHE166     -0.0042
     65  CE1       47.7850  154.3280   33.1200 C.ar  166  PHE166     -0.0003
     66  CE2       45.7250  153.4480   34.0080 C.ar  166  PHE166     -0.0003
     67  CZ        47.1140  153.3910   33.9020 C.ar  166  PHE166     -0.0000
     68  N         45.4560  154.8480   25.8230 N.3   169  LEU169     -0.1231
     69  CA        46.8700  155.0270   25.4700 C.3   169  LEU169      0.1693
     70  C         47.7220  153.8150   25.8420 C.2   169  LEU169      0.2592
     71  O         48.6740  153.4720   25.1270 O.2   169  LEU169     -0.2718
     72  CB        47.4310  156.2790   26.1510 C.3   169  LEU169      0.0284
     73  CG        48.8870  156.6880   25.9070 C.3   169  LEU169      0.0019
     74  CD1       49.2240  156.7770   24.4160 C.3   169  LEU169      0.0001
     75  CD2       49.1310  158.0320   26.5810 C.3   169  LEU169      0.0001
     76  N         47.3890  153.1920   26.9690 N.am  170  CYS170     -0.1970
     77  CA        48.1070  152.0060   27.4390 C.3   170  CYS170      0.1712
     78  C         47.8890  150.7850   26.5400 C.2   170  CYS170      0.2296
     79  O         48.8420  150.0480   26.2500 O.2   170  CYS170     -0.2864
     80  CB        47.6900  151.6580   28.8720 C.3   170  CYS170      0.0983
     81  SG        48.4610  152.6830   30.1540 S.3   170  CYS170     -0.0798
     82  N         54.2480  152.9420   34.4160 N.3   196  ILE196     -0.1231
     83  CA        53.7720  152.7670   33.0460 C.3   196  ILE196      0.1692
     84  C         53.5770  154.1020   32.3090 C.2   196  ILE196      0.2591
     85  O         53.7880  154.1780   31.1010 O.2   196  ILE196     -0.2718
     86  CB        52.5140  151.8400   32.9660 C.3   196  ILE196      0.0266
     87  CG1       52.4030  151.2120   31.5730 C.3   196  ILE196      0.0019
     88  CG2       51.2240  152.5870   33.3720 C.3   196  ILE196      0.0020
     89  CD1       51.2890  150.1640   31.4450 C.3   196  ILE196      0.0001
     90  N         53.2040  155.1520   33.0450 N.am  197  ILE197     -0.1980
     91  CA        52.9130  156.4580   32.4390 C.3   197  ILE197      0.1595
     92  C         54.1070  157.3960   32.3590 C.2   197  ILE197      0.2287
     93  O         54.0280  158.4500   31.7150 O.2   197  ILE197     -0.2864
     94  CB        51.7620  157.2080   33.1770 C.3   197  ILE197      0.0276
     95  CG1       52.2290  157.7700   34.5260 C.3   197  ILE197      0.0022
     96  CG2       50.5530  156.3080   33.3190 C.3   197  ILE197      0.0022
     97  CD1       51.4560  158.9830   34.9960 C.3   197  ILE197      0.0001
     98  N         58.7750  155.1540   29.1020 N.3   204  GLN204     -0.1245
     99  CA        59.0950  155.9660   27.9250 C.3   204  GLN204      0.1566
    100  C         60.4020  156.7450   28.0460 C.2   204  GLN204      0.2260
    101  O         60.6120  157.7220   27.3270 O.2   204  GLN204     -0.2867
    102  CB        57.9330  156.9220   27.6060 C.3   204  GLN204      0.0367
    103  CG        56.7070  156.2200   27.0020 C.3   204  GLN204      0.0905
    104  CD        56.0330  155.2580   27.9630 C.2   204  GLN204      0.2608
    105  OE1       56.0210  154.0450   27.7390 O.2   204  GLN204     -0.2717
    106  NE2       55.4700  155.7920   29.0440 N.am  204  GLN204     -0.0878
    107  N         49.3640  165.7190   26.2550 N.3   314  ILE314     -0.1245
    108  CA        48.2930  164.8070   26.6640 C.3   314  ILE314      0.1561
    109  C         47.0040  165.5270   26.2830 C.2   314  ILE314      0.2260
    110  O         46.6510  166.5460   26.8790 O.2   314  ILE314     -0.2867
    111  CB        48.3570  164.4860   28.1900 C.3   314  ILE314      0.0252
    112  CG1       49.6640  163.7470   28.5230 C.3   314  ILE314      0.0019
    113  CG2       47.1370  163.6510   28.6270 C.3   314  ILE314      0.0019
    114  CD1       50.2150  164.0290   29.9120 C.3   314  ILE314      0.0001
    115  N         48.1590  161.6280   22.3760 N.3   324  TYR324     -0.1241
    116  CA        49.4500  161.6670   23.0600 C.3   324  TYR324      0.1605
    117  C         50.6040  161.8530   22.0980 C.2   324  TYR324      0.2264
    118  O         50.6550  161.1980   21.0520 O.2   324  TYR324     -0.2867
    119  CB        49.6690  160.3670   23.8330 C.3   324  TYR324      0.0534
    120  CG        50.8090  160.3920   24.8260 C.ar  324  TYR324     -0.0201
    121  CD1       50.7390  161.1720   25.9820 C.ar  324  TYR324     -0.0009
    122  CD2       51.9370  159.5910   24.6330 C.ar  324  TYR324     -0.0009
    123  CE1       51.7830  161.1700   26.9130 C.ar  324  TYR324      0.0417
    124  CE2       52.9870  159.5800   25.5580 C.ar  324  TYR324      0.0417
    125  CZ        52.8980  160.3660   26.6920 C.ar  324  TYR324      0.1957
    126  OH        53.9270  160.3470   27.6120 O.3   324  TYR324     -0.2866
    127  N         55.1270  162.6850   21.9300 N.3   326  LEU326     -0.1245
    128  CA        56.4590  162.8380   22.5170 C.3   326  LEU326      0.1561
    129  C         57.3960  163.4830   21.4980 C.2   326  LEU326      0.2260
    130  O         57.2320  163.3020   20.2990 O.2   326  LEU326     -0.2867
    131  CB        57.0280  161.4760   22.9340 C.3   326  LEU326      0.0270
    132  CG        56.3450  160.8120   24.1330 C.3   326  LEU326      0.0019
    133  CD1       56.7620  159.3470   24.2530 C.3   326  LEU326      0.0001
    134  CD2       56.6620  161.5810   25.4340 C.3   326  LEU326      0.0001
    135  N         50.2580  159.3170   18.5700 N.3   341  PHE341     -0.1241
    136  CA        49.4430  158.1200   18.3760 C.3   341  PHE341      0.1605
    137  C         47.9870  158.4740   18.0730 C.2   341  PHE341      0.2264
    138  O         47.3840  159.2940   18.7790 O.2   341  PHE341     -0.2867
    139  CB        49.4360  157.2590   19.6450 C.3   341  PHE341      0.0534
    140  CG        50.7470  156.5870   19.9590 C.ar  341  PHE341     -0.0203
    141  CD1       51.3560  155.7360   19.0440 C.ar  341  PHE341     -0.0042
    142  CD2       51.3580  156.7870   21.2000 C.ar  341  PHE341     -0.0042
    143  CE1       52.5710  155.0970   19.3530 C.ar  341  PHE341     -0.0003
    144  CE2       52.5600  156.1470   21.5200 C.ar  341  PHE341     -0.0003
    145  CZ        53.1620  155.2990   20.5940 C.ar  341  PHE341     -0.0000
    146  N         49.4130  147.9680   20.2800 N.3   396  TYR396     -0.1241
    147  CA        50.7440  147.3820   20.5520 C.3   396  TYR396      0.1605
    148  C         50.6820  145.8840   20.7980 C.2   396  TYR396      0.2264
    149  O         51.6360  145.1530   20.5060 O.2   396  TYR396     -0.2867
    150  CB        51.3840  148.0180   21.8050 C.3   396  TYR396      0.0534
    151  CG        51.0190  149.4690   22.0500 C.ar  396  TYR396     -0.0201
    152  CD1       51.2820  150.4430   21.0880 C.ar  396  TYR396     -0.0009
    153  CD2       50.4340  149.8690   23.2550 C.ar  396  TYR396     -0.0009
    154  CE1       50.9480  151.7710   21.3010 C.ar  396  TYR396      0.0417
    155  CE2       50.0910  151.2080   23.4740 C.ar  396  TYR396      0.0417
    156  CZ        50.3600  152.1520   22.4880 C.ar  396  TYR396      0.1957
    157  OH        50.0400  153.4880   22.6710 O.3   396  TYR396     -0.2866
    158  N         55.3270  144.5470   25.6430 N.3   433  TYR433     -0.1241
    159  CA        56.5040  145.3660   25.3450 C.3   433  TYR433      0.1605
    160  C         57.6420  144.5300   24.7700 C.2   433  TYR433      0.2264
    161  O         57.6050  143.2930   24.8260 O.2   433  TYR433     -0.2867
    162  CB        56.9950  146.0410   26.6390 C.3   433  TYR433      0.0534
    163  CG        56.0610  147.1080   27.1710 C.ar  433  TYR433     -0.0201
    164  CD1       54.8690  146.7630   27.8150 C.ar  433  TYR433     -0.0009
    165  CD2       56.3790  148.4610   27.0420 C.ar  433  TYR433     -0.0009
    166  CE1       53.9940  147.7480   28.2980 C.ar  433  TYR433      0.0417
    167  CE2       55.5060  149.4580   27.5210 C.ar  433  TYR433      0.0417
    168  CZ        54.3250  149.0790   28.1510 C.ar  433  TYR433      0.1957
    169  OH        53.4680  150.0420   28.6230 O.3   433  TYR433     -0.2866
@<TRIPOS>BOND
     1   137   136    1
     2   137   138    2
     3   136   135    1
     4   136   139    1
     5   141   143   ar
     6   141   140   ar
     7   143   145   ar
     8   139   140    1
     9   140   142   ar
    10   146   147    1
    11   130   129    2
    12   149   148    2
    13   147   148    1
    14   147   150    1
    15   145   144   ar
    16   118   117    2
    17   152   154   ar
    18   152   151   ar
    19   142   144   ar
    20    12    11    1
    21   154   156   ar
    22   129   128    1
    23   150   151    1
    24   127   128    1
    25   151   153   ar
    26   117   116    1
    27    11    10   ar
    28    11     9   ar
    29    10     8   ar
    30   115   116    1
    31   156   157    1
    32   156   155   ar
    33   128   131    1
    34     1     2    1
    35     9     7   ar
    36   131   132    1
    37   116   119    1
    38     8     6   ar
    39   153   155   ar
    40     7     6   ar
    41     6     5    1
    42   119   120    1
    43     2     5    1
    44     2     3    1
    45   132   133    1
    46   132   134    1
    47    74    73    1
    48   122   120   ar
    49   122   124   ar
    50   160   161    2
    51   160   159    1
    52   120   121   ar
    53     4     3    2
    54    71    70    2
    55   159   158    1
    56   159   162    1
    57    69    68    1
    58    69    70    1
    59    69    72    1
    60   124   125   ar
    61    70    76   am
    62    73    72    1
    63    73    75    1
    64   121   123   ar
    65    79    78    2
    66   107   108    1
    67   109   108    1
    68   109   110    2
    69    78    77    1
    70   162   163    1
    71   108   111    1
    72   125   123   ar
    73   125   126    1
    74    55    54    1
    75    76    77    1
    76   103   102    1
    77   103   104    1
    78   165   163   ar
    79   165   167   ar
    80    54    56    1
    81    54    53    1
    82   163   164   ar
    83   101   100    2
    84    77    80    1
    85   167   168   ar
    86    52    51    2
    87   102    99    1
    88   105   104    2
    89   164   166   ar
    90    99   100    1
    91    99    98    1
    92   104   106   am
    93    50    53    1
    94    50    51    1
    95    50    49    1
    96   168   166   ar
    97   168   169    1
    98   111   112    1
    99   111   113    1
   100    51    57   am
   101   112   114    1
   102    80    81    1
   103    60    59    2
   104    59    58    1
   105    57    58    1
   106    58    61    1
   107    85    84    2
   108    89    87    1
   109    87    86    1
   110    44    43    2
   111    93    92    2
   112    61    62    1
   113    47    46    1
   114    42    41    1
   115    42    43    1
   116    42    45    1
   117    84    90   am
   118    84    83    1
   119    92    91    1
   120    63    62   ar
   121    63    65   ar
   122    91    90    1
   123    91    94    1
   124    62    64   ar
   125    86    83    1
   126    86    88    1
   127    83    82    1
   128    65    67   ar
   129    94    96    1
   130    94    95    1
   131    46    45    1
   132    46    48    1
   133    64    66   ar
   134    25    24    1
   135    25    26    1
   136    67    66   ar
   137    24    21    1
   138    16    15    2
   139    26    20    1
   140    95    97    1
   141    40    39   ar
   142    40    38   ar
   143    21    20    1
   144    21    22    1
   145    15    14    1
   146    14    17    1
   147    14    13    1
   148    39    37   ar
   149    38    36   ar
   150    17    18    1
   151    13    19    1
   152    22    23    2
   153    37    34   ar
   154    36    34   ar
   155    36    35   ar
   156    18    19    1
   157    34    32   ar
   158    35    33   ar
   159    32    33   ar
   160    32    31    1
   161    31    28    1
   162    28    27    1
   163    28    29    1
   164    30    29    2
