@<TRIPOS>MOLECULE
tmp/4a7bA00.pdb
 179 177 0 0 0
SMALL
GASTEIGER

@<TRIPOS>ATOM
      1  N         25.6370   13.6770   31.0930 N.3    76  ASP76      -0.1239
      2  CA        25.5500   15.0240   31.6900 C.3    76  ASP76       0.1674
      3  C         24.0830   15.4540   31.9060 C.2    76  ASP76       0.2266
      4  O         23.7780   16.6290   31.9550 O.2    76  ASP76      -0.2867
      5  CB        26.2800   15.9990   30.7600 C.3    76  ASP76       0.1410
      6  CG        25.7050   15.9640   29.3300 C.2    76  ASP76       0.3668
      7  OD1       24.8680   15.0680   28.9890 O.co2  76  ASP76      -0.2456
      8  OD2       26.0740   16.8520   28.5260 O.co2  76  ASP76      -0.2456
      9  N         23.0970   18.2770   25.6740 N.3    80  GLY80      -0.1210
     10  CA        24.5310   18.1470   25.8710 C.3    80  GLY80       0.1956
     11  C         25.0330   16.9440   25.0930 C.2    80  GLY80       0.2612
     12  O         24.7170   16.7860   23.8910 O.2    80  GLY80      -0.2717
     13  N         25.8420   16.1050   25.7410 N.am   81  LEU81      -0.1965
     14  CA        26.2290   14.8600   25.1080 C.3    81  LEU81       0.1728
     15  C         24.9710   13.9540   25.0310 C.2    81  LEU81       0.2616
     16  O         24.3180   13.7440   26.0500 O.2    81  LEU81      -0.2715
     17  CB        27.4050   14.1790   25.8540 C.3    81  LEU81       0.0311
     18  CG        27.9320   12.9040   25.1660 C.3    81  LEU81       0.0022
     19  CD1       28.5680   13.2150   23.8020 C.3    81  LEU81       0.0001
     20  CD2       28.9320   12.2230   26.1000 C.3    81  LEU81       0.0001
     21  N         24.6300   13.4850   23.8230 N.am   82  LEU82      -0.1963
     22  CA        23.4480   12.6280   23.5860 C.3    82  LEU82       0.1728
     23  C         23.8120   11.1560   23.7020 C.2    82  LEU82       0.2616
     24  O         23.0010   10.3520   24.1470 O.2    82  LEU82      -0.2715
     25  CB        22.8140   12.9120   22.2040 C.3    82  LEU82       0.0311
     26  CG        22.5110   14.3970   21.8750 C.3    82  LEU82       0.0022
     27  CD1       21.8880   14.5670   20.5150 C.3    82  LEU82       0.0001
     28  CD2       21.5780   14.9560   22.9420 C.3    82  LEU82       0.0001
     29  N         25.0630   10.8350   23.3250 N.am   83  ALA83      -0.1977
     30  CA        25.5130    9.4620   23.1560 C.3    83  ALA83       0.1597
     31  C         26.9560    9.5920   22.7340 C.2    83  ALA83       0.2287
     32  O         27.3690   10.6830   22.2660 O.2    83  ALA83      -0.2864
     33  CB        24.7220    8.7060   22.0550 C.3    83  ALA83       0.0319
     34  N         18.4520    7.9590   14.0160 N.3   115  LEU115     -0.1231
     35  CA        19.4750    8.9090   13.5290 C.3   115  LEU115      0.1693
     36  C         20.6900    9.0330   14.4460 C.2   115  LEU115      0.2591
     37  O         21.8040    9.0240   13.9700 O.2   115  LEU115     -0.2718
     38  CB        18.8800   10.3100   13.2280 C.3   115  LEU115      0.0284
     39  CG        17.8500   10.4260   12.0680 C.3   115  LEU115      0.0019
     40  CD1       17.0490   11.7390   12.1290 C.3   115  LEU115      0.0001
     41  CD2       18.5050   10.2430   10.6930 C.3   115  LEU115      0.0001
     42  N         20.4920    9.2680   15.7340 N.am  116  VAL116     -0.1980
     43  CA        21.6390    9.2870   16.6440 C.3   116  VAL116      0.1595
     44  C         22.4430    7.9620   16.6440 C.2   116  VAL116      0.2287
     45  O         23.6570    7.9960   16.6620 O.2   116  VAL116     -0.2864
     46  CB        21.2240    9.6620   18.0860 C.3   116  VAL116      0.0276
     47  CG1       22.4240    9.6110   19.0110 C.3   116  VAL116      0.0022
     48  CG2       20.5700   11.0550   18.1110 C.3   116  VAL116      0.0022
     49  N         24.5840    7.7040   13.4230 N.3   119  HIS119     -0.1226
     50  CA        25.7440    8.5030   13.7230 C.3   119  HIS119      0.1752
     51  C         26.7280    7.8210   14.6500 C.2   119  HIS119      0.2595
     52  O         27.9410    7.6960   14.3360 O.2   119  HIS119     -0.2718
     53  CB        25.2830    9.8030   14.3430 C.3   119  HIS119      0.0759
     54  CG        26.4250   10.7560   14.6940 C.ar  119  HIS119      0.0818
     55  ND1       26.8740   11.7240   13.8430 N.ar  119  HIS119     -0.2268
     56  CD2       27.2320   10.8230   15.8220 C.ar  119  HIS119      0.1154
     57  CE1       27.8760   12.3910   14.4370 C.ar  119  HIS119      0.1986
     58  NE2       28.0910   11.8440   15.6440 N.ar  119  HIS119     -0.2212
     59  N         26.2560    7.3750   15.8070 N.am  120  GLU120     -0.1979
     60  CA        27.1560    6.6760   16.7350 C.3   120  GLU120      0.1602
     61  C         27.8670    5.4740   16.1000 C.2   120  GLU120      0.2287
     62  O         29.0480    5.2520   16.3820 O.2   120  GLU120     -0.2864
     63  CB        26.4410    6.2030   18.0290 C.3   120  GLU120      0.0415
     64  CG        25.9980    7.3530   18.9160 C.3   120  GLU120      0.1163
     65  CD        27.0910    8.4020   19.1600 C.2   120  GLU120      0.3649
     66  OE1       28.2700    7.9910   19.4120 O.co2 120  GLU120     -0.2457
     67  OE2       26.7740    9.6410   19.1120 O.co2 120  GLU120     -0.2457
     68  N         34.0910   12.7200   13.6460 N.3   129  HIS129     -0.1241
     69  CA        33.2260   13.7890   13.1650 C.3   129  HIS129      0.1621
     70  C         33.6580   14.3830   11.8570 C.2   129  HIS129      0.2264
     71  O         34.8660   14.4560   11.5740 O.2   129  HIS129     -0.2867
     72  CB        33.0940   14.8760   14.2110 C.3   129  HIS129      0.0745
     73  CG        32.2960   14.4470   15.4030 C.ar  129  HIS129      0.0817
     74  ND1       32.6060   14.8250   16.6490 N.ar  129  HIS129     -0.2268
     75  CD2       31.1860   13.6260   15.5020 C.ar  129  HIS129      0.1154
     76  CE1       31.7620   14.2840   17.5330 C.ar  129  HIS129      0.1986
     77  NE2       30.8650   13.5400   16.8230 N.ar  129  HIS129     -0.2212
     78  N         28.5500   20.1570    6.9190 N.3   133  PRO133     -0.2102
     79  CA        27.2660   20.3610    7.6070 C.3   133  PRO133      0.1504
     80  C         26.0760   19.4550    7.1050 C.2   133  PRO133      0.2576
     81  O         25.0420   19.3730    7.7830 O.2   133  PRO133     -0.2718
     82  CB        26.9880   21.8630    7.3630 C.3   133  PRO133      0.0282
     83  CG        27.7430   22.1800    6.1070 C.3   133  PRO133      0.0208
     84  CD        28.9920   21.3860    6.2230 C.3   133  PRO133      0.0893
     85  N         26.2170   18.7980    5.9470 N.am  134  GLY134     -0.1943
     86  CA        25.1740   17.8700    5.4620 C.3   134  GLY134      0.2014
     87  C         25.4460   16.4070    5.8230 C.2   134  GLY134      0.2639
     88  O         24.6680   15.5010    5.4560 O.2   134  GLY134     -0.2714
     89  N         26.5600   16.1600    6.5080 N.am  135  ALA135     -0.1963
     90  CA        26.9860   14.7930    6.8110 C.3   135  ALA135      0.1728
     91  C         26.2880   14.2240    8.0330 C.2   135  ALA135      0.2612
     92  O         25.9960   14.9510    8.9650 O.2   135  ALA135     -0.2715
     93  CB        28.4870   14.7170    7.0060 C.3   135  ALA135      0.0334
     94  N         26.0480   12.9120    8.0050 N.am  136  LEU136     -0.2031
     95  CA        25.4710   12.2350    9.1100 C.3   136  LEU136      0.1282
     96  C         26.4690   12.2890   10.2800 C.3   136  LEU136      0.2036
     97  O         26.0540   12.3020   11.5020 O.3   136  LEU136     -0.2185
     98  CB        25.1520   10.7830    8.7470 C.3   136  LEU136      0.0244
     99  CG        24.7770    9.8610    9.9220 C.3   136  LEU136      0.0018
    100  CD1       23.4370   10.2770   10.5550 C.3   136  LEU136      0.0001
    101  CD2       24.6940    8.4100    9.4670 C.3   136  LEU136      0.0001
    102  N         28.4140   14.7760   11.0250 N.3   138  PHE138     -0.1228
    103  CA        28.4540   16.1330   11.5940 C.3   138  PHE138      0.1721
    104  C         28.0710   16.0620   13.0860 C.2   138  PHE138      0.2437
    105  O         27.1240   15.3660   13.4760 O.2   138  PHE138     -0.2733
    106  CB        27.5410   17.0840   10.7690 C.3   138  PHE138      0.0547
    107  CG        27.8900   18.5690   10.9020 C.ar  138  PHE138     -0.0202
    108  CD1       29.1050   19.0600   10.4150 C.ar  138  PHE138     -0.0042
    109  CD2       27.0060   19.4640   11.5160 C.ar  138  PHE138     -0.0042
    110  CE1       29.4690   20.4150   10.5310 C.ar  138  PHE138     -0.0003
    111  CE2       27.3630   20.8050   11.6490 C.ar  138  PHE138     -0.0003
    112  CZ        28.5930   21.2950   11.1340 C.ar  138  PHE138     -0.0000
    113  N         28.8320   16.7250   13.9620 N.am  139  PRO139     -0.2718
    114  CA        28.5950   16.4600   15.4070 C.3   139  PRO139      0.1535
    115  C         27.2980   17.0760   16.0190 C.2   139  PRO139      0.2598
    116  O         27.0830   17.0180   17.2460 O.2   139  PRO139     -0.2715
    117  CB        29.8030   17.0920   16.0690 C.3   139  PRO139      0.0310
    118  CG        30.2410   18.1710   15.0910 C.3   139  PRO139      0.0237
    119  CD        29.9480   17.6410   13.7240 C.3   139  PRO139      0.0939
    120  N         26.4830   17.6940   15.1820 N.am  140  ILE140     -0.1964
    121  CA        25.2190   18.3440   15.6110 C.3   140  ILE140      0.1727
    122  C         23.9990   17.5930   15.0960 C.2   140  ILE140      0.2616
    123  O         23.9160   17.2520   13.8920 O.2   140  ILE140     -0.2715
    124  CB        25.1180   19.7790   15.1060 C.3   140  ILE140      0.0290
    125  CG1       26.3460   20.5620   15.5550 C.3   140  ILE140      0.0022
    126  CG2       23.8840   20.4510   15.7220 C.3   140  ILE140      0.0023
    127  CD1       26.6650   21.7830   14.7290 C.3   140  ILE140      0.0001
    128  N         23.0710   17.3410   16.0120 N.am  141  TYR141     -0.1960
    129  CA        21.8000   16.7130   15.7000 C.3   141  TYR141      0.1771
    130  C         20.9300   17.5500   14.7450 C.2   141  TYR141      0.2620
    131  O         20.7090   18.7230   14.9910 O.2   141  TYR141     -0.2715
    132  CB        20.9760   16.4940   16.9800 C.3   141  TYR141      0.0574
    133  CG        19.6460   15.7970   16.6830 C.ar  141  TYR141     -0.0198
    134  CD1       19.6060   14.4090   16.3940 C.ar  141  TYR141     -0.0009
    135  CD2       18.4380   16.5150   16.7220 C.ar  141  TYR141     -0.0009
    136  CE1       18.4110   13.7600   16.1440 C.ar  141  TYR141      0.0417
    137  CE2       17.2290   15.8730   16.4790 C.ar  141  TYR141      0.0417
    138  CZ        17.2150   14.4960   16.1660 C.ar  141  TYR141      0.1957
    139  OH        15.9640   13.8600   15.9290 O.3   141  TYR141     -0.2866
    140  N         20.4360   16.9240   13.6730 N.am  142  THR142     -0.1951
    141  CA        19.3970   17.4980   12.8290 C.3   142  THR142      0.1897
    142  C         18.4290   16.3740   12.5250 C.2   142  THR142      0.2313
    143  O         18.8550   15.2850   12.1230 O.2   142  THR142     -0.2863
    144  CB        19.9570   17.9760   11.4750 C.3   142  THR142      0.1794
    145  OG1       20.9970   18.9340   11.6940 O.3   142  THR142     -0.2208
    146  CG2       18.8490   18.5830   10.5820 C.3   142  THR142      0.0378
    147  N         15.6910   14.7590   10.0520 N.3   144  THR144     -0.1218
    148  CA        14.8660   14.5600    8.8450 C.3   144  THR144      0.1862
    149  C         14.1870   13.1510    8.9730 C.2   144  THR144      0.2287
    150  O         14.6790   12.2440    9.7030 O.2   144  THR144     -0.2866
    151  CB        15.6950   14.6460    7.5410 C.3   144  THR144      0.1770
    152  OG1       16.8320   13.7740    7.6490 O.3   144  THR144     -0.2211
    153  CG2       16.1910   16.0790    7.2950 C.3   144  THR144      0.0375
    154  N         15.8050    6.5870    3.4220 N.3   149  PHE149     -0.1227
    155  CA        17.0140    7.2450    3.9480 C.3   149  PHE149      0.1736
    156  C         18.2000    7.1200    2.9630 C.2   149  PHE149      0.2595
    157  O         18.5630    6.0030    2.5400 O.2   149  PHE149     -0.2718
    158  CB        17.3970    6.7120    5.3570 C.3   149  PHE149      0.0547
    159  CG        18.6750    7.2990    5.8930 C.ar  149  PHE149     -0.0202
    160  CD1       19.9110    6.7430    5.5600 C.ar  149  PHE149     -0.0042
    161  CD2       18.6460    8.4230    6.7090 C.ar  149  PHE149     -0.0042
    162  CE1       21.0910    7.2800    6.0570 C.ar  149  PHE149     -0.0003
    163  CE2       19.8350    8.9870    7.2040 C.ar  149  PHE149     -0.0003
    164  CZ        21.0550    8.4240    6.8680 C.ar  149  PHE149     -0.0000
    165  N         18.7510    8.2680    2.5460 N.am  150  MET150     -0.1979
    166  CA        20.0180    8.2520    1.7790 C.3   150  MET150      0.1605
    167  C         21.2020    8.7440    2.6350 C.2   150  MET150      0.2287
    168  O         21.1760    9.8670    3.1500 O.2   150  MET150     -0.2864
    169  CB        19.8970    9.0340    0.4830 C.3   150  MET150      0.0413
    170  CG        18.6880    8.6090   -0.3270 C.3   150  MET150      0.0598
    171  SD        19.0870    8.1280   -2.0190 S.3   150  MET150     -0.1393
    172  CE        19.8220    6.5140   -1.6630 C.3   150  MET150      0.0692
    173  N         24.4780   10.5690    3.2960 N.3   152  PRO152     -0.2116
    174  CA        25.1000   11.6710    2.5480 C.3   152  PRO152      0.1372
    175  C         26.4780   11.2740    1.9330 C.2   152  PRO152      0.2244
    176  O         27.2000   10.4190    2.5000 O.2   152  PRO152     -0.2868
    177  CB        25.2460   12.7640    3.6200 C.3   152  PRO152      0.0268
    178  CG        24.2030   12.4250    4.6430 C.3   152  PRO152      0.0207
    179  CD        24.2350   10.9160    4.7110 C.3   152  PRO152      0.0892
@<TRIPOS>BOND
     1   171   172    1
     2   171   170    1
     3   170   169    1
     4   169   166    1
     5   166   165    1
     6   166   167    1
     7   175   176    2
     8   175   174    1
     9   157   156    2
    10   165   156   am
    11   174   173    1
    12   174   177    1
    13   167   168    2
    14   156   155    1
    15   173   179    1
    16   154   155    1
    17   177   178    1
    18   155   158    1
    19   178   179    1
    20   158   159    1
    21    88    87    2
    22    86    87    1
    23    86    85    1
    24   160   159   ar
    25   160   162   ar
    26    87    89   am
    27   159   161   ar
    28    85    80   am
    29   162   164   ar
    30    83    84    1
    31    83    82    1
    32    84    78    1
    33    89    90    1
    34   161   163   ar
    35    90    93    1
    36    90    91    1
    37   164   163   ar
    38    78    79    1
    39    80    79    1
    40    80    81    2
    41   153   151    1
    42    82    79    1
    43   151   152    1
    44   151   148    1
    45    94    91   am
    46    94    95    1
    47    91    92    2
    48    98    95    1
    49    98    99    1
    50   148   149    1
    51   148   147    1
    52   149   150    2
    53    95    96    1
    54   101    99    1
    55    99   100    1
    56    96    97    1
    57   108   110   ar
    58   108   107   ar
    59   110   112   ar
    60   146   144    1
    61    41    39    1
    62   106   107    1
    63   106   103    1
    64   107   109   ar
    65   102   103    1
    66   112   111   ar
    67   144   145    1
    68   144   141    1
    69   109   111   ar
    70    71    70    2
    71   103   104    1
    72    70    69    1
    73    39    40    1
    74    39    38    1
    75   143   142    2
    76   142   141    1
    77   141   140    1
    78   104   105    2
    79   104   113   am
    80    69    68    1
    81    69    72    1
    82    38    35    1
    83    49    50    1
    84    35    34    1
    85    35    36    1
    86   140   130   am
    87    50    53    1
    88    50    51    1
    89   119   113    1
    90   119   118    1
    91    55    57   ar
    92    55    54   ar
    93   123   122    2
    94   113   114    1
    95    37    36    2
    96    72    73    1
    97    52    51    2
    98    53    54    1
    99    57    58   ar
   100    36    42   am
   101    51    59   am
   102    54    56   ar
   103   127   125    1
   104   130   131    2
   105   130   129    1
   106   118   117    1
   107   122   121    1
   108   122   128   am
   109   124   125    1
   110   124   121    1
   111   124   126    1
   112   120   121    1
   113   120   115   am
   114    73    75   ar
   115    73    74   ar
   116   114   115    1
   117   114   117    1
   118    75    77   ar
   119    58    56   ar
   120   129   128    1
   121   129   132    1
   122    42    43    1
   123    59    60    1
   124   139   138    1
   125   115   116    2
   126    61    62    2
   127    61    60    1
   128   136   138   ar
   129   136   134   ar
   130   138   137   ar
   131   134   133   ar
   132   137   135   ar
   133    43    44    1
   134    43    46    1
   135    44    45    2
   136    74    76   ar
   137   133   135   ar
   138   133   132    1
   139    60    63    1
   140    77    76   ar
   141    63    64    1
   142    46    48    1
   143    46    47    1
   144    64    65    1
   145    67    65   ar
   146    65    66   ar
   147    27    26    1
   148    26    25    1
   149    26    28    1
   150    33    30    1
   151    25    22    1
   152    32    31    2
   153    31    30    1
   154    30    29    1
   155    29    23   am
   156    22    23    1
   157    22    21    1
   158    23    24    2
   159    19    18    1
   160    21    15   am
   161    12    11    2
   162    15    14    1
   163    15    16    2
   164    11    13   am
   165    11    10    1
   166    14    13    1
   167    14    17    1
   168    18    17    1
   169    18    20    1
   170     9    10    1
   171     8     6   ar
   172     7     6   ar
   173     6     5    1
   174     5     2    1
   175     1     2    1
   176     2     3    1
   177     3     4    2
