@<TRIPOS>MOLECULE
tmp/4a7cA00.pdb
 160 148 0 0 0
SMALL
GASTEIGER

@<TRIPOS>ATOM
      1  N        -42.3210    4.6380    4.4950 N.3    13  LEU13      -0.1231
      2  CA       -42.8650    3.3670    4.9660 C.3    13  LEU13       0.1693
      3  C        -41.8410    2.5620    5.7430 C.2    13  LEU13       0.2592
      4  O        -42.2000    1.8240    6.6540 O.2    13  LEU13      -0.2718
      5  CB       -43.4340    2.5430    3.8130 C.3    13  LEU13       0.0284
      6  CG       -44.6700    3.1660    3.1590 C.3    13  LEU13       0.0019
      7  CD1      -45.1420    2.3140    1.9900 C.3    13  LEU13       0.0001
      8  CD2      -45.7900    3.3620    4.1830 C.3    13  LEU13       0.0001
      9  N        -40.5700    2.6990    5.3760 N.am   14  GLY14      -0.1957
     10  CA       -39.4960    1.9900    6.0520 C.3    14  GLY14       0.1869
     11  C        -38.1420    2.3770    5.4820 C.2    14  GLY14       0.2309
     12  O        -38.0650    2.9960    4.4180 O.2    14  GLY14      -0.2863
     13  N        -32.1980   -1.9540    2.3120 N.3    18  PHE18      -0.1241
     14  CA       -32.8170   -1.8280    1.0060 C.3    18  PHE18       0.1605
     15  C        -32.9270   -0.3630    0.5610 C.2    18  PHE18       0.2264
     16  O        -33.3630   -0.0870   -0.5610 O.2    18  PHE18      -0.2867
     17  CB       -34.2120   -2.4470    1.0640 C.3    18  PHE18       0.0534
     18  CG       -35.0160   -1.9850    2.2540 C.ar   18  PHE18      -0.0203
     19  CD1      -35.7600   -0.8110    2.1940 C.ar   18  PHE18      -0.0042
     20  CD2      -35.0040   -2.7100    3.4420 C.ar   18  PHE18      -0.0042
     21  CE1      -36.4880   -0.3670    3.2950 C.ar   18  PHE18      -0.0003
     22  CE2      -35.7260   -2.2740    4.5520 C.ar   18  PHE18      -0.0003
     23  CZ       -36.4720   -1.0970    4.4710 C.ar   18  PHE18      -0.0000
     24  N        -38.0480    3.5810    1.6380 N.3    21  VAL21      -0.1245
     25  CA       -39.2570    3.3120    0.8680 C.3    21  VAL21       0.1561
     26  C        -40.3940    4.2420    1.3000 C.2    21  VAL21       0.2260
     27  O        -40.7380    4.2870    2.4790 O.2    21  VAL21      -0.2867
     28  CB       -39.7130    1.8310    1.0400 C.3    21  VAL21       0.0252
     29  CG1      -40.9670    1.5490    0.2300 C.3    21  VAL21       0.0019
     30  CG2      -38.6100    0.8800    0.6410 C.3    21  VAL21       0.0019
     31  N        -45.2230    2.6580   -4.4460 N.3    34  ALA34      -0.1245
     32  CA       -44.1730    2.7460   -3.4450 C.3    34  ALA34       0.1562
     33  C        -42.9750    3.3420   -4.1520 C.2    34  ALA34       0.2260
     34  O        -42.7100    3.0230   -5.3000 O.2    34  ALA34      -0.2867
     35  CB       -43.8340    1.3670   -2.8860 C.3    34  ALA34       0.0290
     36  N        -38.9730    3.8450   -3.9090 N.3    36  LYS36      -0.1245
     37  CA       -37.8230    3.2780   -3.2210 C.3    36  LYS36       0.1561
     38  C        -36.5220    3.9230   -3.6760 C.2    36  LYS36       0.2260
     39  O        -36.1700    3.8750   -4.8590 O.2    36  LYS36      -0.2867
     40  CB       -37.7700    1.7720   -3.4670 C.3    36  LYS36       0.0271
     41  CG       -36.6130    1.0390   -2.7850 C.3    36  LYS36       0.0035
     42  CD       -36.6210   -0.4320   -3.2200 C.3    36  LYS36       0.0206
     43  CE       -35.5070   -1.2380   -2.6060 C.3    36  LYS36       0.1093
     44  NZ       -35.8100   -2.7240   -2.6650 N.3    36  LYS36      -0.1314
     45  N        -31.0910   -5.2490   -9.0170 N.3    58  GLU58      -0.1245
     46  CA       -32.5000   -5.2730   -8.6550 C.3    58  GLU58       0.1567
     47  C        -33.4050   -4.8210   -9.8010 C.2    58  GLU58       0.2260
     48  O        -34.4830   -5.3900  -10.0180 O.2    58  GLU58      -0.2867
     49  CB       -32.6970   -4.3850   -7.4200 C.3    58  GLU58       0.0388
     50  CG       -34.1180   -4.2870   -6.9210 C.3    58  GLU58       0.1160
     51  CD       -34.2240   -3.4070   -5.6730 C.2    58  GLU58       0.3649
     52  OE1      -33.2050   -2.7770   -5.2830 O.co2  58  GLU58      -0.2457
     53  OE2      -35.3300   -3.3500   -5.0900 O.co2  58  GLU58      -0.2457
     54  N        -44.3420   -8.3140   -6.9050 N.3    73  ILE73      -0.1245
     55  CA       -44.4840   -6.8650   -6.9770 C.3    73  ILE73       0.1561
     56  C        -43.9790   -6.3050   -8.3260 C.2    73  ILE73       0.2260
     57  O        -42.8500   -6.5690   -8.7440 O.2    73  ILE73      -0.2867
     58  CB       -43.6960   -6.2050   -5.8360 C.3    73  ILE73       0.0252
     59  CG1      -44.3720   -4.9090   -5.3930 C.3    73  ILE73       0.0019
     60  CG2      -42.1920   -6.0700   -6.2000 C.3    73  ILE73       0.0019
     61  CD1      -45.7390   -5.1760   -4.7340 C.3    73  ILE73       0.0001
     62  N        -42.8050    1.2910   -7.6160 N.3    89  LEU89      -0.1231
     63  CA       -43.3070   -0.0680   -7.4850 C.3    89  LEU89       0.1693
     64  C        -44.8010   -0.0610   -7.1990 C.2    89  LEU89       0.2592
     65  O        -45.3560    0.9190   -6.6940 O.2    89  LEU89      -0.2718
     66  CB       -42.5640   -0.7990   -6.3560 C.3    89  LEU89       0.0284
     67  CG       -41.0690   -1.0090   -6.5990 C.3    89  LEU89       0.0019
     68  CD1      -40.2660   -0.8460   -5.3280 C.3    89  LEU89       0.0001
     69  CD2      -40.7900   -2.3710   -7.2350 C.3    89  LEU89       0.0001
     70  N        -45.4430   -1.1720   -7.5230 N.am   90  GLU90      -0.1966
     71  CA       -46.8450   -1.3620   -7.2160 C.3    90  GLU90       0.1733
     72  C        -47.0760   -1.3160   -5.6970 C.2    90  GLU90       0.2616
     73  O        -46.2400   -1.7780   -4.9130 O.2    90  GLU90      -0.2715
     74  CB       -47.2850   -2.7020   -7.8110 C.3    90  GLU90       0.0429
     75  CG       -48.5370   -3.3040   -7.2300 C.3    90  GLU90       0.1163
     76  CD       -48.8230   -4.6910   -7.7920 C.2    90  GLU90       0.3649
     77  OE1      -47.9640   -5.2330   -8.5460 O.co2  90  GLU90      -0.2457
     78  OE2      -49.9120   -5.2280   -7.4710 O.co2  90  GLU90      -0.2457
     79  N        -48.1900   -0.7280   -5.2720 N.am   91  ARG91      -0.1964
     80  CA       -48.5370   -0.7340   -3.8530 C.3    91  ARG91       0.1714
     81  C        -49.9910   -1.1460   -3.6110 C.2    91  ARG91       0.2458
     82  O        -50.9090   -0.3600   -3.8210 O.2    91  ARG91      -0.2730
     83  CB       -48.2430    0.6200   -3.1950 C.3    91  ARG91       0.0347
     84  CG       -48.7100    0.7020   -1.7300 C.3    91  ARG91       0.0492
     85  CD       -48.3060    2.0070   -1.0510 C.3    91  ARG91       0.2205
     86  NE       -48.8650    3.2030   -1.6880 N.pl3  91  ARG91      -0.0865
     87  CZ       -50.0270    3.7650   -1.3520 C.cat  91  ARG91       0.5346
     88  NH1      -50.7800    3.2310   -0.3940 N.pl3  91  ARG91       0.1354
     89  NH2      -50.4430    4.8600   -1.9830 N.pl3  91  ARG91       0.1354
     90  N        -50.2010   -2.3880   -3.1610 N.am   92  PRO92      -0.2727
     91  CA       -51.5600   -2.8000   -2.7990 C.3    92  PRO92       0.1402
     92  C        -52.0380   -1.9650   -1.6160 C.2    92  PRO92       0.2269
     93  O        -51.2160   -1.4160   -0.8760 O.2    92  PRO92      -0.2865
     94  CB       -51.3860   -4.2710   -2.3870 C.3    92  PRO92       0.0296
     95  CG       -50.0670   -4.6950   -2.9740 C.3    92  PRO92       0.0237
     96  CD       -49.2150   -3.4630   -2.9560 C.3    92  PRO92       0.0939
     97  N        -52.5920   -3.2060    2.8250 N.3    95  VAL95      -0.1245
     98  CA       -51.5260   -4.1860    2.7130 C.3    95  VAL95       0.1561
     99  C        -50.9010   -4.4210    4.0980 C.2    95  VAL95       0.2260
    100  O        -50.9420   -3.5380    4.9540 O.2    95  VAL95      -0.2867
    101  CB       -50.4440   -3.6640    1.7460 C.3    95  VAL95       0.0252
    102  CG1      -49.7420   -2.4660    2.3590 C.3    95  VAL95       0.0019
    103  CG2      -49.4470   -4.7480    1.3910 C.3    95  VAL95       0.0019
    104  N        -47.2960   -6.8210    5.5840 N.3    97  ASP97      -0.1239
    105  CA       -46.3130   -7.8720    5.3410 C.3    97  ASP97       0.1674
    106  C        -46.6010   -9.0880    6.2170 C.2    97  ASP97       0.2266
    107  O        -47.3350   -8.9840    7.2020 O.2    97  ASP97      -0.2867
    108  CB       -44.8570   -7.3710    5.4270 C.3    97  ASP97       0.1410
    109  CG       -44.3530   -7.1930    6.8530 C.2    97  ASP97       0.3668
    110  OD1      -44.7500   -7.9510    7.7550 O.co2  97  ASP97      -0.2456
    111  OD2      -43.5010   -6.3040    7.0630 O.co2  97  ASP97      -0.2456
    112  N        -45.4040   -8.8890   10.0550 N.3   100  ASP100     -0.1239
    113  CA       -46.3540   -8.1970   10.9170 C.3   100  ASP100      0.1674
    114  C        -47.6030   -9.0310   11.1320 C.2   100  ASP100      0.2266
    115  O        -48.1650   -9.0430   12.2240 O.2   100  ASP100     -0.2867
    116  CB       -46.7370   -6.8350   10.3320 C.3   100  ASP100      0.1410
    117  CG       -45.5870   -5.8620   10.3490 C.2   100  ASP100      0.3668
    118  OD1      -44.6030   -6.1350   11.0670 O.co2 100  ASP100     -0.2456
    119  OD2      -45.6560   -4.8340    9.6380 O.co2 100  ASP100     -0.2456
    120  N        -40.9250  -11.1010    5.9690 N.3   140  GLU140     -0.1231
    121  CA       -40.8160   -9.6520    5.7400 C.3   140  GLU140      0.1699
    122  C        -40.8460   -9.2710    4.2610 C.2   140  GLU140      0.2592
    123  O        -41.2230   -8.1550    3.9300 O.2   140  GLU140     -0.2718
    124  CB       -39.5310   -9.0770    6.3430 C.3   140  GLU140      0.0402
    125  CG       -39.3080   -9.3660    7.8160 C.3   140  GLU140      0.1161
    126  CD       -37.9080   -8.9590    8.2730 C.2   140  GLU140      0.3649
    127  OE1      -37.6480   -7.7400    8.3880 O.co2 140  GLU140     -0.2457
    128  OE2      -37.0650   -9.8550    8.4960 O.co2 140  GLU140     -0.2457
    129  N        -40.4350  -10.1820    3.3760 N.am  141  ASN141     -0.1974
    130  CA       -40.3700   -9.8770    1.9440 C.3   141  ASN141      0.1688
    131  C        -41.5890  -10.3940    1.2030 C.2   141  ASN141      0.2292
    132  O        -41.5760  -10.5760   -0.0220 O.2   141  ASN141     -0.2864
    133  CB       -39.0760  -10.4230    1.3300 C.3   141  ASN141      0.1181
    134  CG       -37.8560   -9.6290    1.7600 C.2   141  ASN141      0.2629
    135  OD1      -37.9790   -8.4870    2.2000 O.2   141  ASN141     -0.2716
    136  ND2      -36.6730  -10.2250    1.6370 N.am  141  ASN141     -0.0877
    137  N        -45.7040   -9.4950    0.8370 N.3   143  LEU143     -0.1245
    138  CA       -46.8330   -8.6100    1.1260 C.3   143  LEU143      0.1561
    139  C        -48.1690   -9.3150    0.9480 C.2   143  LEU143      0.2260
    140  O        -48.3400  -10.1280    0.0450 O.2   143  LEU143     -0.2867
    141  CB       -46.8040   -7.3510    0.2590 C.3   143  LEU143      0.0270
    142  CG       -45.5840   -6.4300    0.3800 C.3   143  LEU143      0.0019
    143  CD1      -45.7730   -5.1940   -0.5120 C.3   143  LEU143      0.0001
    144  CD2      -45.3040   -6.0450    1.8420 C.3   143  LEU143      0.0001
    145  N        -41.4800   -9.3010   -2.6060 N.3   154  ILE154     -0.1231
    146  CA       -40.8090   -8.0150   -2.7560 C.3   154  ILE154      0.1692
    147  C        -39.3210   -8.1320   -2.4840 C.2   154  ILE154      0.2592
    148  O        -38.8440   -9.1510   -1.9660 O.2   154  ILE154     -0.2718
    149  CB       -41.3950   -6.8930   -1.8270 C.3   154  ILE154      0.0266
    150  CG1      -41.2440   -7.2700   -0.3500 C.3   154  ILE154      0.0019
    151  CG2      -42.8430   -6.5930   -2.1760 C.3   154  ILE154      0.0020
    152  CD1      -41.6110   -6.1520    0.6500 C.3   154  ILE154      0.0001
    153  N        -38.6060   -7.0700   -2.8470 N.am  155  ASP155     -0.1974
    154  CA       -37.2010   -6.8810   -2.5000 C.3   155  ASP155      0.1709
    155  C        -36.2580   -7.8820   -3.1610 C.2   155  ASP155      0.2293
    156  O        -35.8050   -8.8370   -2.5310 O.2   155  ASP155     -0.2864
    157  CB       -37.0000   -6.8520   -0.9780 C.3   155  ASP155      0.1436
    158  CG       -35.6390   -6.2670   -0.5720 C.2   155  ASP155      0.3671
    159  OD1      -34.8220   -5.9040   -1.4500 O.co2 155  ASP155     -0.2456
    160  OD2      -35.3830   -6.1700    0.6390 O.co2 155  ASP155     -0.2456
@<TRIPOS>BOND
     1    48    47    2
     2    47    46    1
     3    45    46    1
     4    57    56    2
     5    46    49    1
     6    77    76   ar
     7    56    55    1
     8    74    75    1
     9    74    71    1
    10    76    78   ar
    11    76    75    1
    12    62    63    1
    13    70    71    1
    14    70    64   am
    15    63    64    1
    16    63    66    1
    17    49    50    1
    18    69    67    1
    19    71    72    1
    20    64    65    2
    21    55    54    1
    22    55    58    1
    23    50    51    1
    24    67    66    1
    25    67    68    1
    26    60    58    1
    27    58    59    1
    28    72    79   am
    29    72    73    2
    30    51    52   ar
    31    51    53   ar
    32    59    61    1
    33    34    33    2
    34    79    80    1
    35    39    38    2
    36    31    32    1
    37    33    32    1
    38    36    37    1
    39    80    81    1
    40    80    83    1
    41    82    81    2
    42    38    37    1
    43    81    90   am
    44    40    37    1
    45    40    41    1
    46    32    35    1
    47    42    41    1
    48    42    43    1
    49    83    84    1
    50    90    96    1
    51    90    91    1
    52   155   156    2
    53   155   154    1
    54    95    96    1
    55    95    94    1
    56   153   154    1
    57   153   147   am
    58    91    94    1
    59    91    92    1
    60   146   145    1
    61   146   147    1
    62   146   149    1
    63    44    43    1
    64   154   157    1
    65   147   148    2
    66   151   149    1
    67    89    87    1
    68   149   150    1
    69    84    85    1
    70    86    87    2
    71    86    85    1
    72    92    93    2
    73   159   158   ar
    74    87    88    1
    75   157   158    1
    76   158   160   ar
    77    16    15    2
    78   143   142    1
    79   150   152    1
    80   132   131    2
    81   140   139    2
    82    29    28    1
    83   141   142    1
    84   141   138    1
    85   142   144    1
    86    15    14    1
    87    30    28    1
    88   137   138    1
    89    25    28    1
    90    25    26    1
    91    25    24    1
    92   139   138    1
    93    14    17    1
    94    14    13    1
    95    17    18    1
    96   131   130    1
    97    26    27    2
    98   133   134    1
    99   133   130    1
   100   103   101    1
   101   136   134   am
   102   101   102    1
   103   101    98    1
   104   134   135    2
   105   130   129    1
   106     7     6    1
   107    19    18   ar
   108    19    21   ar
   109    18    20   ar
   110    98    97    1
   111    98    99    1
   112     6     5    1
   113     6     8    1
   114    21    23   ar
   115   129   122   am
   116    20    22   ar
   117     5     2    1
   118   123   122    2
   119    99   100    2
   120   122   121    1
   121    12    11    2
   122    23    22   ar
   123     1     2    1
   124     2     3    1
   125   105   108    1
   126   105   104    1
   127   105   106    1
   128     9     3   am
   129     9    10    1
   130   108   109    1
   131    11    10    1
   132   121   120    1
   133   121   124    1
   134     3     4    2
   135   106   107    2
   136   124   125    1
   137   109   111   ar
   138   109   110   ar
   139   125   126    1
   140   126   127   ar
   141   126   128   ar
   142   119   117   ar
   143   112   113    1
   144   116   117    1
   145   116   113    1
   146   117   118   ar
   147   113   114    1
   148   114   115    2
