@<TRIPOS>MOLECULE
tmp/4a7gA00.pdb
 97 94 0 0 0
SMALL
GASTEIGER

@<TRIPOS>ATOM
      1  N          6.5960   -0.3140   29.2610 N.3    22  GLN22      -0.1245
      2  CA         7.8240   -0.9470   29.6980 C.3    22  GLN22       0.1566
      3  C          8.6660    0.1150   30.3850 C.2    22  GLN22       0.2260
      4  O          9.1460    1.0520   29.7520 O.2    22  GLN22      -0.2867
      5  CB         8.5690   -1.5280   28.5210 C.3    22  GLN22       0.0367
      6  CG         9.7330   -2.3770   28.8760 C.3    22  GLN22       0.0905
      7  CD        10.4090   -2.9910   27.6590 C.2    22  GLN22       0.2608
      8  OE1       10.2690   -2.4700   26.5630 O.2    22  GLN22      -0.2717
      9  NE2       11.1500   -4.1100   27.8390 N.am   22  GLN22      -0.0878
     10  N         14.2530   -0.9290   29.6090 N.3    25  SER25      -0.1202
     11  CA        14.4460   -1.7710   28.4270 C.3    25  SER25       0.2020
     12  C         14.7410   -3.2350   28.7560 C.2    25  SER25       0.2619
     13  O         14.4290   -4.1020   27.9720 O.2    25  SER25      -0.2717
     14  CB        15.5230   -1.2080   27.4980 C.3    25  SER25       0.2103
     15  OG        16.8020   -1.2990   28.0860 O.3    25  SER25      -0.2182
     16  N         15.2830   -3.5200   29.9360 N.am   26  ASN26      -0.1960
     17  CA        15.5200   -4.8940   30.3630 C.3    26  ASN26       0.1819
     18  C         14.4450   -5.4140   31.2980 C.2    26  ASN26       0.2622
     19  O         14.6170   -6.4770   31.9470 O.2    26  ASN26      -0.2715
     20  CB        16.9110   -5.0500   30.9980 C.3    26  ASN26       0.1195
     21  CG        17.0850   -4.2900   32.2880 C.2    26  ASN26       0.2630
     22  OD1       16.1610   -3.6690   32.8320 O.2    26  ASN26      -0.2716
     23  ND2       18.3280   -4.2950   32.7600 N.am   26  ASN26      -0.0877
     24  N         13.3240   -4.7060   31.3450 N.am   27  GLY27      -0.1940
     25  CA        12.2710   -5.0610   32.2830 C.3    27  GLY27       0.1998
     26  C         11.0570   -5.6290   31.5690 C.2    27  GLY27       0.2480
     27  O         10.9860   -5.6570   30.3350 O.2    27  GLY27      -0.2729
     28  N         10.0640   -6.0350   32.3490 N.am   28  PRO28      -0.2726
     29  CA         8.8350   -6.5670   31.7950 C.3    28  PRO28       0.1402
     30  C          7.9540   -5.5180   31.1620 C.2    28  PRO28       0.2269
     31  O          8.0900   -4.3290   31.4310 O.2    28  PRO28      -0.2865
     32  CB         8.1430   -7.1720   33.0230 C.3    28  PRO28       0.0296
     33  CG         8.5930   -6.3290   34.1200 C.3    28  PRO28       0.0237
     34  CD        10.0080   -5.9680   33.8150 C.3    28  PRO28       0.0939
     35  N         13.5870  -16.2900   17.7450 N.3    67  LEU67      -0.1245
     36  CA        14.5110  -17.3240   18.2470 C.3    67  LEU67       0.1561
     37  C         14.2420  -18.7070   17.6800 C.2    67  LEU67       0.2260
     38  O         14.8780  -19.6760   18.0560 O.2    67  LEU67      -0.2867
     39  CB        14.4560  -17.3910   19.7800 C.3    67  LEU67       0.0270
     40  CG        15.0120  -16.1560   20.4630 C.3    67  LEU67       0.0019
     41  CD1       14.7440  -16.1560   21.9460 C.3    67  LEU67       0.0001
     42  CD2       16.5040  -16.1200   20.2060 C.3    67  LEU67       0.0001
     43  N          7.6020  -10.9490   30.2760 N.3   102  SER102     -0.1202
     44  CA         9.0390  -10.7610   30.4140 C.3   102  SER102      0.2020
     45  C          9.8190  -11.0420   29.1320 C.2   102  SER102      0.2619
     46  O         11.0130  -10.7950   29.0790 O.2   102  SER102     -0.2717
     47  CB         9.5740  -11.6640   31.5370 C.3   102  SER102      0.2103
     48  OG         9.0500  -11.2230   32.7710 O.3   102  SER102     -0.2182
     49  N          9.1460  -11.5260   28.1020 N.am  103  VAL103     -0.1965
     50  CA         9.7990  -11.9270   26.8690 C.3   103  VAL103      0.1727
     51  C          9.6110  -10.9370   25.7240 C.2   103  VAL103      0.2616
     52  O         10.5510  -10.6230   25.0020 O.2   103  VAL103     -0.2715
     53  CB         9.3740  -13.3720   26.4610 C.3   103  VAL103      0.0290
     54  CG1        9.9620  -13.8020   25.1320 C.3   103  VAL103      0.0023
     55  CG2        9.7810  -14.3680   27.5720 C.3   103  VAL103      0.0023
     56  N          8.3900  -10.4200   25.5590 N.am  104  ILE104     -0.1963
     57  CA         8.1680   -9.2950   24.6360 C.3   104  ILE104      0.1727
     58  C          8.9780   -8.0770   25.1090 C.2   104  ILE104      0.2616
     59  O          9.3110   -7.9630   26.2910 O.2   104  ILE104     -0.2715
     60  CB         6.6730   -8.9770   24.4580 C.3   104  ILE104      0.0290
     61  CG1        6.0260   -8.5460   25.7610 C.3   104  ILE104      0.0022
     62  CG2        5.9260  -10.1210   23.7560 C.3   104  ILE104      0.0023
     63  CD1        4.6690   -7.9290   25.5550 C.3   104  ILE104      0.0001
     64  N          9.2020   -7.1360   24.2040 N.am  105  SER105     -0.1950
     65  CA         9.8480   -5.8620   24.5390 C.3   105  SER105      0.1924
     66  C          9.3030   -4.7820   23.6220 C.2   105  SER105      0.2314
     67  O          8.7110   -5.0580   22.5640 O.2   105  SER105     -0.2863
     68  CB        11.3530   -5.9820   24.4140 C.3   105  SER105      0.2116
     69  OG        11.9650   -4.8720   25.0170 O.3   105  SER105     -0.2180
     70  N         11.6060   -2.4220   22.7310 N.3   107  SER107     -0.1202
     71  CA        12.8500   -2.0300   22.0640 C.3   107  SER107      0.2020
     72  C         13.6960   -3.2760   21.8210 C.2   107  SER107      0.2619
     73  O         13.3360   -4.3920   22.2280 O.2   107  SER107     -0.2717
     74  CB        13.6180   -0.9780   22.8580 C.3   107  SER107      0.2103
     75  OG        13.9430   -1.4620   24.1390 O.3   107  SER107     -0.2182
     76  N         14.7930   -3.1050   21.0980 N.am  108  GLY108     -0.1942
     77  CA        15.6860   -4.2120   20.7690 C.3   108  GLY108      0.2014
     78  C         15.1460   -5.2400   19.8100 C.2   108  GLY108      0.2639
     79  O         14.1250   -5.0440   19.1870 O.2   108  GLY108     -0.2714
     80  N         15.8010   -6.3970   19.7530 N.am  109  ASP109     -0.1957
     81  CA        15.4640   -7.4120   18.7770 C.3   109  ASP109      0.1840
     82  C         14.1320   -8.1030   19.0680 C.2   109  ASP109      0.2622
     83  O         13.5130   -8.6650   18.1760 O.2   109  ASP109     -0.2715
     84  CB        16.5810   -8.4640   18.7130 C.3   109  ASP109      0.1450
     85  CG        16.4630   -9.3560   17.4950 C.2   109  ASP109      0.3671
     86  OD1       16.3180   -8.8020   16.3760 O.co2 109  ASP109     -0.2456
     87  OD2       16.5180  -10.5930   17.6550 O.co2 109  ASP109     -0.2456
     88  N         13.6880   -8.0930   20.3220 N.am  110  HIS110     -0.1973
     89  CA        12.3680   -8.6530   20.6760 C.3   110  HIS110      0.1656
     90  C         11.2670   -7.6130   20.6190 C.2   110  HIS110      0.2291
     91  O         10.1770   -7.8810   21.1190 O.2   110  HIS110     -0.2864
     92  CB        12.3480   -9.2480   22.0780 C.3   110  HIS110      0.0771
     93  CG        13.0990  -10.5140   22.1890 C.ar  110  HIS110      0.0820
     94  ND1       12.9440  -11.4050   23.2350 N.ar  110  HIS110     -0.2267
     95  CD2       13.9780  -11.0720   21.3360 C.ar  110  HIS110      0.1154
     96  CE1       13.7460  -12.4380   23.0250 C.ar  110  HIS110      0.1986
     97  NE2       14.3950  -12.2500   21.8920 N.ar  110  HIS110     -0.2212
@<TRIPOS>BOND
     1    86    85   ar
     2    85    87   ar
     3    85    84    1
     4    37    38    2
     5    37    36    1
     6    35    36    1
     7    83    82    2
     8    36    39    1
     9    84    81    1
    10    81    82    1
    11    81    80    1
    12    82    88   am
    13    79    78    2
    14    80    78   am
    15    39    40    1
    16    78    77    1
    17    42    40    1
    18    88    89    1
    19    40    41    1
    20    90    89    1
    21    90    91    2
    22    89    92    1
    23    77    76    1
    24    76    72   am
    25    95    97   ar
    26    95    93   ar
    27    72    71    1
    28    72    73    2
    29    97    96   ar
    30    71    70    1
    31    71    74    1
    32    92    93    1
    33    93    94   ar
    34    67    66    2
    35    74    75    1
    36    96    94   ar
    37    66    65    1
    38    62    60    1
    39    64    65    1
    40    64    58   am
    41    68    65    1
    42    68    69    1
    43    60    57    1
    44    60    61    1
    45    57    58    1
    46    57    56    1
    47    52    51    2
    48    58    59    2
    49    54    53    1
    50    63    61    1
    51    56    51   am
    52    51    50    1
    53    53    50    1
    54    53    55    1
    55     8     7    2
    56    50    49    1
    57    14    15    1
    58    14    11    1
    59     7     9   am
    60     7     6    1
    61    13    12    2
    62    49    45   am
    63    11    12    1
    64    11    10    1
    65     5     6    1
    66     5     2    1
    67    12    16   am
    68    46    45    2
    69    45    44    1
    70     1     2    1
    71     2     3    1
    72     4     3    2
    73    16    17    1
    74    43    44    1
    75    27    26    2
    76    17    20    1
    77    17    18    1
    78    44    47    1
    79    20    21    1
    80    30    31    2
    81    30    29    1
    82    18    24   am
    83    18    19    2
    84    24    25    1
    85    47    48    1
    86    26    25    1
    87    26    28   am
    88    29    28    1
    89    29    32    1
    90    21    23   am
    91    21    22    2
    92    28    34    1
    93    32    33    1
    94    34    33    1
