@<TRIPOS>MOLECULE
tmp/4a7iB00.pdb
 173 172 0 0 0
SMALL
GASTEIGER

@<TRIPOS>ATOM
      1  N         45.2870    4.3780   67.0920 N.3    82  LYS82      -0.1231
      2  CA        46.4180    4.7100   66.2400 C.3    82  LYS82       0.1693
      3  C         47.0950    3.4690   65.6740 C.2    82  LYS82       0.2592
      4  O         47.7630    3.5300   64.6390 O.2    82  LYS82      -0.2718
      5  CB        47.4380    5.5340   67.0310 C.3    82  LYS82       0.0285
      6  CG        46.8270    6.7030   67.7940 C.3    82  LYS82       0.0035
      7  CD        47.8460    7.8110   68.0490 C.3    82  LYS82       0.0206
      8  CE        49.0230    7.3360   68.8890 C.3    82  LYS82       0.1093
      9  NZ        50.0080    8.4360   69.1140 N.3    82  LYS82      -0.1314
     10  N         46.9130    2.3420   66.3510 N.am   83  GLU83      -0.1966
     11  CA        47.5320    1.0950   65.9230 C.3    83  GLU83       0.1733
     12  C         46.9470    0.5320   64.6340 C.2    83  GLU83       0.2617
     13  O         47.6620   -0.0640   63.8320 O.2    83  GLU83      -0.2715
     14  CB        47.4340    0.0380   67.0350 C.3    83  GLU83       0.0429
     15  CG        48.1980    0.3740   68.3230 C.3    83  GLU83       0.1163
     16  CD        47.3720    1.1790   69.3230 C.2    83  GLU83       0.3649
     17  OE1       46.3570    0.6520   69.8310 O.co2  83  GLU83      -0.2457
     18  OE2       47.7400    2.3390   69.6050 O.co2  83  GLU83      -0.2457
     19  N         45.6490    0.7260   64.4330 N.am   84  THR84      -0.1937
     20  CA        44.9810    0.2080   63.2430 C.3    84  THR84       0.2028
     21  C         44.2320    1.2760   62.4490 C.2    84  THR84       0.2642
     22  O         43.7640    1.0140   61.3370 O.2    84  THR84      -0.2714
     23  CB        43.9720   -0.8810   63.6260 C.3    84  THR84       0.1808
     24  OG1       43.0170   -0.3340   64.5430 O.3    84  THR84      -0.2208
     25  CG2       44.6790   -2.0570   64.2830 C.3    84  THR84       0.0379
     26  N         44.1230    2.4730   63.0220 N.am   85  TYR85      -0.1973
     27  CA        43.4110    3.5690   62.3830 C.3    85  TYR85       0.1639
     28  C         41.9250    3.2650   62.3250 C.2    85  TYR85       0.2290
     29  O         41.2050    3.8140   61.4870 O.2    85  TYR85      -0.2864
     30  CB        43.9370    3.8070   60.9700 C.3    85  TYR85       0.0560
     31  CG        44.9090    4.9540   60.8650 C.ar   85  TYR85      -0.0198
     32  CD1       45.9540    5.0900   61.7700 C.ar   85  TYR85      -0.0009
     33  CD2       44.7970    5.8910   59.8460 C.ar   85  TYR85      -0.0009
     34  CE1       46.8620    6.1280   61.6600 C.ar   85  TYR85       0.0417
     35  CE2       45.6990    6.9260   59.7280 C.ar   85  TYR85       0.0417
     36  CZ        46.7310    7.0410   60.6380 C.ar   85  TYR85       0.1957
     37  OH        47.6400    8.0720   60.5150 O.3    85  TYR85      -0.2866
     38  N         53.2660   10.5150   45.8860 N.3   135  GLU135     -0.1245
     39  CA        53.5350    9.9770   47.2140 C.3   135  GLU135      0.1567
     40  C         54.6060   10.7490   47.9710 C.2   135  GLU135      0.2260
     41  O         54.4560   11.0120   49.1630 O.2   135  GLU135     -0.2867
     42  CB        53.9420    8.5050   47.1250 C.3   135  GLU135      0.0388
     43  CG        54.0520    7.8180   48.4830 C.3   135  GLU135      0.1160
     44  CD        54.5210    6.3760   48.3840 C.2   135  GLU135      0.3649
     45  OE1       54.0060    5.6330   47.5170 O.co2 135  GLU135     -0.2457
     46  OE2       55.3940    5.9820   49.1860 O.co2 135  GLU135     -0.2457
     47  N         47.3300   -4.5220   56.1000 N.3   162  PHE162     -0.1227
     48  CA        46.7320   -4.1560   57.3830 C.3   162  PHE162      0.1736
     49  C         45.2720   -4.5700   57.4470 C.2   162  PHE162      0.2595
     50  O         44.5980   -4.6590   56.4210 O.2   162  PHE162     -0.2718
     51  CB        46.8380   -2.6480   57.5970 C.3   162  PHE162      0.0547
     52  CG        48.2430   -2.1630   57.7580 C.ar  162  PHE162     -0.0202
     53  CD1       48.8770   -2.2380   58.9830 C.ar  162  PHE162     -0.0042
     54  CD2       48.9370   -1.6490   56.6800 C.ar  162  PHE162     -0.0042
     55  CE1       50.1750   -1.8100   59.1320 C.ar  162  PHE162     -0.0003
     56  CE2       50.2400   -1.2180   56.8200 C.ar  162  PHE162     -0.0003
     57  CZ        50.8600   -1.2980   58.0490 C.ar  162  PHE162     -0.0000
     58  N         44.7820   -4.8120   58.6550 N.am  163  ILE163     -0.1980
     59  CA        43.4000   -5.2230   58.8210 C.3   163  ILE163      0.1595
     60  C         42.4070   -4.1490   58.3730 C.2   163  ILE163      0.2287
     61  O         42.4980   -2.9800   58.7730 O.2   163  ILE163     -0.2864
     62  CB        43.0900   -5.5900   60.2880 C.3   163  ILE163      0.0276
     63  CG1       41.7060   -6.2320   60.3740 C.3   163  ILE163      0.0022
     64  CG2       43.1260   -4.3530   61.1650 C.3   163  ILE163      0.0022
     65  CD1       41.6120   -7.5520   59.6370 C.3   163  ILE163      0.0001
     66  N         44.8620    8.3040   43.0490 N.3   179  ASP179     -0.1225
     67  CA        44.4690    7.9550   44.4060 C.3   179  ASP179      0.1805
     68  C         44.5670    9.2040   45.2650 C.2   179  ASP179      0.2598
     69  O         45.0460   10.2370   44.8110 O.2   179  ASP179     -0.2718
     70  CB        45.4300    6.8710   44.9210 C.3   179  ASP179      0.1424
     71  CG        45.0550    6.3370   46.2890 C.2   179  ASP179      0.3668
     72  OD1       43.8770    6.4540   46.6830 O.co2 179  ASP179     -0.2456
     73  OD2       45.9440    5.7730   46.9630 O.co2 179  ASP179     -0.2456
     74  N         44.0810    9.1210   46.4950 N.am  180  ALA180     -0.1966
     75  CA        44.1880   10.2420   47.4110 C.3   180  ALA180      0.1728
     76  C         45.6030   10.0670   47.9390 C.2   180  ALA180      0.2616
     77  O         46.2470    9.0780   47.6180 O.2   180  ALA180     -0.2715
     78  CB        43.1810   10.1050   48.5390 C.3   180  ALA180      0.0334
     79  N         46.0930   11.0080   48.7360 N.am  181  CYS181     -0.1954
     80  CA        47.4400   10.8830   49.2810 C.3   181  CYS181      0.1843
     81  C         47.5800   11.6620   50.5780 C.2   181  CYS181      0.2625
     82  O         46.6180   12.2690   51.0430 O.2   181  CYS181     -0.2714
     83  CB        48.4670   11.3700   48.2580 C.3   181  CYS181      0.0997
     84  SG        50.1810   10.8720   48.6430 S.3   181  CYS181     -0.0797
     85  N         48.7760   11.6450   51.1610 N.am  182  GLN182     -0.1977
     86  CA        49.0290   12.3570   52.4100 C.3   182  GLN182      0.1601
     87  C         48.5730   13.8130   52.3120 C.2   182  GLN182      0.2287
     88  O         48.9500   14.5310   51.3840 O.2   182  GLN182     -0.2864
     89  CB        50.5190   12.3070   52.7520 C.3   182  GLN182      0.0394
     90  CG        50.8510   12.8370   54.1350 C.3   182  GLN182      0.0908
     91  CD        50.3690   11.9200   55.2460 C.2   182  GLN182      0.2608
     92  OE1       50.3770   12.2940   56.4200 O.2   182  GLN182     -0.2717
     93  NE2       49.9550   10.7090   54.8830 N.am  182  GLN182     -0.0878
     94  N         43.8370   13.4390   54.0240 N.3   185  SER185     -0.1217
     95  CA        43.2730   12.8090   55.2180 C.3   185  SER185      0.1889
     96  C         42.2170   13.6730   55.8780 C.2   185  SER185      0.2288
     97  O         42.3690   14.8900   55.9570 O.2   185  SER185     -0.2866
     98  CB        44.3710   12.5340   56.2500 C.3   185  SER185      0.2089
     99  OG        45.4500   11.8210   55.6820 O.3   185  SER185     -0.2183
    100  N         38.5830   10.4450   54.0960 N.3   203  VAL203     -0.1231
    101  CA        39.8930   10.0080   53.6240 C.3   203  VAL203      0.1692
    102  C         40.6410    9.5430   54.8840 C.2   203  VAL203      0.2593
    103  O         40.9170   10.3390   55.7850 O.2   203  VAL203     -0.2718
    104  CB        40.6610   11.1670   52.9350 C.3   203  VAL203      0.0266
    105  CG1       41.9640   10.6600   52.3510 C.3   203  VAL203      0.0020
    106  CG2       39.8090   11.7680   51.8330 C.3   203  VAL203      0.0020
    107  N         40.9580    8.2540   54.9450 N.am  204  SER204     -0.1938
    108  CA        41.6020    7.7090   56.1290 C.3   204  SER204      0.2055
    109  C         43.0800    7.3880   55.9820 C.2   204  SER204      0.2643
    110  O         43.9260    8.0280   56.6020 O.2   204  SER204     -0.2714
    111  CB        40.8410    6.4570   56.5920 C.3   204  SER204      0.2130
    112  OG        41.2520    6.0550   57.8860 O.3   204  SER204     -0.2179
    113  N         43.3980    6.3910   55.1710 N.am  205  TRP205     -0.1959
    114  CA        44.7900    6.0290   54.9950 C.3   205  TRP205      0.1771
    115  C         45.0320    5.1430   53.7860 C.2   205  TRP205      0.2620
    116  O         44.1110    4.7940   53.0500 O.2   205  TRP205     -0.2715
    117  CB        45.3120    5.3200   56.2460 C.3   205  TRP205      0.0590
    118  CG        44.5680    4.0630   56.5690 C.ar  205  TRP205      0.0006
    119  CD1       43.4300    3.9500   57.3150 C.ar  205  TRP205      0.0946
    120  CD2       44.8840    2.7390   56.1170 C.ar  205  TRP205      0.0152
    121  NE1       43.0160    2.6380   57.3540 N.ar  205  TRP205     -0.2442
    122  CE2       43.8920    1.8750   56.6260 C.ar  205  TRP205      0.0810
    123  CE3       45.9110    2.2010   55.3300 C.ar  205  TRP205      0.0012
    124  CZ2       43.8950    0.5060   56.3730 C.ar  205  TRP205      0.0191
    125  CZ3       45.9110    0.8370   55.0810 C.ar  205  TRP205      0.0001
    126  CH2       44.9080    0.0060   55.6020 C.ar  205  TRP205      0.0015
    127  N         46.2940    4.7880   53.6000 N.am  206  GLY206     -0.1940
    128  CA        46.6900    3.9360   52.5000 C.3   206  GLY206      0.2014
    129  C         48.1590    3.6080   52.6590 C.2   206  GLY206      0.2639
    130  O         48.8800    4.3110   53.3700 O.2   206  GLY206     -0.2714
    131  N         48.6020    2.5300   52.0260 N.am  207  GLU207     -0.1963
    132  CA        50.0060    2.1410   52.0910 C.3   207  GLU207      0.1733
    133  C         50.6750    2.9120   50.9640 C.2   207  GLU207      0.2617
    134  O         50.6840    2.4800   49.8090 O.2   207  GLU207     -0.2715
    135  CB        50.1480    0.6350   51.8780 C.3   207  GLU207      0.0429
    136  CG        49.4380   -0.2030   52.9320 C.3   207  GLU207      0.1163
    137  CD        49.7020   -1.6910   52.7680 C.2   207  GLU207      0.3649
    138  OE1       50.8860   -2.0930   52.8470 O.co2 207  GLU207     -0.2457
    139  OE2       48.7290   -2.4510   52.5590 O.co2 207  GLU207     -0.2457
    140  N         51.2220    4.0700   51.3040 N.am  208  GLY208     -0.1940
    141  CA        51.8320    4.9020   50.2880 C.3   208  GLY208      0.2014
    142  C         50.7060    5.6280   49.5730 C.2   208  GLY208      0.2639
    143  O         49.6850    5.9560   50.1800 O.2   208  GLY208     -0.2714
    144  N         50.8840    5.8680   48.2820 N.am  209  CYS209     -0.1967
    145  CA        49.8780    6.5550   47.4870 C.3   209  CYS209      0.1712
    146  C         49.8770    6.0110   46.0630 C.2   209  CYS209      0.2296
    147  O         50.9230    5.9060   45.4290 O.2   209  CYS209     -0.2864
    148  CB        50.1570    8.0640   47.4640 C.3   209  CYS209      0.0983
    149  SG        50.0150    8.8950   49.0810 S.3   209  CYS209     -0.0798
    150  N         42.7850    3.0620   48.2490 N.3   216  GLY216     -0.1210
    151  CA        42.6460    4.1080   49.2420 C.3   216  GLY216      0.1956
    152  C         41.6930    3.5620   50.2890 C.2   216  GLY216      0.2612
    153  O         40.6970    2.9230   49.9430 O.2   216  GLY216     -0.2717
    154  N         41.9970    3.7900   51.5610 N.am  217  ILE217     -0.1965
    155  CA        41.1480    3.2930   52.6360 C.3   217  ILE217      0.1727
    156  C         40.3930    4.4570   53.2760 C.2   217  ILE217      0.2616
    157  O         40.9970    5.4460   53.6930 O.2   217  ILE217     -0.2715
    158  CB        41.9880    2.5690   53.7260 C.3   217  ILE217      0.0290
    159  CG1       42.9390    1.5660   53.0710 C.3   217  ILE217      0.0022
    160  CG2       41.0670    1.8450   54.7000 C.3   217  ILE217      0.0023
    161  CD1       42.2420    0.5000   52.2630 C.3   217  ILE217      0.0001
    162  N         39.0750    4.3280   53.3590 N.am  218  TYR218     -0.1974
    163  CA        38.2400    5.3840   53.9210 C.3   218  TYR218      0.1639
    164  C         37.4300    4.9120   55.1140 C.2   218  TYR218      0.2290
    165  O         37.1450    3.7230   55.2500 O.2   218  TYR218     -0.2864
    166  CB        37.2720    5.9090   52.8550 C.3   218  TYR218      0.0560
    167  CG        37.9430    6.4480   51.6050 C.ar  218  TYR218     -0.0198
    168  CD1       38.5660    5.5970   50.6980 C.ar  218  TYR218     -0.0009
    169  CD2       37.9770    7.8130   51.3510 C.ar  218  TYR218     -0.0009
    170  CE1       39.2070    6.0960   49.5770 C.ar  218  TYR218      0.0417
    171  CE2       38.6070    8.3150   50.2390 C.ar  218  TYR218      0.0417
    172  CZ        39.2220    7.4600   49.3550 C.ar  218  TYR218      0.1957
    173  OH        39.8610    7.9790   48.2530 O.3   218  TYR218     -0.2866
@<TRIPOS>BOND
     1    66    67    1
     2    67    70    1
     3    67    68    1
     4    69    68    2
     5    70    71    1
     6    68    74   am
     7   147   146    2
     8    38    39    1
     9   146   145    1
    10    71    72   ar
    11    71    73   ar
    12    74    75    1
    13    42    39    1
    14    42    43    1
    15    39    40    1
    16    75    76    1
    17    75    78    1
    18   148   145    1
    19   148   149    1
    20   145   144    1
    21    45    44   ar
    22    77    76    2
    23    76    79   am
    24    40    41    2
    25   150   151    1
    26   173   172    1
    27    83    84    1
    28    83    80    1
    29   144   142   am
    30    44    43    1
    31    44    46   ar
    32    84   149    1
    33    79    80    1
    34   151   152    1
    35    80    81    1
    36   172   170   ar
    37   172   171   ar
    38   142   143    2
    39   142   141    1
    40   170   168   ar
    41   134   133    2
    42   153   152    2
    43   171   169   ar
    44   141   140    1
    45   152   154   am
    46    81    82    2
    47    81    85   am
    48   168   167   ar
    49   133   140   am
    50   133   132    1
    51    85    86    1
    52   169   167   ar
    53    88    87    2
    54   154   155    1
    55   167   166    1
    56   106   104    1
    57   135   132    1
    58   135   136    1
    59   131   132    1
    60   131   129   am
    61   161   159    1
    62    87    86    1
    63   105   104    1
    64    86    89    1
    65   128   129    1
    66   128   127    1
    67   139   137   ar
    68   155   156    1
    69   155   158    1
    70   129   130    2
    71    89    90    1
    72   137   138   ar
    73   137   136    1
    74   166   163    1
    75   104   101    1
    76   116   115    2
    77   159   158    1
    78   156   162   am
    79   156   157    2
    80   162   163    1
    81   127   115   am
    82   101   100    1
    83   101   102    1
    84   158   160    1
    85   115   114    1
    86   163   164    1
    87    94    95    1
    88    90    91    1
    89    93    91   am
    90   102   107   am
    91   102   103    2
    92   107   108    1
    93   114   113    1
    94   114   117    1
    95   125   123   ar
    96   125   126   ar
    97   164   165    2
    98   113   109   am
    99    95    96    1
   100    95    98    1
   101    91    92    2
   102   123   120   ar
   103   126   124   ar
   104    99    98    1
   105    96    97    2
   106   109   108    1
   107   109   110    2
   108    47    48    1
   109   120   118   ar
   110   120   122   ar
   111   108   111    1
   112   117   118    1
   113   124   122   ar
   114    50    49    2
   115   118   119   ar
   116   111   112    1
   117   122   121   ar
   118    54    56   ar
   119    54    52   ar
   120    56    57   ar
   121   119   121   ar
   122    48    49    1
   123    48    51    1
   124    49    58   am
   125    51    52    1
   126    52    53   ar
   127    57    55   ar
   128    60    61    2
   129    60    59    1
   130    58    59    1
   131    59    62    1
   132    53    55   ar
   133    65    63    1
   134    35    33   ar
   135    35    36   ar
   136    33    31   ar
   137    62    63    1
   138    62    64    1
   139    37    36    1
   140    36    34   ar
   141    31    30    1
   142    31    32   ar
   143    30    27    1
   144    22    21    2
   145    29    28    2
   146    34    32   ar
   147    28    27    1
   148    27    26    1
   149    21    26   am
   150    21    20    1
   151    20    23    1
   152    20    19    1
   153    23    25    1
   154    23    24    1
   155    13    12    2
   156    19    12   am
   157    12    11    1
   158     4     3    2
   159     3     2    1
   160     3    10   am
   161    11    10    1
   162    11    14    1
   163     2     5    1
   164     2     1    1
   165     5     6    1
   166    14    15    1
   167     6     7    1
   168     7     8    1
   169    15    16    1
   170     8     9    1
   171    16    18   ar
   172    16    17   ar
