@<TRIPOS>MOLECULE
tmp/4a7jA00.pdb
 219 212 0 0 0
SMALL
GASTEIGER

@<TRIPOS>ATOM
      1  N         -4.3400   25.7690   24.0080 N.3    16  ALA16      -0.1231
      2  CA        -3.1910   24.9900   23.5910 C.3    16  ALA16       0.1694
      3  C         -3.4820   24.1190   22.3620 C.2    16  ALA16       0.2592
      4  O         -4.5600   23.5310   22.2350 O.2    16  ALA16      -0.2718
      5  CB        -2.7350   24.1140   24.7460 C.3    16  ALA16       0.0304
      6  N         -2.5200   24.0540   21.4570 N.am   17  VAL17      -0.1966
      7  CA        -2.6310   23.2050   20.2780 C.3    17  VAL17       0.1727
      8  C         -2.2010   21.8060   20.7560 C.2    17  VAL17       0.2616
      9  O         -1.3140   21.7060   21.6110 O.2    17  VAL17      -0.2715
     10  CB        -1.6840   23.7060   19.1780 C.3    17  VAL17       0.0290
     11  CG1       -1.8550   22.8770   17.9310 C.3    17  VAL17       0.0023
     12  CG2       -2.0050   25.1990   18.8730 C.3    17  VAL17       0.0023
     13  N         -2.8300   20.7460   20.2410 N.am   18  SER18      -0.1950
     14  CA        -2.4940   19.3760   20.6570 C.3    18  SER18       0.1924
     15  C         -1.7160   18.5410   19.6270 C.2    18  SER18       0.2314
     16  O         -0.9060   17.6850   20.0090 O.2    18  SER18      -0.2863
     17  CB        -3.7660   18.6180   21.0660 C.3    18  SER18       0.2116
     18  OG        -4.7330   18.6270   20.0140 O.3    18  SER18      -0.2180
     19  N         -7.1150   22.1040   22.2560 N.3    34  ALA34      -0.1225
     20  CA        -8.0380   21.9310   23.2100 C.3    34  ALA34       0.1811
     21  C         -9.1120   22.8930   23.1320 C.2    34  ALA34       0.2280
     22  O        -10.1570   22.7530   23.7310 O.2    34  ALA34      -0.2866
     23  CB        -7.0310   22.5780   24.7770 C.3    34  ALA34       0.0000
     24  N        -12.3140   19.2910   24.2560 N.3    58  GLY58      -0.1210
     25  CA       -11.0160   19.3300   23.6270 C.3    58  GLY58       0.1956
     26  C        -10.6190   18.1360   22.7690 C.2    58  GLY58       0.2612
     27  O        -11.0910   17.0150   22.9920 O.2    58  GLY58      -0.2717
     28  N         -9.7500   18.4010   21.7950 N.am   59  ILE59      -0.1965
     29  CA        -9.2620   17.3400   20.8880 C.3    59  ILE59       0.1727
     30  C         -7.7810   17.0470   21.1580 C.2    59  ILE59       0.2617
     31  O         -6.9830   17.9740   21.2840 O.2    59  ILE59      -0.2715
     32  CB        -9.4200   17.7810   19.4210 C.3    59  ILE59       0.0290
     33  CG1      -10.8900   18.1160   19.1330 C.3    59  ILE59       0.0022
     34  CG2       -8.9810   16.6540   18.4900 C.3    59  ILE59       0.0023
     35  CD1      -11.1030   18.8270   17.7860 C.3    59  ILE59       0.0001
     36  N         -7.4030   15.7720   21.2380 N.am   60  SER60      -0.1936
     37  CA        -5.9980   15.4260   21.4730 C.3    60  SER60       0.2055
     38  C         -5.2280   15.0370   20.2290 C.2    60  SER60       0.2643
     39  O         -3.9810   15.0920   20.2300 O.2    60  SER60      -0.2714
     40  CB        -5.8860   14.2830   22.4840 C.3    60  SER60       0.2130
     41  OG        -6.3240   14.7010   23.7660 O.3    60  SER60      -0.2179
     42  N         -5.9300   14.6710   19.1720 N.am   61  ASP61      -0.1971
     43  CA        -5.2560   14.1940   17.9640 C.3    61  ASP61       0.1709
     44  C         -6.1460   14.2910   16.7280 C.2    61  ASP61       0.2293
     45  O         -7.3620   14.2250   16.8210 O.2    61  ASP61      -0.2864
     46  CB        -4.8610   12.7330   18.2090 C.3    61  ASP61       0.1436
     47  CG        -3.7940   12.2220   17.2570 C.2    61  ASP61       0.3671
     48  OD1       -3.0860   13.0300   16.6120 O.co2  61  ASP61      -0.2456
     49  OD2       -3.6510   10.9770   17.1940 O.co2  61  ASP61      -0.2456
     50  N        -11.9200   14.4610   24.0240 N.3    76  ASP76      -0.1239
     51  CA       -12.2250   14.2070   25.4240 C.3    76  ASP76       0.1674
     52  C        -13.7420   13.9710   25.5390 C.2    76  ASP76       0.2266
     53  O        -14.2120   13.5240   26.5950 O.2    76  ASP76      -0.2867
     54  CB       -11.8280   15.4170   26.2770 C.3    76  ASP76       0.1410
     55  CG       -10.3410   15.4810   26.5880 C.2    76  ASP76       0.3668
     56  OD1       -9.5410   14.6770   26.0650 O.co2  76  ASP76      -0.2456
     57  OD2       -9.9730   16.3720   27.3850 O.co2  76  ASP76      -0.2456
     58  N        -12.0120    9.6680   27.7000 N.3   100  TYR100     -0.1241
     59  CA       -11.3610   10.4530   26.6360 C.3   100  TYR100      0.1605
     60  C        -10.7350    9.5870   25.5560 C.2   100  TYR100      0.2264
     61  O        -10.1340    8.5390   25.8630 O.2   100  TYR100     -0.2867
     62  CB       -10.2120   11.2950   27.2090 C.3   100  TYR100      0.0534
     63  CG       -10.5300   12.2130   28.3730 C.ar  100  TYR100     -0.0201
     64  CD1      -11.8300   12.6750   28.6200 C.ar  100  TYR100     -0.0009
     65  CD2       -9.5050   12.6510   29.2110 C.ar  100  TYR100     -0.0009
     66  CE1      -12.0890   13.5630   29.6620 C.ar  100  TYR100      0.0417
     67  CE2       -9.7490   13.5370   30.2480 C.ar  100  TYR100      0.0417
     68  CZ       -11.0360   13.9860   30.4810 C.ar  100  TYR100      0.1957
     69  OH       -11.2360   14.8590   31.5260 O.3   100  TYR100     -0.2866
     70  N         -7.8070    9.5130   23.0120 N.3   102  PHE102     -0.1227
     71  CA        -6.5460   10.2190   22.9520 C.3   102  PHE102      0.1736
     72  C         -5.8540   10.2570   21.6050 C.2   102  PHE102      0.2595
     73  O         -5.3590   11.3030   21.2020 O.2   102  PHE102     -0.2718
     74  CB        -5.5790    9.5860   23.9580 C.3   102  PHE102      0.0547
     75  CG        -4.4110   10.4550   24.3110 C.ar  102  PHE102     -0.0202
     76  CD1       -4.5670   11.5220   25.2200 C.ar  102  PHE102     -0.0042
     77  CD2       -3.1540   10.2150   23.7530 C.ar  102  PHE102     -0.0042
     78  CE1       -3.4790   12.3450   25.5680 C.ar  102  PHE102     -0.0003
     79  CE2       -2.0460   11.0350   24.0860 C.ar  102  PHE102     -0.0003
     80  CZ        -2.2150   12.0990   24.9980 C.ar  102  PHE102     -0.0000
     81  N         -5.8100    9.1250   20.9290 N.am  103  CYS103     -0.1970
     82  CA        -5.0920    9.0230   19.6710 C.3   103  CYS103      0.1712
     83  C         -5.8650    8.2780   18.5860 C.2   103  CYS103      0.2296
     84  O         -6.7300    7.4590   18.8770 O.2   103  CYS103     -0.2864
     85  CB        -3.7620    8.3080   19.9370 C.3   103  CYS103      0.0983
     86  SG        -3.9720    6.8030   20.9670 S.3   103  CYS103     -0.0798
     87  N         -8.3250    6.7320   27.1970 N.3   118  PHE118     -0.1241
     88  CA        -7.9940    6.7320   28.6040 C.3   118  PHE118      0.1605
     89  C         -8.6770    5.5290   29.2430 C.2   118  PHE118      0.2264
     90  O         -8.3240    5.1310   30.3410 O.2   118  PHE118     -0.2867
     91  CB        -8.4700    8.0210   29.2640 C.3   118  PHE118      0.0534
     92  CG        -7.3950    9.0620   29.3270 C.ar  118  PHE118     -0.0203
     93  CD1       -6.8060    9.5390   28.1510 C.ar  118  PHE118     -0.0042
     94  CD2       -6.9170    9.5130   30.5570 C.ar  118  PHE118     -0.0042
     95  CE1       -5.7500   10.4460   28.1970 C.ar  118  PHE118     -0.0003
     96  CE2       -5.8590   10.4220   30.6140 C.ar  118  PHE118     -0.0003
     97  CZ        -5.2730   10.8890   29.4250 C.ar  118  PHE118     -0.0000
     98  N         -3.9730    4.5350   30.5380 N.3   142  PRO142     -0.2116
     99  CA        -4.2870    5.2240   29.2940 C.3   142  PRO142      0.1372
    100  C         -3.4010    4.8670   28.0970 C.2   142  PRO142      0.2244
    101  O         -2.1980    4.6760   28.2480 O.2   142  PRO142     -0.2868
    102  CB        -4.1910    6.7010   29.6980 C.3   142  PRO142      0.0268
    103  CG        -4.7090    6.6890   31.1250 C.3   142  PRO142      0.0207
    104  CD        -3.9540    5.4780   31.6790 C.3   142  PRO142      0.0892
    105  N         -1.5330    5.9150   24.8790 N.3   144  SER144     -0.1217
    106  CA        -0.9590    7.1390   24.3340 C.3   144  SER144      0.1889
    107  C         -0.8150    7.2740   22.8200 C.2   144  SER144      0.2288
    108  O         -0.7520    8.4060   22.2970 O.2   144  SER144     -0.2866
    109  CB         0.4050    7.3770   25.0020 C.3   144  SER144      0.2089
    110  OG         1.2630    6.2710   24.7860 O.3   144  SER144     -0.2183
    111  N          0.7340    4.3000   29.2650 N.3   160  TYR160     -0.1241
    112  CA         1.3530    4.7120   30.5100 C.3   160  TYR160      0.1605
    113  C          1.6710    3.4800   31.3590 C.2   160  TYR160      0.2264
    114  O          2.3780    3.5930   32.3730 O.2   160  TYR160     -0.2867
    115  CB         0.4290    5.6360   31.3020 C.3   160  TYR160      0.0534
    116  CG         0.5060    7.0860   30.8920 C.ar  160  TYR160     -0.0201
    117  CD1        0.0460    7.5040   29.6420 C.ar  160  TYR160     -0.0009
    118  CD2        1.0340    8.0440   31.7580 C.ar  160  TYR160     -0.0009
    119  CE1        0.1060    8.8470   29.2640 C.ar  160  TYR160      0.0417
    120  CE2        1.1010    9.3950   31.3960 C.ar  160  TYR160      0.0417
    121  CZ         0.6360    9.7860   30.1460 C.ar  160  TYR160      0.1957
    122  OH         0.6710   11.1170   29.7890 O.3   160  TYR160     -0.2866
    123  N          4.9740    7.2240   26.1710 N.3   187  SER187     -0.1202
    124  CA         4.1370    8.3530   25.7420 C.3   187  SER187      0.2020
    125  C          3.8260    8.4790   24.2630 C.2   187  SER187      0.2618
    126  O          2.9520    9.2350   23.8720 O.2   187  SER187     -0.2717
    127  CB         4.8030    9.6400   26.2320 C.3   187  SER187      0.2103
    128  OG         6.1770    9.6470   25.8660 O.3   187  SER187     -0.2182
    129  N          4.5390    7.7400   23.4310 N.am  188  PHE188     -0.1975
    130  CA         4.3010    7.8010   21.9950 C.3   188  PHE188      0.1639
    131  C          4.9690    6.6570   21.2770 C.2   188  PHE188      0.2290
    132  O          6.0020    6.1680   21.7080 O.2   188  PHE188     -0.2864
    133  CB         4.8460    9.1060   21.3900 C.3   188  PHE188      0.0560
    134  CG         4.5770    9.2240   19.9100 C.ar  188  PHE188     -0.0200
    135  CD1        3.2670    9.4220   19.4460 C.ar  188  PHE188     -0.0042
    136  CD2        5.5990    9.0700   18.9790 C.ar  188  PHE188     -0.0042
    137  CE1        2.9910    9.4540   18.0830 C.ar  188  PHE188     -0.0003
    138  CE2        5.3340    9.1070   17.6160 C.ar  188  PHE188     -0.0003
    139  CZ         4.0290    9.2970   17.1650 C.ar  188  PHE188     -0.0000
    140  N          9.1210   14.4990   30.4070 N.3   227  GLU227     -0.1231
    141  CA         8.7400   13.7270   31.5810 C.3   227  GLU227      0.1699
    142  C          7.2910   13.9470   31.9470 C.2   227  GLU227      0.2592
    143  O          6.7780   13.2530   32.8220 O.2   227  GLU227     -0.2718
    144  CB         9.5740   14.1210   32.7990 C.3   227  GLU227      0.0402
    145  CG        11.0590   13.9190   32.6720 C.3   227  GLU227      0.1161
    146  CD        11.7880   14.2130   33.9820 C.2   227  GLU227      0.3649
    147  OE1       11.2030   14.9240   34.8440 O.co2 227  GLU227     -0.2457
    148  OE2       12.9300   13.7510   34.1310 O.co2 227  GLU227     -0.2457
    149  N          6.6270   14.8900   31.2890 N.am  228  LYS228     -0.1966
    150  CA         5.2390   15.2040   31.6190 C.3   228  LYS228      0.1728
    151  C          4.1600   15.0540   30.5380 C.2   228  LYS228      0.2616
    152  O          3.0280   14.6570   30.8350 O.2   228  LYS228     -0.2715
    153  CB         5.1700   16.6390   32.1580 C.3   228  LYS228      0.0311
    154  CG         5.9860   16.8890   33.4220 C.3   228  LYS228      0.0038
    155  CD         5.8100   18.3280   33.9120 C.3   228  LYS228      0.0206
    156  CE         6.6440   18.6010   35.1620 C.3   228  LYS228      0.1093
    157  NZ         6.6980   20.0510   35.5140 N.3   228  LYS228     -0.1314
    158  N          4.4860   15.3680   29.2870 N.am  229  TYR229     -0.1960
    159  CA         3.4680   15.3310   28.2490 C.3   229  TYR229      0.1771
    160  C          3.7090   14.2760   27.1890 C.2   229  TYR229      0.2620
    161  O          4.8350   13.8590   26.9800 O.2   229  TYR229     -0.2715
    162  CB         3.3860   16.7000   27.5440 C.3   229  TYR229      0.0574
    163  CG         3.0090   17.8520   28.4530 C.ar  229  TYR229     -0.0198
    164  CD1        3.9880   18.5720   29.1410 C.ar  229  TYR229     -0.0009
    165  CD2        1.6680   18.2080   28.6380 C.ar  229  TYR229     -0.0009
    166  CE1        3.6350   19.6230   30.0050 C.ar  229  TYR229      0.0417
    167  CE2        1.3010   19.2450   29.4900 C.ar  229  TYR229      0.0417
    168  CZ         2.2880   19.9550   30.1680 C.ar  229  TYR229      0.1957
    169  OH         1.9270   21.0170   30.9650 O.3   229  TYR229     -0.2866
    170  N          2.6410   13.8420   26.5430 N.am  230  CYS230     -0.1954
    171  CA         2.8050   12.8970   25.4650 C.3   230  CYS230      0.1843
    172  C          3.1810   13.7410   24.2520 C.2   230  CYS230      0.2625
    173  O          2.3490   14.4300   23.6770 O.2   230  CYS230     -0.2714
    174  CB         1.5140   12.1260   25.2180 C.3   230  CYS230      0.0997
    175  SG         1.2390   10.9510   26.5820 S.3   230  CYS230     -0.0797
    176  N          4.4750   13.7170   23.9300 N.am  231  ILE231     -0.1963
    177  CA         5.0100   14.4670   22.8070 C.3   231  ILE231      0.1727
    178  C          5.3020   13.5570   21.6060 C.2   231  ILE231      0.2616
    179  O          5.9720   12.5220   21.7230 O.2   231  ILE231     -0.2715
    180  CB         6.2880   15.2120   23.2420 C.3   231  ILE231      0.0290
    181  CG1        5.9180   16.2110   24.3490 C.3   231  ILE231      0.0022
    182  CG2        6.9220   15.9490   22.0430 C.3   231  ILE231      0.0023
    183  CD1        7.0640   17.0900   24.8120 C.3   231  ILE231      0.0001
    184  N          4.7860   13.9530   20.4440 N.am  232  PHE232     -0.1974
    185  CA         4.9900   13.1850   19.2090 C.3   232  PHE232      0.1639
    186  C          6.4660   13.1910   18.8210 C.2   232  PHE232      0.2290
    187  O          7.2240   14.0440   19.2560 O.2   232  PHE232     -0.2864
    188  CB         4.2550   13.8050   18.0090 C.3   232  PHE232      0.0560
    189  CG         2.7580   13.7840   18.1130 C.ar  232  PHE232     -0.0200
    190  CD1        2.0820   14.7860   18.7950 C.ar  232  PHE232     -0.0042
    191  CD2        2.0220   12.7990   17.4480 C.ar  232  PHE232     -0.0042
    192  CE1        0.6870   14.8090   18.8310 C.ar  232  PHE232     -0.0003
    193  CE2        0.6150   12.8190   17.4830 C.ar  232  PHE232     -0.0003
    194  CZ        -0.0460   13.8320   18.1610 C.ar  232  PHE232     -0.0000
    195  N          4.4850   20.4260   21.9670 N.3   274  ILE274     -0.1245
    196  CA         3.7820   19.1660   22.1590 C.3   274  ILE274      0.1561
    197  C          3.6810   18.3050   20.8980 C.2   274  ILE274      0.2260
    198  O          3.5200   17.0830   20.9620 O.2   274  ILE274     -0.2867
    199  CB         2.3540   19.4940   22.7000 C.3   274  ILE274      0.0252
    200  CG1        1.6560   18.2370   23.2030 C.3   274  ILE274      0.0019
    201  CG2        1.5160   20.2020   21.5960 C.3   274  ILE274      0.0019
    202  CD1        2.1300   17.8280   24.5640 C.3   274  ILE274      0.0001
    203  N          1.9900   24.6150   23.7120 N.3   290  LEU290     -0.1231
    204  CA         0.9030   24.6860   24.6730 C.3   290  LEU290      0.1693
    205  C          0.4080   26.1020   24.9960 C.2   290  LEU290      0.2591
    206  O          0.7910   27.0780   24.3420 O.2   290  LEU290     -0.2718
    207  CB         1.2650   23.9060   25.9550 C.3   290  LEU290      0.0284
    208  CG         1.5760   22.4250   25.7100 C.3   290  LEU290      0.0019
    209  CD1        1.7640   21.6660   27.0540 C.3   290  LEU290      0.0001
    210  CD2        0.4270   21.7880   24.9050 C.3   290  LEU290      0.0001
    211  N         -0.4520   26.1820   26.0020 N.am  291  GLU291     -0.1979
    212  CA        -1.1470   27.3960   26.4220 C.3   291  GLU291      0.1602
    213  C         -0.5350   28.7740   26.3730 C.2   291  GLU291      0.2287
    214  O         -1.1900   29.6960   25.9440 O.2   291  GLU291     -0.2864
    215  CB        -1.7670   27.1550   27.7950 C.3   291  GLU291      0.0415
    216  CG        -2.8100   26.0580   27.7190 C.3   291  GLU291      0.1163
    217  CD        -3.4390   25.6910   29.0490 C.2   291  GLU291      0.3649
    218  OE1       -3.1690   26.3580   30.0540 O.co2 291  GLU291     -0.2457
    219  OE2       -4.2310   24.6870   29.0480 O.co2 291  GLU291     -0.2457
@<TRIPOS>BOND
     1    48    47   ar
     2    44    45    2
     3    44    43    1
     4   139   138   ar
     5   139   137   ar
     6    49    47   ar
     7    47    46    1
     8   191   193   ar
     9   191   189   ar
    10   193   194   ar
    11   138   136   ar
    12    35    33    1
    13    11    10    1
    14    43    46    1
    15    43    42    1
    16   188   189    1
    17   188   185    1
    18   137   135   ar
    19   189   190   ar
    20   194   192   ar
    21    34    32    1
    22    83    84    2
    23    83    82    1
    24   190   192   ar
    25   186   185    1
    26   186   187    2
    27    12    10    1
    28   136   134   ar
    29    33    32    1
    30    42    38   am
    31    10     7    1
    32   185   184    1
    33    32    29    1
    34   135   134   ar
    35    15    16    2
    36    15    14    1
    37    82    85    1
    38    82    81    1
    39   134   133    1
    40    85    86    1
    41    18    17    1
    42    38    39    2
    43    38    37    1
    44    13    14    1
    45    13     8   am
    46     7     8    1
    47     7     6    1
    48   184   178   am
    49    14    17    1
    50     8     9    2
    51    29    30    1
    52    29    28    1
    53   197   198    2
    54   197   196    1
    55    81    72   am
    56    30    36   am
    57    30    31    2
    58    73    72    2
    59    36    37    1
    60   131   132    2
    61   131   130    1
    62   133   130    1
    63     6     3   am
    64    37    40    1
    65   201   199    1
    66    72    71    1
    67   178   179    2
    68   178   177    1
    69    28    26   am
    70   195   196    1
    71   130   129    1
    72   182   180    1
    73   196   199    1
    74     4     3    2
    75    19    20    1
    76   108   107    2
    77     3     2    1
    78    40    41    1
    79   199   200    1
    80    26    27    2
    81    26    25    1
    82   177   180    1
    83   177   176    1
    84   107   106    1
    85    71    70    1
    86    71    74    1
    87    21    20    1
    88    21    22    2
    89   200   202    1
    90   180   181    1
    91   129   125   am
    92     2     1    1
    93     2     5    1
    94    25    24    1
    95   173   172    2
    96   203   204    1
    97    77    79   ar
    98    77    75   ar
    99   126   125    2
   100   176   172   am
   101    74    75    1
   102    50    51    1
   103    79    80   ar
   104   172   171    1
   105   125   124    1
   106    75    76   ar
   107   106   105    1
   108   106   109    1
   109   206   205    2
   110   181   183    1
   111   204   205    1
   112   204   207    1
   113   110   109    1
   114   210   208    1
   115   205   211   am
   116    80    78   ar
   117   174   171    1
   118   174   175    1
   119    76    78   ar
   120    51    52    1
   121    51    54    1
   122   171   170    1
   123    52    53    2
   124    60    61    2
   125    60    59    1
   126   208   207    1
   127   208   209    1
   128   124   123    1
   129   124   127    1
   130   128   127    1
   131   214   213    2
   132   211   212    1
   133    56    55   ar
   134    54    55    1
   135   213   212    1
   136   212   215    1
   137   170   160   am
   138    55    57   ar
   139    59    62    1
   140    59    58    1
   141   161   160    2
   142   160   159    1
   143    87    88    1
   144    62    63    1
   145   162   159    1
   146   162   163    1
   147   216   215    1
   148   216   217    1
   149   100   101    2
   150   100    99    1
   151    93    95   ar
   152    93    92   ar
   153    95    97   ar
   154   159   158    1
   155    63    64   ar
   156    63    65   ar
   157   163   165   ar
   158   163   164   ar
   159    88    89    1
   160    88    91    1
   161    64    66   ar
   162   165   167   ar
   163   219   217   ar
   164   217   218   ar
   165   164   166   ar
   166    65    67   ar
   167    89    90    2
   168   119   117   ar
   169   119   121   ar
   170    91    92    1
   171   111   112    1
   172   158   151   am
   173    99   102    1
   174    99    98    1
   175    92    94   ar
   176    97    96   ar
   177   167   168   ar
   178   117   116   ar
   179    66    68   ar
   180   102   103    1
   181   122   121    1
   182   166   168   ar
   183   121   120   ar
   184   168   169    1
   185    67    68   ar
   186   140   141    1
   187    68    69    1
   188   112   115    1
   189   112   113    1
   190   151   152    2
   191   151   150    1
   192    98   104    1
   193    94    96   ar
   194   116   115    1
   195   116   118   ar
   196   103   104    1
   197   149   150    1
   198   149   142   am
   199   113   114    2
   200   120   118   ar
   201   141   142    1
   202   141   144    1
   203   150   153    1
   204   142   143    2
   205   153   154    1
   206   145   144    1
   207   145   146    1
   208   154   155    1
   209   155   156    1
   210   146   148   ar
   211   146   147   ar
   212   156   157    1
