@<TRIPOS>MOLECULE
tmp/4a7wB00.pdb
 140 133 0 0 0
SMALL
GASTEIGER

@<TRIPOS>ATOM
      1  N         88.5440   41.1860   30.0440 N.3    77  GLN77      -0.1245
      2  CA        87.5340   40.6290   30.9380 C.3    77  GLN77       0.1566
      3  C         88.1090   39.4290   31.6980 C.2    77  GLN77       0.2260
      4  O         87.9300   39.3050   32.9080 O.2    77  GLN77      -0.2867
      5  CB        86.2760   40.2290   30.1560 C.3    77  GLN77       0.0367
      6  CG        85.2130   39.5230   30.9830 C.3    77  GLN77       0.0905
      7  CD        83.9030   39.3230   30.2220 C.2    77  GLN77       0.2608
      8  OE1       82.8310   39.7300   30.6840 O.2    77  GLN77      -0.2717
      9  NE2       83.9830   38.6950   29.0610 N.am   77  GLN77      -0.0878
     10  N         88.4510   39.3560   35.7460 N.3    81  GLU81      -0.1245
     11  CA        87.7180   38.3500   36.4880 C.3    81  GLU81       0.1567
     12  C         88.6870   37.4280   37.2200 C.2    81  GLU81       0.2260
     13  O         88.4010   36.9550   38.3200 O.2    81  GLU81      -0.2867
     14  CB        86.7630   37.5780   35.5630 C.3    81  GLU81       0.0388
     15  CG        85.6890   38.4870   34.9730 C.3    81  GLU81       0.1160
     16  CD        84.5310   37.7510   34.3070 C.2    81  GLU81       0.3649
     17  OE1       84.7500   36.6900   33.6840 O.co2  81  GLU81      -0.2457
     18  OE2       83.3910   38.2630   34.4040 O.co2  81  GLU81      -0.2457
     19  N         82.9250   41.6900   35.7250 N.3    87  THR87      -0.1203
     20  CA        83.1510   42.4510   34.4940 C.3    87  THR87       0.1994
     21  C         82.1070   42.1060   33.4360 C.2    87  THR87       0.2618
     22  O         81.6770   40.9580   33.3350 O.2    87  THR87      -0.2717
     23  CB        84.5790   42.1860   33.9500 C.3    87  THR87       0.1784
     24  OG1       85.5330   42.5990   34.9370 O.3    87  THR87      -0.2211
     25  CG2       84.8560   42.9660   32.6760 C.3    87  THR87       0.0376
     26  N         81.6810   43.1110   32.6740 N.am   88  ARG88      -0.1965
     27  CA        80.7440   42.9110   31.5750 C.3    88  ARG88       0.1729
     28  C         81.3190   43.5270   30.3020 C.2    88  ARG88       0.2616
     29  O         81.9350   44.5980   30.3390 O.2    88  ARG88      -0.2715
     30  CB        79.3880   43.5400   31.8950 C.3    88  ARG88       0.0348
     31  CG        78.7780   43.0760   33.2160 C.3    88  ARG88       0.0492
     32  CD        78.3130   41.6180   33.1530 C.3    88  ARG88       0.2205
     33  NE        77.6900   41.1600   34.3950 N.pl3  88  ARG88      -0.0865
     34  CZ        78.3390   40.5410   35.3750 C.cat  88  ARG88       0.5346
     35  NH1       79.6360   40.3080   35.2740 N.pl3  88  ARG88       0.1354
     36  NH2       77.6890   40.1510   36.4610 N.pl3  88  ARG88       0.1354
     37  N         81.1310   42.8410   29.1790 N.am   89  VAL89      -0.1977
     38  CA        81.5790   43.3680   27.8920 C.3    89  VAL89       0.1596
     39  C         80.3710   43.6980   27.0270 C.2    89  VAL89       0.2287
     40  O         79.5160   42.8470   26.8010 O.2    89  VAL89      -0.2864
     41  CB        82.4850   42.3730   27.1420 C.3    89  VAL89       0.0276
     42  CG1       82.8600   42.9280   25.7770 C.3    89  VAL89       0.0022
     43  CG2       83.7440   42.0440   27.9680 C.3    89  VAL89       0.0022
     44  N         76.3790   37.9530   19.8910 N.3    96  LYS96      -0.1231
     45  CA        75.7320   37.5630   21.1500 C.3    96  LYS96       0.1693
     46  C         76.3840   36.4060   21.9030 C.2    96  LYS96       0.2592
     47  O         76.3910   36.3920   23.1330 O.2    96  LYS96      -0.2718
     48  CB        74.2240   37.3150   20.9740 C.3    96  LYS96       0.0285
     49  CG        73.8510   36.0080   20.3040 C.3    96  LYS96       0.0035
     50  CD        72.3350   35.8360   20.2530 C.3    96  LYS96       0.0206
     51  CE        71.9420   34.4920   19.6200 C.3    96  LYS96       0.1093
     52  NZ        72.4510   34.3410   18.2160 N.3    96  LYS96      -0.1314
     53  N         76.9230   35.4270   21.1880 N.am   97  GLU97      -0.1966
     54  CA        77.5570   34.3080   21.8760 C.3    97  GLU97       0.1733
     55  C         78.7510   34.7480   22.7200 C.2    97  GLU97       0.2616
     56  O         79.0720   34.1220   23.7380 O.2    97  GLU97      -0.2715
     57  CB        77.9920   33.2340   20.8840 C.3    97  GLU97       0.0429
     58  CG        76.8410   32.3650   20.3870 C.3    97  GLU97       0.1163
     59  CD        76.0850   33.0030   19.2400 C.2    97  GLU97       0.3649
     60  OE1       76.5080   34.0770   18.7580 O.co2  97  GLU97      -0.2457
     61  OE2       75.0670   32.4240   18.8170 O.co2  97  GLU97      -0.2457
     62  N         79.3990   35.8320   22.2980 N.am   98  ILE98      -0.1963
     63  CA        80.6900   36.2210   22.8580 C.3    98  ILE98       0.1727
     64  C         80.6150   37.3160   23.9400 C.2    98  ILE98       0.2616
     65  O         81.3390   37.2620   24.9440 O.2    98  ILE98      -0.2715
     66  CB        81.6660   36.6360   21.7360 C.3    98  ILE98       0.0290
     67  CG1       81.8010   35.4900   20.7250 C.3    98  ILE98       0.0022
     68  CG2       83.0090   37.0200   22.3240 C.3    98  ILE98       0.0023
     69  CD1       82.8220   35.7290   19.6530 C.3    98  ILE98       0.0001
     70  N         79.7510   38.3030   23.7360 N.am   99  CYS99      -0.1954
     71  CA        79.5820   39.3800   24.7030 C.3    99  CYS99       0.1843
     72  C         78.1820   39.9860   24.5930 C.2    99  CYS99       0.2625
     73  O         77.4060   39.6100   23.7160 O.2    99  CYS99      -0.2714
     74  CB        80.6530   40.4560   24.4980 C.3    99  CYS99       0.0997
     75  SG        80.6450   41.2030   22.8520 S.3    99  CYS99      -0.0797
     76  N         77.8510   40.9130   25.4910 N.am  100  GLU100     -0.1963
     77  CA        76.5680   41.6000   25.4250 C.3   100  GLU100      0.1733
     78  C         76.6310   42.6580   24.3370 C.2   100  GLU100      0.2617
     79  O         77.7160   43.0690   23.9350 O.2   100  GLU100     -0.2715
     80  CB        76.2570   42.3010   26.7430 C.3   100  GLU100      0.0429
     81  CG        76.4130   41.4370   27.9860 C.3   100  GLU100      0.1163
     82  CD        76.0990   42.2040   29.2580 C.2   100  GLU100      0.3649
     83  OE1       75.6120   43.3640   29.1690 O.co2 100  GLU100     -0.2457
     84  OE2       76.3460   41.6500   30.3500 O.co2 100  GLU100     -0.2457
     85  N         75.4660   43.0960   23.8710 N.am  101  SER101     -0.1950
     86  CA        75.3770   44.2800   23.0220 C.3   101  SER101      0.1924
     87  C         75.3720   45.5220   23.9040 C.2   101  SER101      0.2314
     88  O         75.0050   45.4540   25.0790 O.2   101  SER101     -0.2863
     89  CB        74.0880   44.2550   22.2010 C.3   101  SER101      0.2116
     90  OG        74.0290   43.0800   21.4190 O.3   101  SER101     -0.2180
     91  N         71.1630   48.8280   30.4360 N.3   106  LYS106     -0.1245
     92  CA        71.9280   47.7320   31.0070 C.3   106  LYS106      0.1561
     93  C         73.3210   48.1930   31.4670 C.2   106  LYS106      0.2260
     94  O         73.7910   47.7850   32.5260 O.2   106  LYS106     -0.2867
     95  CB        72.0500   46.5730   30.0160 C.3   106  LYS106      0.0271
     96  CG        70.9110   45.5580   30.0890 C.3   106  LYS106      0.0035
     97  CD        71.4270   44.1840   29.6490 C.3   106  LYS106      0.0206
     98  CE        71.0290   43.0450   30.5810 C.3   106  LYS106      0.1093
     99  NZ        71.4650   43.2200   31.9970 N.3   106  LYS106     -0.1314
    100  N         72.9380   50.0870   34.7390 N.3   109  ARG109     -0.1231
    101  CA        72.6730   49.1180   35.8060 C.3   109  ARG109      0.1694
    102  C         73.9530   48.3970   36.2340 C.2   109  ARG109      0.2592
    103  O         74.2370   48.2780   37.4260 O.2   109  ARG109     -0.2718
    104  CB        71.5980   48.1160   35.3680 C.3   109  ARG109      0.0321
    105  CG        71.3710   46.9650   36.3210 C.3   109  ARG109      0.0489
    106  CD        70.6270   47.3830   37.5940 C.3   109  ARG109      0.2205
    107  NE        69.2460   47.8080   37.3390 N.pl3 109  ARG109     -0.0865
    108  CZ        68.1980   46.9830   37.2560 C.cat 109  ARG109      0.5346
    109  NH1       68.3540   45.6680   37.4060 N.pl3 109  ARG109      0.1354
    110  NH2       66.9840   47.4780   37.0210 N.pl3 109  ARG109      0.1354
    111  N         74.7250   47.9270   35.2580 N.am  110  HIS110     -0.1976
    112  CA        76.0110   47.2720   35.5240 C.3   110  HIS110      0.1656
    113  C         76.9160   48.1590   36.3760 C.2   110  HIS110      0.2291
    114  O         77.5140   47.7030   37.3440 O.2   110  HIS110     -0.2864
    115  CB        76.7630   46.9710   34.2170 C.3   110  HIS110      0.0771
    116  CG        76.1890   45.8450   33.4120 C.ar  110  HIS110      0.0820
    117  ND1       75.4540   44.8220   33.9700 N.ar  110  HIS110     -0.2267
    118  CD2       76.2660   45.5740   32.0860 C.ar  110  HIS110      0.1154
    119  CE1       75.0920   43.9740   33.0220 C.ar  110  HIS110      0.1986
    120  NE2       75.5710   44.4080   31.8700 N.ar  110  HIS110     -0.2212
    121  N         75.9210   48.6560   39.9370 N.3   113  LYS113     -0.1245
    122  CA        76.1270   47.4710   40.7610 C.3   113  LYS113      0.1561
    123  C         77.6060   47.1250   40.9290 C.2   113  LYS113      0.2260
    124  O         77.9510   46.0750   41.4550 O.2   113  LYS113     -0.2867
    125  CB        75.3270   46.2880   40.2180 C.3   113  LYS113      0.0271
    126  CG        73.8280   46.5590   40.2450 C.3   113  LYS113      0.0035
    127  CD        73.0130   45.3920   39.7490 C.3   113  LYS113      0.0206
    128  CE        72.9970   44.2590   40.7570 C.3   113  LYS113      0.1093
    129  NZ        72.2510   43.0660   40.2320 N.3   113  LYS113     -0.1314
    130  N         80.0280   46.6430   38.6510 N.3   115  ARG115     -0.1245
    131  CA        80.7260   45.9190   37.5900 C.3   115  ARG115      0.1563
    132  C         81.5910   46.8750   36.7590 C.2   115  ARG115      0.2260
    133  O         81.2300   48.0320   36.5590 O.2   115  ARG115     -0.2867
    134  CB        79.7310   45.2230   36.6520 C.3   115  ARG115      0.0307
    135  CG        79.0030   44.0090   37.2440 C.3   115  ARG115      0.0489
    136  CD        77.8540   44.4200   38.1730 C.3   115  ARG115      0.2205
    137  NE        76.8070   43.3980   38.2680 N.pl3 115  ARG115     -0.0865
    138  CZ        76.8110   42.4100   39.1550 C.cat 115  ARG115      0.5346
    139  NH1       77.8140   42.3090   40.0240 N.pl3 115  ARG115      0.1354
    140  NH2       75.8150   41.5280   39.1830 N.pl3 115  ARG115      0.1354
@<TRIPOS>BOND
     1    52    51    1
     2    60    59   ar
     3    61    59   ar
     4    59    58    1
     5    51    50    1
     6    69    67    1
     7    44    45    1
     8    50    49    1
     9    49    48    1
    10    58    57    1
    11    67    66    1
    12    57    54    1
    13    48    45    1
    14    45    46    1
    15    53    54    1
    16    53    46   am
    17    90    89    1
    18    66    68    1
    19    66    63    1
    20    54    55    1
    21    46    47    2
    22    89    86    1
    23    62    55   am
    24    62    63    1
    25    55    56    2
    26    75    74    1
    27    63    64    1
    28    86    85    1
    29    86    87    1
    30    73    72    2
    31    70    64   am
    32    70    71    1
    33    85    78   am
    34    87    88    2
    35    79    78    2
    36    64    65    2
    37    78    77    1
    38    74    71    1
    39    72    71    1
    40    72    76   am
    41    77    76    1
    42    77    80    1
    43    42    41    1
    44    80    81    1
    45    40    39    2
    46    39    38    1
    47    41    38    1
    48    41    43    1
    49    38    37    1
    50    81    82    1
    51     9     7   am
    52    83    82   ar
    53    37    28   am
    54    82    84   ar
    55    97    96    1
    56    97    98    1
    57    95    96    1
    58    95    92    1
    59     1     2    1
    60     5     2    1
    61     5     6    1
    62     7     8    2
    63     7     6    1
    64    28    29    2
    65    28    27    1
    66    91    92    1
    67    98    99    1
    68     2     3    1
    69    92    93    1
    70    93    94    2
    71    27    30    1
    72    27    26    1
    73     3     4    2
    74   120   118   ar
    75   120   119   ar
    76    30    31    1
    77   118   116   ar
    78    26    21   am
    79    25    23    1
    80   119   117   ar
    81    32    31    1
    82    32    33    1
    83    22    21    2
    84   116   117   ar
    85   116   115    1
    86    21    20    1
    87    17    16   ar
    88    23    20    1
    89    23    24    1
    90   115   112    1
    91    16    18   ar
    92    16    15    1
    93    33    34    2
    94    20    19    1
    95   100   101    1
    96    15    14    1
    97   111   112    1
    98   111   102   am
    99    35    34    1
   100   104   101    1
   101   104   105    1
   102    34    36    1
   103   112   113    1
   104    14    11    1
   105    10    11    1
   106   101   102    1
   107   102   103    2
   108   105   106    1
   109   113   114    2
   110    11    12    1
   111   133   132    2
   112   134   135    1
   113   134   131    1
   114   132   131    1
   115   110   108    1
   116    12    13    2
   117   135   136    1
   118   108   107    2
   119   108   109    1
   120   107   106    1
   121   131   130    1
   122   136   137    1
   123   137   138    2
   124   138   140    1
   125   138   139    1
   126   127   126    1
   127   127   128    1
   128   121   122    1
   129   125   126    1
   130   125   122    1
   131   129   128    1
   132   122   123    1
   133   123   124    2
