@<TRIPOS>MOLECULE
tmp/4a7xC00.pdb
 175 168 0 0 0
SMALL
GASTEIGER

@<TRIPOS>ATOM
      1  N        125.9880   -1.0450   65.1410 N.3     7  LYS7       -0.1245
      2  CA       124.6980   -1.3880   64.5680 C.3     7  LYS7        0.1561
      3  C        124.2900   -2.8020   64.9640 C.2     7  LYS7        0.2260
      4  O        125.0730   -3.7450   64.8490 O.2     7  LYS7       -0.2867
      5  CB       124.7410   -1.2420   63.0450 C.3     7  LYS7        0.0271
      6  CG       123.4320   -1.5450   62.3240 C.3     7  LYS7        0.0035
      7  CD       123.4540   -2.9260   61.6710 C.3     7  LYS7        0.0206
      8  CE       122.1030   -3.2730   61.0480 C.3     7  LYS7        0.1093
      9  NZ       122.1580   -4.5530   60.2720 N.3     7  LYS7       -0.1314
     10  N        120.9650   -5.4590   64.1950 N.3     9  SER9       -0.1202
     11  CA       119.6640   -5.7140   63.5980 C.3     9  SER9        0.2020
     12  C        118.6620   -5.8780   64.7340 C.2     9  SER9        0.2619
     13  O        119.0410   -6.2430   65.8510 O.2     9  SER9       -0.2717
     14  CB       119.6930   -6.9750   62.7390 C.3     9  SER9        0.2103
     15  OG       119.8280   -8.1260   63.5460 O.3     9  SER9       -0.2182
     16  N        117.3930   -5.5960   64.4550 N.am   10  GLY10      -0.1942
     17  CA       116.3310   -5.8670   65.4100 C.3    10  GLY10       0.2014
     18  C        116.3010   -7.3190   65.8710 C.2    10  GLY10       0.2638
     19  O        116.1090   -7.5910   67.0570 O.2    10  GLY10      -0.2714
     20  N        116.5130   -8.2420   64.9340 N.am   11  GLU11      -0.1977
     21  CA       116.4930   -9.6830   65.2100 C.3    11  GLU11       0.1602
     22  C        117.5120  -10.1390   66.2610 C.2    11  GLU11       0.2287
     23  O        117.2710  -11.0890   67.0090 O.2    11  GLU11      -0.2864
     24  CB       116.6920  -10.4660   63.9140 C.3    11  GLU11       0.0415
     25  CG       115.8720   -9.9170   62.7450 C.3    11  GLU11       0.1163
     26  CD       115.4550  -10.9920   61.7560 C.2    11  GLU11       0.3649
     27  OE1      116.1210  -12.0520   61.6930 O.co2  11  GLU11      -0.2457
     28  OE2      114.4510  -10.7740   61.0370 O.co2  11  GLU11      -0.2457
     29  N        117.7790   -1.9410   64.5700 N.3    48  GLY48      -0.1210
     30  CA       116.6850   -2.2840   63.6600 C.3    48  GLY48       0.1956
     31  C        115.3880   -2.6060   64.3870 C.2    48  GLY48       0.2612
     32  O        115.3290   -2.5640   65.6180 O.2    48  GLY48      -0.2717
     33  N        114.3410   -2.9250   63.6280 N.am   49  GLY49      -0.1942
     34  CA       113.0360   -3.2350   64.2090 C.3    49  GLY49       0.2014
     35  C        112.4780   -4.5420   63.6870 C.2    49  GLY49       0.2639
     36  O        111.2790   -4.8310   63.8300 O.2    49  GLY49      -0.2714
     37  N        113.3790   -5.3270   63.1460 N.am   50  GLY50      -0.1954
     38  CA       113.1070   -6.5770   62.4890 C.3    50  GLY50       0.1869
     39  C        112.4450   -7.5770   63.3530 C.2    50  GLY50       0.2309
     40  O        111.7070   -8.3510   62.8770 O.2    50  GLY50      -0.2863
     41  N        108.6410   -5.5860   63.3090 N.3    53  ILE53      -0.1231
     42  CA       108.0490   -5.3200   62.0280 C.3    53  ILE53       0.1692
     43  C        109.0390   -5.0310   60.9450 C.2    53  ILE53       0.2592
     44  O        109.9310   -4.2760   61.1340 O.2    53  ILE53      -0.2718
     45  CB       107.2150   -4.0900   62.1190 C.3    53  ILE53       0.0266
     46  CG1      105.8790   -4.4510   62.6730 C.3    53  ILE53       0.0019
     47  CG2      106.9860   -3.5320   60.7840 C.3    53  ILE53       0.0020
     48  CD1      105.2610   -3.3600   63.3040 C.3    53  ILE53       0.0001
     49  N        108.8470   -5.6090   59.7850 N.am   54  ARG54      -0.1966
     50  CA       109.6220   -5.2780   58.5940 C.3    54  ARG54       0.1729
     51  C        108.6690   -4.6840   57.5740 C.2    54  ARG54       0.2617
     52  O        107.6170   -5.2690   57.2870 O.2    54  ARG54      -0.2715
     53  CB       110.3170   -6.5130   58.0160 C.3    54  ARG54       0.0348
     54  CG       111.5490   -6.9410   58.7740 C.3    54  ARG54       0.0492
     55  CD       112.2230   -8.1500   58.1300 C.3    54  ARG54       0.2205
     56  NE       113.4120   -8.5770   58.8750 N.pl3  54  ARG54      -0.0865
     57  CZ       114.5410   -7.8710   58.9620 C.cat  54  ARG54       0.5346
     58  NH1      114.6480   -6.6880   58.3590 N.pl3  54  ARG54       0.1354
     59  NH2      115.5670   -8.3370   59.6660 N.pl3  54  ARG54       0.1354
     60  N        109.0420   -3.5240   57.0360 N.am   55  GLY55      -0.1940
     61  CA       108.2430   -2.8030   56.0430 C.3    55  GLY55       0.2014
     62  C        107.9140   -3.5930   54.7970 C.2    55  GLY55       0.2638
     63  O        106.7940   -3.5130   54.2890 O.2    55  GLY55      -0.2714
     64  N        108.8830   -4.3620   54.3060 N.am   56  VAL56      -0.1977
     65  CA       108.6750   -5.1930   53.1210 C.3    56  VAL56       0.1596
     66  C        107.7200   -6.3570   53.4020 C.2    56  VAL56       0.2287
     67  O        106.8450   -6.6510   52.5800 O.2    56  VAL56      -0.2864
     68  CB       110.0140   -5.7010   52.4870 C.3    56  VAL56       0.0276
     69  CG1      110.7990   -4.5460   51.8630 C.3    56  VAL56       0.0022
     70  CG2      110.8810   -6.4470   53.5150 C.3    56  VAL56       0.0022
     71  N        103.7380    0.0970   51.2480 N.3    66  ARG66      -0.1245
     72  CA       105.1440   -0.0160   51.6100 C.3    66  ARG66       0.1563
     73  C        105.6310    1.1230   52.5170 C.2    66  ARG66       0.2260
     74  O        106.3540    0.8750   53.4840 O.2    66  ARG66      -0.2867
     75  CB       105.9960   -0.1400   50.3380 C.3    66  ARG66       0.0307
     76  CG       107.4980   -0.0680   50.5380 C.3    66  ARG66       0.0489
     77  CD       108.0420   -1.1250   51.5140 C.3    66  ARG66       0.2205
     78  NE       109.4200   -0.8260   51.9130 N.pl3  66  ARG66      -0.0865
     79  CZ       110.4930   -1.1200   51.1770 C.cat  66  ARG66       0.5346
     80  NH1      110.3540   -1.7310   49.9960 N.pl3  66  ARG66       0.1354
     81  NH2      111.7080   -0.8100   51.6180 N.pl3  66  ARG66       0.1354
     82  N        107.0370    0.8720   56.2050 N.3    70  ASP70      -0.1239
     83  CA       108.3280    1.3840   56.6810 C.3    70  ASP70       0.1674
     84  C        108.1980    2.2770   57.9080 C.2    70  ASP70       0.2266
     85  O        109.0810    2.2690   58.7620 O.2    70  ASP70      -0.2867
     86  CB       109.1020    2.0940   55.5740 C.3    70  ASP70       0.1410
     87  CG       109.7010    1.1300   54.5580 C.2    70  ASP70       0.3668
     88  OD1      109.8210   -0.0780   54.8480 O.co2  70  ASP70      -0.2456
     89  OD2      110.0510    1.5860   53.4530 O.co2  70  ASP70      -0.2456
     90  N        107.8460    0.0230   60.8380 N.3    73  GLY73      -0.1210
     91  CA       109.1840   -0.4700   61.1620 C.3    73  GLY73       0.1956
     92  C        110.0260    0.5410   61.9080 C.2    73  GLY73       0.2611
     93  O        110.8100    0.1820   62.8030 O.2    73  GLY73      -0.2717
     94  N        109.8640    1.8140   61.5680 N.am   74  MET74      -0.1979
     95  CA       110.6370    2.8570   62.2330 C.3    74  MET74       0.1605
     96  C        110.1400    3.0660   63.6540 C.2    74  MET74       0.2287
     97  O        110.9260    3.3690   64.5370 O.2    74  MET74      -0.2864
     98  CB       110.6460    4.1670   61.4280 C.3    74  MET74       0.0413
     99  CG       111.5820    4.1510   60.2090 C.3    74  MET74       0.0598
    100  SD       111.6760    5.7470   59.3370 S.3    74  MET74      -0.1393
    101  CE       110.3920    5.5480   58.0910 C.3    74  MET74       0.0692
    102  N        111.7280    0.3440   65.8380 N.3    77  THR77      -0.1218
    103  CA       113.1050    0.6260   66.2490 C.3    77  THR77       0.1862
    104  C        113.1300    1.5340   67.4620 C.2    77  THR77       0.2287
    105  O        114.1000    1.5340   68.2300 O.2    77  THR77      -0.2866
    106  CB       113.9070    1.3410   65.1540 C.3    77  THR77       0.1770
    107  OG1      113.3960    2.6650   64.9970 O.3    77  THR77      -0.2211
    108  CG2      113.8320    0.5940   63.8320 C.3    77  THR77       0.0375
    109  N        114.5160    5.0640   64.6800 N.3   129  ALA129     -0.1231
    110  CA       113.8100    5.4680   63.4370 C.3   129  ALA129      0.1694
    111  C        114.6960    5.5900   62.1980 C.2   129  ALA129      0.2593
    112  O        114.2830    6.1830   61.1910 O.2   129  ALA129     -0.2718
    113  CB       112.9800    6.7310   63.6460 C.3   129  ALA129      0.0304
    114  N        115.8970    5.0170   62.2680 N.am  130  GLY130     -0.1942
    115  CA       116.8060    4.9620   61.1250 C.3   130  GLY130      0.2014
    116  C        117.1050    6.3360   60.5640 C.2   130  GLY130      0.2639
    117  O        117.5120    7.2410   61.3030 O.2   130  GLY130     -0.2714
    118  N        116.8770    6.4950   59.2630 N.am  131  THR131     -0.1950
    119  CA       117.0480    7.7750   58.5920 C.3   131  THR131      0.1897
    120  C        115.8160    8.6740   58.7710 C.2   131  THR131      0.2313
    121  O        115.8670    9.8760   58.4910 O.2   131  THR131     -0.2863
    122  CB       117.2910    7.5870   57.0690 C.3   131  THR131      0.1794
    123  OG1      116.1500    6.9590   56.4700 O.3   131  THR131     -0.2208
    124  CG2      118.5390    6.7430   56.7950 C.3   131  THR131      0.0378
    125  N        113.4160    8.2410   56.8420 N.3   133  ASN133     -0.1226
    126  CA       112.8070    8.1100   55.5110 C.3   133  ASN133      0.1770
    127  C        112.4870    6.6410   55.2170 C.2   133  ASN133      0.2439
    128  O        113.2940    5.7560   55.5340 O.2   133  ASN133     -0.2733
    129  CB       113.7270    8.6370   54.4000 C.3   133  ASN133      0.1168
    130  CG       114.1960   10.0650   54.6290 C.2   133  ASN133      0.2627
    131  OD1      113.4020   11.0030   54.7040 O.2   133  ASN133     -0.2716
    132  ND2      115.5060   10.2350   54.7040 N.am  133  ASN133     -0.0877
    133  N        111.3820    6.4040   54.5520 N.am  134  PRO134     -0.2718
    134  CA       111.0430    5.0780   54.0930 C.3   134  PRO134      0.1535
    135  C        111.9380    4.6540   52.9710 C.2   134  PRO134      0.2599
    136  O        112.5440    5.4490   52.3480 O.2   134  PRO134     -0.2715
    137  CB       109.6390    5.2640   53.5870 C.3   134  PRO134      0.0310
    138  CG       109.4310    6.6310   53.5330 C.3   134  PRO134      0.0237
    139  CD       110.1940    7.2390   54.5610 C.3   134  PRO134      0.0939
    140  N        112.0530    3.3740   52.7700 N.am  135  PHE135     -0.1960
    141  CA       112.8230    2.8440   51.6920 C.3   135  PHE135      0.1771
    142  C        114.2840    2.7560   51.9530 C.2   135  PHE135      0.2620
    143  O        114.9960    2.3440   51.1150 O.2   135  PHE135     -0.2715
    144  CB       112.5610    3.6130   50.4070 C.3   135  PHE135      0.0574
    145  CG       111.1580    3.5510   49.9650 C.ar  135  PHE135     -0.0200
    146  CD1      110.6580    2.4190   49.4250 C.ar  135  PHE135     -0.0042
    147  CD2      110.3240    4.6020   50.1480 C.ar  135  PHE135     -0.0042
    148  CE1      109.3870    2.3550   49.0590 C.ar  135  PHE135     -0.0003
    149  CE2      109.0710    4.5230   49.7930 C.ar  135  PHE135     -0.0003
    150  CZ       108.5980    3.4010   49.2480 C.ar  135  PHE135     -0.0000
    151  N        114.7360    3.1090   53.1330 N.am  136  PHE136     -0.1960
    152  CA       116.1440    3.0080   53.4330 C.3   136  PHE136      0.1771
    153  C        116.3040    1.9510   54.4850 C.2   136  PHE136      0.2620
    154  O        115.3820    1.5990   55.1310 O.2   136  PHE136     -0.2715
    155  CB       116.7260    4.3280   53.8520 C.3   136  PHE136      0.0574
    156  CG       117.0160    5.2380   52.7360 C.ar  136  PHE136     -0.0200
    157  CD1      118.0280    4.9890   51.8730 C.ar  136  PHE136     -0.0042
    158  CD2      116.2910    6.3620   52.5530 C.ar  136  PHE136     -0.0042
    159  CE1      118.2880    5.8350   50.8450 C.ar  136  PHE136     -0.0003
    160  CE2      116.5670    7.2020   51.5210 C.ar  136  PHE136     -0.0003
    161  CZ       117.5680    6.9310   50.6750 C.ar  136  PHE136     -0.0000
    162  N        117.4820    1.4010   54.6080 N.am  137  THR137     -0.1937
    163  CA       117.7200    0.2730   55.4770 C.3   137  THR137      0.2028
    164  C        118.3830    0.7220   56.7750 C.2   137  THR137      0.2642
    165  O        118.8770    1.8450   56.8790 O.2   137  THR137     -0.2714
    166  CB       118.6280   -0.7520   54.7900 C.3   137  THR137      0.1808
    167  OG1      119.9570   -0.2200   54.7010 O.3   137  THR137     -0.2208
    168  CG2      118.1150   -1.0960   53.3960 C.3   137  THR137      0.0379
    169  N        118.4010   -0.1710   57.7610 N.am  138  THR138     -0.1950
    170  CA       119.0730    0.0880   59.0250 C.3   138  THR138      0.1897
    171  C        120.5830    0.2440   58.8250 C.2   138  THR138      0.2313
    172  O        121.2320    1.0300   59.5260 O.2   138  THR138     -0.2863
    173  CB       118.7350   -1.0110   60.0600 C.3   138  THR138      0.1794
    174  OG1      117.3210   -0.9940   60.3040 O.3   138  THR138     -0.2208
    175  CG2      119.4480   -0.7770   61.3860 C.3   138  THR138      0.0378
@<TRIPOS>BOND
     1   148   150   ar
     2   148   146   ar
     3   150   149   ar
     4   146   145   ar
     5   149   147   ar
     6   145   147   ar
     7   145   144    1
     8    80    79    1
     9    75    76    1
    10    75    72    1
    11   144   141    1
    12    76    77    1
    13   161   159   ar
    14   161   160   ar
    15   159   157   ar
    16   143   142    2
    17    79    81    1
    18    79    78    2
    19    71    72    1
    20    77    78    1
    21   160   158   ar
    22    72    73    1
    23   141   142    1
    24   141   140    1
    25    69    68    1
    26   157   156   ar
    27   142   151   am
    28   136   135    2
    29    68    65    1
    30    68    70    1
    31    73    74    2
    32   158   156   ar
    33    67    66    2
    34   156   155    1
    35   140   135   am
    36   135   134    1
    37    65    66    1
    38    65    64    1
    39   151   152    1
    40   168   166    1
    41   152   155    1
    42   152   153    1
    43    89    87   ar
    44   138   137    1
    45   138   139    1
    46   137   134    1
    47   134   133    1
    48    63    62    2
    49    64    62   am
    50   129   130    1
    51   129   126    1
    52   153   162   am
    53   153   154    2
    54   133   139    1
    55   133   127   am
    56    87    88   ar
    57    87    86    1
    58   162   163    1
    59   130   131    2
    60   130   132   am
    61   167   166    1
    62   166   163    1
    63    62    61    1
    64   127   126    1
    65   127   128    2
    66   163   164    1
    67   126   125    1
    68    86    83    1
    69    61    60    1
    70    82    83    1
    71   123   122    1
    72    83    84    1
    73   164   165    2
    74   164   169   am
    75   124   122    1
    76    60    51   am
    77   122   119    1
    78    52    51    2
    79    51    50    1
    80   169   170    1
    81    84    85    2
    82    53    50    1
    83    53    54    1
    84   101   100    1
    85    55    54    1
    86    55    56    1
    87    58    57    1
    88   121   120    2
    89   119   120    1
    90   119   118    1
    91    50    49    1
    92   171   170    1
    93   171   172    2
    94    56    57    2
    95    57    59    1
    96   170   173    1
    97   118   116   am
    98   100    99    1
    99    49    43   am
   100   173   174    1
   101   173   175    1
   102    99    98    1
   103     9     8    1
   104   116   115    1
   105   116   117    2
   106    47    45    1
   107    90    91    1
   108    43    44    2
   109    43    42    1
   110    28    26   ar
   111     8     7    1
   112   115   114    1
   113    91    92    1
   114   112   111    2
   115    98    95    1
   116    94    92   am
   117    94    95    1
   118     7     6    1
   119    27    26   ar
   120    26    25    1
   121    92    93    2
   122    42    45    1
   123    42    41    1
   124    45    46    1
   125   111   114   am
   126   111   110    1
   127    95    96    1
   128     6     5    1
   129    38    37    1
   130    38    39    1
   131    46    48    1
   132    14    15    1
   133    14    11    1
   134    25    24    1
   135    40    39    2
   136     5     2    1
   137    37    35   am
   138   110   113    1
   139   110   109    1
   140    11    10    1
   141    11    12    1
   142    33    34    1
   143    33    31   am
   144    96    97    2
   145    30    31    1
   146    30    29    1
   147    35    36    2
   148    35    34    1
   149   108   106    1
   150    24    21    1
   151    31    32    2
   152    16    12   am
   153    16    17    1
   154     2     3    1
   155     2     1    1
   156    12    13    2
   157     4     3    2
   158    20    21    1
   159    20    18   am
   160   107   106    1
   161   106   103    1
   162    21    22    1
   163    17    18    1
   164   102   103    1
   165    18    19    2
   166   103   104    1
   167    22    23    2
   168   104   105    2
