@<TRIPOS>MOLECULE
tmp/4a7yA01.pdb
 84 82 0 0 0
SMALL
GASTEIGER

@<TRIPOS>ATOM
      1  N        -13.5920  -37.2250   30.2860 N.3   436  ARG436     -0.1245
      2  CA       -14.3500  -36.8590   29.0700 C.3   436  ARG436      0.1563
      3  C        -15.4680  -35.8740   29.4270 C.2   436  ARG436      0.2260
      4  O        -16.3740  -36.2100   30.1980 O.2   436  ARG436     -0.2867
      5  CB       -14.9670  -38.1150   28.4170 C.3   436  ARG436      0.0307
      6  CG       -14.0070  -39.2380   28.0460 C.3   436  ARG436      0.0489
      7  CD       -13.3580  -39.0360   26.6770 C.3   436  ARG436      0.2205
      8  NE       -12.2070  -39.9130   26.4700 N.pl3 436  ARG436     -0.0865
      9  CZ       -11.4150  -39.8820   25.4080 C.cat 436  ARG436      0.5346
     10  NH1      -11.6420  -39.0060   24.4380 N.pl3 436  ARG436      0.1354
     11  NH2      -10.3920  -40.7230   25.3180 N.pl3 436  ARG436      0.1354
     12  N         -9.8650  -26.9120   23.7250 N.3   479  MET479     -0.1230
     13  CA        -8.9940  -28.0390   23.3710 C.3   479  MET479      0.1702
     14  C         -9.8480  -29.2170   22.9720 C.2   479  MET479      0.2592
     15  O         -9.5010  -29.9270   22.0630 O.2   479  MET479     -0.2718
     16  CB        -8.0180  -28.4070   24.5070 C.3   479  MET479      0.0401
     17  CG        -6.8570  -27.4260   24.6450 C.3   479  MET479      0.0596
     18  SD        -5.7310  -27.7890   26.0080 S.3   479  MET479     -0.1393
     19  CE        -6.7110  -27.2420   27.4040 C.3   479  MET479      0.0692
     20  N        -10.9730  -29.4180   23.6310 N.am  480  ALA480     -0.1966
     21  CA       -11.9660  -30.3770   23.1500 C.3   480  ALA480      0.1728
     22  C        -13.3640  -29.7720   23.2070 C.2   480  ALA480      0.2616
     23  O        -13.5910  -28.7870   23.9300 O.2   480  ALA480     -0.2715
     24  CB       -11.9030  -31.6670   23.9360 C.3   480  ALA480      0.0334
     25  N        -14.2830  -30.3320   22.4230 N.am  481  GLY481     -0.1955
     26  CA       -15.6530  -29.8320   22.3800 C.3   481  GLY481      0.1869
     27  C        -15.8220  -28.4530   21.7670 C.2   481  GLY481      0.2309
     28  O        -15.1080  -28.0750   20.8210 O.2   481  GLY481     -0.2863
     29  N        -11.6300  -26.6780   18.7800 N.3   496  PRO496     -0.2116
     30  CA       -10.1790  -26.9040   18.9250 C.3   496  PRO496      0.1372
     31  C         -9.2940  -26.1140   17.9600 C.2   496  PRO496      0.2244
     32  O         -8.3010  -25.5320   18.3990 O.2   496  PRO496     -0.2868
     33  CB       -10.0480  -28.4100   18.7440 C.3   496  PRO496      0.0268
     34  CG       -11.3000  -28.9140   19.4140 C.3   496  PRO496      0.0207
     35  CD       -12.3790  -27.9370   18.9710 C.3   496  PRO496      0.0892
     36  N         -6.5410  -37.8980   28.5900 N.3   591  PHE591     -0.1241
     37  CA        -7.7970  -38.3850   29.1700 C.3   591  PHE591      0.1605
     38  C         -7.5390  -39.4260   30.2380 C.2   591  PHE591      0.2264
     39  O         -6.7080  -40.3190   30.0520 O.2   591  PHE591     -0.2867
     40  CB        -8.6870  -38.9870   28.0990 C.3   591  PHE591      0.0534
     41  CG        -9.2290  -37.9840   27.1380 C.ar  591  PHE591     -0.0203
     42  CD1      -10.3270  -37.1970   27.4860 C.ar  591  PHE591     -0.0042
     43  CD2       -8.6300  -37.8130   25.8830 C.ar  591  PHE591     -0.0042
     44  CE1      -10.8120  -36.2440   26.5900 C.ar  591  PHE591     -0.0003
     45  CE2       -9.1060  -36.8710   24.9900 C.ar  591  PHE591     -0.0003
     46  CZ       -10.1930  -36.0860   25.3360 C.ar  591  PHE591     -0.0000
     47  N         -5.6120  -41.5990   26.3720 N.3   597  ALA597     -0.1231
     48  CA        -5.2880  -40.9270   25.1110 C.3   597  ALA597      0.1694
     49  C         -4.9200  -39.4430   25.2490 C.2   597  ALA597      0.2592
     50  O         -5.3210  -38.7630   26.1990 O.2   597  ALA597     -0.2718
     51  CB        -6.4240  -41.1170   24.1230 C.3   597  ALA597      0.0304
     52  N         -4.1370  -38.9440   24.3090 N.am  598  VAL598     -0.1966
     53  CA        -3.7070  -37.5540   24.3670 C.3   598  VAL598      0.1727
     54  C         -4.8540  -36.6230   24.0100 C.2   598  VAL598      0.2616
     55  O         -5.6950  -36.9390   23.1660 O.2   598  VAL598     -0.2715
     56  CB        -2.5130  -37.3030   23.4250 C.3   598  VAL598      0.0290
     57  CG1       -2.0740  -35.8300   23.4330 C.3   598  VAL598      0.0023
     58  CG2       -1.3680  -38.2380   23.7990 C.3   598  VAL598      0.0023
     59  N         -4.9250  -35.5000   24.7060 N.am  599  LEU599     -0.1977
     60  CA        -5.8190  -34.4350   24.2950 C.3   599  LEU599      0.1596
     61  C         -4.9770  -33.3880   23.5790 C.2   599  LEU599      0.2287
     62  O         -5.2430  -33.0650   22.4110 O.2   599  LEU599     -0.2864
     63  CB        -6.5830  -33.8460   25.4900 C.3   599  LEU599      0.0297
     64  CG        -7.3510  -32.5130   25.3170 C.3   599  LEU599      0.0022
     65  CD1       -8.2250  -32.4220   24.0710 C.3   599  LEU599      0.0001
     66  CD2       -8.1590  -32.1920   26.5690 C.3   599  LEU599      0.0001
     67  N         -1.8330  -30.8590   19.1340 N.3   717  PHE717     -0.1227
     68  CA        -2.8980  -31.8610   18.9860 C.3   717  PHE717      0.1725
     69  C         -2.4650  -33.0600   18.1460 C.2   717  PHE717      0.2475
     70  O         -1.7080  -32.9250   17.1860 O.2   717  PHE717     -0.2730
     71  CB        -4.1370  -31.2340   18.2900 C.3   717  PHE717      0.0547
     72  CG        -4.8540  -30.1670   19.1010 C.ar  717  PHE717     -0.0202
     73  CD1       -5.6320  -30.5160   20.2360 C.ar  717  PHE717     -0.0042
     74  CD2       -4.7720  -28.8150   18.7250 C.ar  717  PHE717     -0.0042
     75  CE1       -6.2810  -29.5390   20.9710 C.ar  717  PHE717     -0.0003
     76  CE2       -5.4210  -27.8390   19.4620 C.ar  717  PHE717     -0.0003
     77  CZ        -6.1730  -28.2000   20.5790 C.ar  717  PHE717     -0.0000
     78  N         -2.9860  -34.2410   18.4800 N.am  718  PRO718     -0.2506
     79  CA        -2.9240  -35.3690   17.5330 C.3   718  PRO718      0.1487
     80  C         -3.7940  -35.1080   16.3200 C.2   718  PRO718      0.2276
     81  O         -4.7130  -34.2990   16.3850 O.2   718  PRO718     -0.2865
     82  CB        -3.4890  -36.5680   18.3140 C.3   718  PRO718      0.0556
     83  CG        -3.9570  -36.0510   19.6130 C.2   718  PRO718     -0.0078
     84  CD        -3.5390  -34.6110   19.7910 C.2   718  PRO718      0.0634
@<TRIPOS>BOND
     1    80    81    2
     2    80    79    1
     3    70    69    2
     4    79    82    1
     5    79    78    1
     6    31    32    2
     7    31    30    1
     8    69    78   am
     9    69    68    1
    10    71    68    1
    11    71    72    1
    12    82    83    1
    13    78    84    1
    14    74    72   ar
    15    74    76   ar
    16    33    30    1
    17    33    34    1
    18    29    30    1
    19    29    35    1
    20    35    34    1
    21    68    67    1
    22    72    73   ar
    23    76    77   ar
    24    83    84    2
    25    73    75   ar
    26    77    75   ar
    27    28    27    2
    28    27    26    1
    29    15    14    2
    30    26    25    1
    31    62    61    2
    32    25    22   am
    33    14    13    1
    34    14    20   am
    35    21    22    1
    36    21    20    1
    37    21    24    1
    38    55    54    2
    39    22    23    2
    40    13    12    1
    41    13    16    1
    42    56    57    1
    43    56    58    1
    44    56    53    1
    45    61    60    1
    46    54    53    1
    47    54    59   am
    48    65    64    1
    49    51    48    1
    50    60    59    1
    51    60    63    1
    52    52    53    1
    53    52    49   am
    54    10     9    1
    55    16    17    1
    56    17    18    1
    57    45    46   ar
    58    45    43   ar
    59    48    49    1
    60    48    47    1
    61    49    50    2
    62    64    63    1
    63    64    66    1
    64    11     9    1
    65    46    44   ar
    66     9     8    2
    67    43    41   ar
    68    18    19    1
    69     8     7    1
    70    44    42   ar
    71     7     6    1
    72    41    42   ar
    73    41    40    1
    74     6     5    1
    75    40    37    1
    76     5     2    1
    77    36    37    1
    78     2     3    1
    79     2     1    1
    80    37    38    1
    81     3     4    2
    82    39    38    2
