@<TRIPOS>MOLECULE
tmp/4a7zA01.pdb
 170 169 0 0 0
SMALL
GASTEIGER

@<TRIPOS>ATOM
      1  N         17.6470  -30.1260   23.4050 N.3   572  TRP572     -0.1241
      2  CA        17.3880  -30.3300   21.9690 C.3   572  TRP572      0.1605
      3  C         17.9500  -29.2610   21.0680 C.2   572  TRP572      0.2264
      4  O         17.7330  -29.3110   19.8800 O.2   572  TRP572     -0.2867
      5  CB        15.8990  -30.4630   21.7030 C.3   572  TRP572      0.0550
      6  CG        15.0250  -29.4410   22.4060 C.ar  572  TRP572      0.0003
      7  CD1       14.3100  -29.5980   23.6060 C.ar  572  TRP572      0.0946
      8  CD2       14.7040  -28.0570   21.9560 C.ar  572  TRP572      0.0152
      9  NE1       13.6020  -28.4620   23.9020 N.ar  572  TRP572     -0.2442
     10  CE2       13.7960  -27.4980   22.9640 C.ar  572  TRP572      0.0810
     11  CE3       15.0610  -27.2690   20.8600 C.ar  572  TRP572      0.0012
     12  CZ2       13.2820  -26.2040   22.8550 C.ar  572  TRP572      0.0191
     13  CZ3       14.5320  -25.9720   20.7710 C.ar  572  TRP572      0.0001
     14  CH2       13.6790  -25.4540   21.7580 C.ar  572  TRP572      0.0015
     15  N         22.0640  -24.8430   18.0840 N.3   576  ARG576     -0.1231
     16  CA        21.1910  -23.8970   17.3910 C.3   576  ARG576      0.1694
     17  C         20.7720  -22.7370   18.2930 C.2   576  ARG576      0.2592
     18  O         20.9400  -22.8060   19.5350 O.2   576  ARG576     -0.2718
     19  CB        19.9430  -24.6070   16.8590 C.3   576  ARG576      0.0321
     20  CG        20.0370  -25.0460   15.3940 C.3   576  ARG576      0.0489
     21  CD        18.9990  -26.1000   14.9630 C.3   576  ARG576      0.2205
     22  NE        18.6330  -27.0390   16.0290 N.pl3 576  ARG576     -0.0865
     23  CZ        17.3770  -27.2470   16.4300 C.cat 576  ARG576      0.5346
     24  NH1       16.3640  -26.6090   15.8490 N.pl3 576  ARG576      0.1354
     25  NH2       17.1220  -28.0920   17.4090 N.pl3 576  ARG576      0.1354
     26  N         20.2020  -21.6910   17.6680 N.am  577  PHE577     -0.1976
     27  CA        19.6120  -20.5430   18.3870 C.3   577  PHE577      0.1639
     28  C         20.5710  -19.8430   19.3300 C.2   577  PHE577      0.2290
     29  O         20.1420  -19.2630   20.3180 O.2   577  PHE577     -0.2864
     30  CB        18.3550  -20.9370   19.1930 C.3   577  PHE577      0.0560
     31  CG        17.5310  -21.9890   18.5340 C.ar  577  PHE577     -0.0200
     32  CD1       16.7490  -21.6840   17.4150 C.ar  577  PHE577     -0.0042
     33  CD2       17.5750  -23.3120   18.9940 C.ar  577  PHE577     -0.0042
     34  CE1       16.0370  -22.6800   16.7530 C.ar  577  PHE577     -0.0003
     35  CE2       16.8320  -24.3070   18.3580 C.ar  577  PHE577     -0.0003
     36  CZ        16.0650  -23.9870   17.2340 C.ar  577  PHE577     -0.0000
     37  N         15.1050  -15.9240   22.8030 N.3   582  PHE582     -0.1241
     38  CA        14.1190  -16.9380   22.4010 C.3   582  PHE582      0.1605
     39  C         14.0400  -17.9980   23.5210 C.2   582  PHE582      0.2264
     40  O         14.9950  -18.7350   23.7650 O.2   582  PHE582     -0.2867
     41  CB        14.5410  -17.4920   21.0340 C.3   582  PHE582      0.0534
     42  CG        13.7290  -18.6370   20.5550 C.ar  582  PHE582     -0.0203
     43  CD1       12.3420  -18.6760   20.7490 C.ar  582  PHE582     -0.0042
     44  CD2       14.3460  -19.6960   19.8660 C.ar  582  PHE582     -0.0042
     45  CE1       11.5940  -19.7680   20.2800 C.ar  582  PHE582     -0.0003
     46  CE2       13.6060  -20.8070   19.4110 C.ar  582  PHE582     -0.0003
     47  CZ        12.2290  -20.8320   19.6100 C.ar  582  PHE582     -0.0000
     48  N          6.3100  -20.1450   24.8180 N.3   606  TRP606     -0.1241
     49  CA         7.4700  -19.5240   24.2200 C.3   606  TRP606      0.1605
     50  C          7.4560  -18.0550   24.2910 C.2   606  TRP606      0.2264
     51  O          6.4000  -17.4220   24.3450 O.2   606  TRP606     -0.2867
     52  CB         7.6040  -19.9000   22.7570 C.3   606  TRP606      0.0550
     53  CG         7.4310  -21.3630   22.4620 C.ar  606  TRP606      0.0003
     54  CD1        6.2190  -22.0540   22.2990 C.ar  606  TRP606      0.0946
     55  CD2        8.4780  -22.3620   22.2510 C.ar  606  TRP606      0.0152
     56  NE1        6.4350  -23.3620   22.0030 N.ar  606  TRP606     -0.2442
     57  CE2        7.7740  -23.6340   21.9670 C.ar  606  TRP606      0.0810
     58  CE3        9.8640  -22.3410   22.2280 C.ar  606  TRP606      0.0012
     59  CZ2        8.4690  -24.8310   21.7170 C.ar  606  TRP606      0.0191
     60  CZ3       10.5450  -23.5400   21.9660 C.ar  606  TRP606      0.0001
     61  CH2        9.8640  -24.7600   21.7180 C.ar  606  TRP606      0.0015
     62  N         11.9230  -17.6850   15.4450 N.3   614  ALA614     -0.1231
     63  CA        11.9640  -18.9320   16.1890 C.3   614  ALA614      0.1694
     64  C         12.4400  -20.1130   15.3210 C.2   614  ALA614      0.2592
     65  O         12.4070  -21.2760   15.7570 O.2   614  ALA614     -0.2718
     66  CB        10.6010  -19.2310   16.8210 C.3   614  ALA614      0.0304
     67  N         12.8540  -19.8130   14.0900 N.am  615  GLY615     -0.1957
     68  CA        13.4610  -20.8140   13.2230 C.3   615  GLY615      0.1869
     69  C         12.4550  -21.6310   12.4340 C.2   615  GLY615      0.2309
     70  O         11.5200  -22.2490   13.0070 O.2   615  GLY615     -0.2863
     71  N         10.8950  -24.5930   10.4720 N.3   617  HIS617     -0.1241
     72  CA        10.9010  -26.0150   10.7410 C.3   617  HIS617      0.1621
     73  C          9.6710  -26.5990   10.1260 C.2   617  HIS617      0.2264
     74  O          8.8150  -25.8500    9.5760 O.2   617  HIS617     -0.2867
     75  CB        10.9030  -26.2780   12.2250 C.3   617  HIS617      0.0745
     76  CG         9.7510  -25.6650   12.9290 C.ar  617  HIS617      0.0817
     77  ND1        9.6400  -24.3300   13.1090 N.ar  617  HIS617     -0.2268
     78  CD2        8.6340  -26.2410   13.5130 C.ar  617  HIS617      0.1154
     79  CE1        8.5020  -24.0700   13.7720 C.ar  617  HIS617      0.1986
     80  NE2        7.8870  -25.2540   14.0150 N.ar  617  HIS617     -0.2212
     81  N          8.3230  -30.0710   11.3210 N.3   619  HIS619     -0.1241
     82  CA         7.7510  -31.1620   12.1270 C.3   619  HIS619      0.1621
     83  C          7.8630  -32.5710   11.5300 C.2   619  HIS619      0.2264
     84  O          6.9800  -33.4300   11.7620 O.2   619  HIS619     -0.2867
     85  CB         6.3090  -30.8520   12.5280 C.3   619  HIS619      0.0745
     86  CG         6.1440  -29.5770   13.3630 C.ar  619  HIS619      0.0817
     87  ND1        6.8820  -29.3140   14.4650 N.ar  619  HIS619     -0.2268
     88  CD2        5.2780  -28.4840   13.2130 C.ar  619  HIS619      0.1154
     89  CE1        6.5140  -28.1250   14.9870 C.ar  619  HIS619      0.1986
     90  NE2        5.5180  -27.6350   14.2270 N.ar  619  HIS619     -0.2212
     91  N          2.3590  -34.0620   15.0430 N.3   624  PHE624     -0.1241
     92  CA         1.2450  -33.3980   15.7280 C.3   624  PHE624      0.1605
     93  C          0.6170  -32.2510   14.9460 C.2   624  PHE624      0.2264
     94  O          1.2150  -31.7580   13.9820 O.2   624  PHE624     -0.2867
     95  CB         1.5850  -32.9840   17.1680 C.3   624  PHE624      0.0534
     96  CG         2.7970  -32.0950   17.3140 C.ar  624  PHE624     -0.0203
     97  CD1        2.7560  -30.7370   16.9480 C.ar  624  PHE624     -0.0042
     98  CD2        3.9870  -32.5980   17.8840 C.ar  624  PHE624     -0.0042
     99  CE1        3.8690  -29.9370   17.1080 C.ar  624  PHE624     -0.0003
    100  CE2        5.1240  -31.7840   18.0450 C.ar  624  PHE624     -0.0003
    101  CZ         5.0570  -30.4550   17.6500 C.ar  624  PHE624     -0.0000
    102  N         -0.4300  -28.5230   15.4130 N.3   626  GLU626     -0.1245
    103  CA        -0.2450  -27.4430   16.3990 C.3   626  GLU626      0.1567
    104  C         -1.0960  -26.1720   16.1820 C.2   626  GLU626      0.2260
    105  O         -1.2930  -25.6870   15.0520 O.2   626  GLU626     -0.2867
    106  CB         1.2380  -27.1340   16.6010 C.3   626  GLU626      0.0388
    107  CG         1.7810  -26.1830   15.5750 C.3   626  GLU626      0.1160
    108  CD         3.2900  -26.0570   15.5580 C.2   626  GLU626      0.3649
    109  OE1        3.9210  -26.3130   16.5940 O.co2 626  GLU626     -0.2457
    110  OE2        3.8190  -25.6740   14.4880 O.co2 626  GLU626     -0.2457
    111  N         -1.2910  -22.3040   17.9420 N.3   628  HIS628     -0.1241
    112  CA        -0.7280  -21.3200   18.8690 C.3   628  HIS628      0.1621
    113  C         -1.6940  -20.2340   19.2320 C.2   628  HIS628      0.2264
    114  O         -2.5070  -19.7790   18.4070 O.2   628  HIS628     -0.2867
    115  CB         0.5160  -20.6900   18.2670 C.3   628  HIS628      0.0745
    116  CG         1.5880  -21.6690   17.9270 C.ar  628  HIS628      0.0817
    117  ND1        1.8500  -22.0380   16.6560 N.ar  628  HIS628     -0.2268
    118  CD2        2.4860  -22.3570   18.7350 C.ar  628  HIS628      0.1154
    119  CE1        2.8760  -22.9230   16.6370 C.ar  628  HIS628      0.1986
    120  NE2        3.2690  -23.1170   17.9140 N.ar  628  HIS628     -0.2212
    121  N          2.8850  -15.7660   12.8520 N.3   640  MET640     -0.1245
    122  CA         3.3440  -16.9530   12.1470 C.3   640  MET640      0.1570
    123  C          3.5890  -16.7050   10.6430 C.2   640  MET640      0.2261
    124  O          2.7660  -16.1030    9.9620 O.2   640  MET640     -0.2867
    125  CB         2.3260  -18.0890   12.3330 C.3   640  MET640      0.0387
    126  CG         2.1440  -18.5960   13.7540 C.3   640  MET640      0.0595
    127  SD         3.5680  -19.4520   14.4870 S.3   640  MET640     -0.1393
    128  CE         3.8620  -20.8870   13.4520 C.3   640  MET640      0.0692
    129  N          7.4150  -18.9090   14.0220 N.3   698  TRP698     -0.1241
    130  CA         7.0050  -17.6320   14.6650 C.3   698  TRP698      0.1605
    131  C          8.1040  -16.6160   14.5390 C.2   698  TRP698      0.2264
    132  O          9.2180  -16.8420   15.0300 O.2   698  TRP698     -0.2867
    133  CB         6.6520  -17.8160   16.1470 C.3   698  TRP698      0.0550
    134  CG         6.1830  -16.5380   16.8060 C.ar  698  TRP698      0.0003
    135  CD1        6.9500  -15.4200   17.1510 C.ar  698  TRP698      0.0946
    136  CD2        4.8100  -16.1720   17.1770 C.ar  698  TRP698      0.0152
    137  NE1        6.1730  -14.4440   17.7140 N.ar  698  TRP698     -0.2442
    138  CE2        4.8880  -14.8170   17.7580 C.ar  698  TRP698      0.0810
    139  CE3        3.5720  -16.8020   17.0990 C.ar  698  TRP698      0.0012
    140  CZ2        3.7670  -14.1540   18.2370 C.ar  698  TRP698      0.0191
    141  CZ3        2.4440  -16.1130   17.5930 C.ar  698  TRP698      0.0001
    142  CH2        2.5440  -14.8240   18.1490 C.ar  698  TRP698      0.0015
    143  N          3.7290  -16.6750   23.7760 N.3   713  TRP713     -0.1241
    144  CA         2.6420  -17.4920   23.1830 C.3   713  TRP713      0.1605
    145  C          2.6150  -18.8780   23.7060 C.2   713  TRP713      0.2264
    146  O          3.6300  -19.3420   24.2170 O.2   713  TRP713     -0.2867
    147  CB         2.6590  -17.4950   21.6600 C.3   713  TRP713      0.0550
    148  CG         3.7850  -18.2250   20.9820 C.ar  713  TRP713      0.0003
    149  CD1        3.7670  -19.5120   20.4410 C.ar  713  TRP713      0.0946
    150  CD2        5.1310  -17.7060   20.6690 C.ar  713  TRP713      0.0152
    151  NE1        4.9760  -19.8270   19.8690 N.ar  713  TRP713     -0.2442
    152  CE2        5.8330  -18.7920   19.9740 C.ar  713  TRP713      0.0810
    153  CE3        5.8190  -16.5100   20.9440 C.ar  713  TRP713      0.0012
    154  CZ2        7.1360  -18.6540   19.5440 C.ar  713  TRP713      0.0191
    155  CZ3        7.1350  -16.3820   20.5190 C.ar  713  TRP713      0.0001
    156  CH2        7.7790  -17.4350   19.8320 C.ar  713  TRP713      0.0015
    157  N          1.6080  -23.0670   23.0460 N.3   715  ALA715     -0.1245
    158  CA         1.5220  -24.0350   21.9500 C.3   715  ALA715      0.1562
    159  C          0.5770  -25.1800   22.3450 C.2   715  ALA715      0.2260
    160  O          0.7580  -25.8000   23.3990 O.2   715  ALA715     -0.2867
    161  CB         2.9030  -24.6000   21.6070 C.3   715  ALA715      0.0290
    162  N         -0.3730  -28.8000   21.2180 N.3   717  GLU717     -0.1245
    163  CA        -0.0220  -29.8850   20.2760 C.3   717  GLU717      0.1567
    164  C         -1.0640  -30.9840   20.2910 C.2   717  GLU717      0.2260
    165  O         -1.0100  -31.8270   21.1840 O.2   717  GLU717     -0.2867
    166  CB         1.3430  -30.4580   20.6470 C.3   717  GLU717      0.0388
    167  CG         2.4230  -29.4010   20.4910 C.3   717  GLU717      0.1160
    168  CD         3.6050  -29.6020   21.3970 C.2   717  GLU717      0.3649
    169  OE1        3.8970  -30.7540   21.8900 O.co2 717  GLU717     -0.2457
    170  OE2        4.2410  -28.5530   21.5830 O.co2 717  GLU717     -0.2457
@<TRIPOS>BOND
     1    74    73    2
     2   124   123    2
     3    73    72    1
     4    71    72    1
     5   123   122    1
     6    72    75    1
     7    81    82    1
     8    83    84    2
     9    83    82    1
    10    82    85    1
    11   122   125    1
    12   122   121    1
    13    75    76    1
    14   125   126    1
    15    69    70    2
    16    69    68    1
    17    85    86    1
    18    76    77   ar
    19    76    78   ar
    20    77    79   ar
    21    88    86   ar
    22    88    90   ar
    23    68    67    1
    24    86    87   ar
    25   128   127    1
    26    78    80   ar
    27   126   127    1
    28    79    80   ar
    29    94    93    2
    30   129   130    1
    31    67    64   am
    32    90    89   ar
    33    87    89   ar
    34   110   108   ar
    35   131   130    1
    36   131   132    2
    37   130   133    1
    38    93    92    1
    39    21    20    1
    40    21    22    1
    41    91    92    1
    42   105   104    2
    43    64    65    2
    44    64    63    1
    45    20    19    1
    46   102   103    1
    47    62    63    1
    48   108   107    1
    49   108   109   ar
    50   107   106    1
    51    92    95    1
    52    24    23    1
    53    22    23    2
    54   133   134    1
    55   104   103    1
    56    63    66    1
    57   103   106    1
    58    23    25    1
    59   119   117   ar
    60   119   120   ar
    61   117   116   ar
    62    34    36   ar
    63    34    32   ar
    64   134   135   ar
    65   134   136   ar
    66    19    16    1
    67    97    99   ar
    68    97    96   ar
    69   139   136   ar
    70   139   141   ar
    71    99   101   ar
    72   135   137   ar
    73    95    96    1
    74   136   138   ar
    75    36    35   ar
    76    96    98   ar
    77    16    15    1
    78    16    17    1
    79    32    31   ar
    80   141   142   ar
    81   101   100   ar
    82    26    17   am
    83    26    27    1
    84   137   138   ar
    85   138   140   ar
    86    98   100   ar
    87   120   118   ar
    88   116   115    1
    89   116   118   ar
    90   111   112    1
    91   142   140   ar
    92   115   112    1
    93    17    18    2
    94    35    33   ar
    95    27    30    1
    96    27    28    1
    97   114   113    2
    98    31    33   ar
    99    31    30    1
   100   112   113    1
   101    28    29    2
   102    46    47   ar
   103    46    44   ar
   104   154   156   ar
   105   154   152   ar
   106    47    45   ar
   107   156   155   ar
   108    44    42   ar
   109   151   152   ar
   110   151   149   ar
   111     4     3    2
   112   152   150   ar
   113   163   164    1
   114   163   166    1
   115   163   162    1
   116    45    43   ar
   117   164   165    2
   118   149   148   ar
   119   167   166    1
   120   167   168    1
   121   155   153   ar
   122    42    43   ar
   123    42    41    1
   124   150   153   ar
   125   150   148   ar
   126    13    11   ar
   127    13    14   ar
   128    11     8   ar
   129   148   147    1
   130    41    38    1
   131     3     2    1
   132   168   170   ar
   133   168   169   ar
   134   161   158    1
   135   147   144    1
   136     5     2    1
   137     5     6    1
   138    59    61   ar
   139    59    57   ar
   140    61    60   ar
   141    14    12   ar
   142   158   159    1
   143   158   157    1
   144     8     6   ar
   145     8    10   ar
   146    60    58   ar
   147    57    56   ar
   148    57    55   ar
   149     2     1    1
   150    56    54   ar
   151    58    55   ar
   152    55    53   ar
   153    54    53   ar
   154   159   160    2
   155    38    37    1
   156    38    39    1
   157     6     7   ar
   158    53    52    1
   159    52    49    1
   160    12    10   ar
   161    10     9   ar
   162   144   145    1
   163   144   143    1
   164    39    40    2
   165     7     9   ar
   166   145   146    2
   167    49    50    1
   168    49    48    1
   169    50    51    2
