@<TRIPOS>MOLECULE
tmp/4a7zA00.pdb
 149 145 0 0 0
SMALL
GASTEIGER

@<TRIPOS>ATOM
      1  N        -13.0960  -45.4090   64.5600 N.3    22  TYR22      -0.1241
      2  CA       -14.5010  -45.8560   64.6000 C.3    22  TYR22       0.1605
      3  C        -15.5290  -44.9710   63.8940 C.2    22  TYR22       0.2264
      4  O        -16.3510  -45.4680   63.1260 O.2    22  TYR22      -0.2867
      5  CB       -14.9640  -45.9750   66.0460 C.3    22  TYR22       0.0534
      6  CG       -16.2970  -46.6450   66.1380 C.ar   22  TYR22      -0.0201
      7  CD1      -16.4040  -48.0200   65.9050 C.ar   22  TYR22      -0.0009
      8  CD2      -17.4600  -45.9290   66.4440 C.ar   22  TYR22      -0.0009
      9  CE1      -17.6170  -48.6640   65.9820 C.ar   22  TYR22       0.0417
     10  CE2      -18.6970  -46.5950   66.5340 C.ar   22  TYR22       0.0417
     11  CZ       -18.7470  -47.9650   66.2920 C.ar   22  TYR22       0.1957
     12  OH       -19.9130  -48.6690   66.3570 O.3    22  TYR22      -0.2866
     13  N        -13.1590  -45.5840   70.2180 N.3    44  LEU44      -0.1245
     14  CA       -13.7970  -45.7930   71.5100 C.3    44  LEU44       0.1561
     15  C        -12.8430  -45.5160   72.6770 C.2    44  LEU44       0.2260
     16  O        -13.2720  -45.4330   73.8260 O.2    44  LEU44      -0.2867
     17  CB       -14.3260  -47.2340   71.6330 C.3    44  LEU44       0.0270
     18  CG       -15.4310  -47.9130   70.8240 C.3    44  LEU44       0.0019
     19  CD1      -16.2600  -48.6810   71.8290 C.3    44  LEU44       0.0001
     20  CD2      -16.3410  -47.0000   70.0060 C.3    44  LEU44       0.0001
     21  N        -19.3560  -43.5060   71.3830 N.3    82  VAL82      -0.1245
     22  CA       -19.7200  -44.3740   70.2730 C.3    82  VAL82       0.1561
     23  C        -20.2600  -43.5660   69.1110 C.2    82  VAL82       0.2260
     24  O        -19.5060  -43.2300   68.2350 O.2    82  VAL82      -0.2867
     25  CB       -20.6820  -45.5380   70.6310 C.3    82  VAL82       0.0252
     26  CG1      -21.0490  -46.3120   69.3660 C.3    82  VAL82       0.0019
     27  CG2      -20.0280  -46.4780   71.6130 C.3    82  VAL82       0.0019
     28  N        -20.0390  -45.9460   77.1650 N.3   103  TYR103     -0.1241
     29  CA       -20.6740  -47.1350   76.6200 C.3   103  TYR103      0.1605
     30  C        -20.1590  -48.4130   77.2930 C.2   103  TYR103      0.2264
     31  O        -20.9310  -49.2320   77.7960 O.2   103  TYR103     -0.2867
     32  CB       -20.3850  -47.1930   75.1260 C.3   103  TYR103      0.0534
     33  CG       -20.8170  -48.4450   74.4070 C.ar  103  TYR103     -0.0201
     34  CD1      -22.1390  -48.6270   74.0580 C.ar  103  TYR103     -0.0009
     35  CD2      -19.8990  -49.4170   74.0310 C.ar  103  TYR103     -0.0009
     36  CE1      -22.5530  -49.7450   73.3510 C.ar  103  TYR103      0.0417
     37  CE2      -20.2940  -50.5470   73.3270 C.ar  103  TYR103      0.0417
     38  CZ       -21.6320  -50.7070   72.9780 C.ar  103  TYR103      0.1957
     39  OH       -22.1060  -51.8270   72.2920 O.3   103  TYR103     -0.2866
     40  N        -16.4940  -51.2220   76.8120 N.3   105  SER105     -0.1202
     41  CA       -15.5550  -51.6420   75.7480 C.3   105  SER105      0.2020
     42  C        -16.1370  -52.6110   74.6880 C.2   105  SER105      0.2619
     43  O        -15.5780  -52.7700   73.6060 O.2   105  SER105     -0.2717
     44  CB       -14.2800  -52.2210   76.3390 C.3   105  SER105      0.2103
     45  OG       -14.4800  -53.5800   76.6340 O.3   105  SER105     -0.2182
     46  N        -17.2450  -53.2690   74.9910 N.am  106  SER106     -0.1937
     47  CA       -17.8230  -54.2220   74.0520 C.3   106  SER106      0.2055
     48  C        -19.2380  -54.6190   74.4790 C.2   106  SER106      0.2642
     49  O        -19.7010  -54.2780   75.5800 O.2   106  SER106     -0.2714
     50  CB       -16.9130  -55.4620   73.9260 C.3   106  SER106      0.2130
     51  OG       -16.9530  -56.2670   75.0970 O.3   106  SER106     -0.2179
     52  N        -19.9200  -55.3590   73.6110 N.am  107  MET107     -0.1976
     53  CA       -21.2420  -55.9200   73.9330 C.3   107  MET107      0.1605
     54  C        -21.1580  -56.9040   75.0980 C.2   107  MET107      0.2287
     55  O        -22.1760  -57.2990   75.6620 O.2   107  MET107     -0.2864
     56  CB       -21.8910  -56.5410   72.6830 C.3   107  MET107      0.0413
     57  CG       -22.4890  -55.4680   71.7870 C.3   107  MET107      0.0598
     58  SD       -22.5940  -55.8740   70.0410 S.3   107  MET107     -0.1393
     59  CE       -23.9710  -57.0130   70.0510 C.3   107  MET107      0.0692
     60  N        -26.0080  -46.7900   71.6820 N.3   142  HIS142     -0.1241
     61  CA       -25.0830  -47.1690   70.6090 C.3   142  HIS142      0.1621
     62  C        -25.2180  -46.4370   69.2750 C.2   142  HIS142      0.2264
     63  O        -24.2840  -46.4550   68.4600 O.2   142  HIS142     -0.2867
     64  CB       -25.1560  -48.6900   70.4460 C.3   142  HIS142      0.0745
     65  CG       -24.4940  -49.2110   69.2100 C.ar  142  HIS142      0.0817
     66  ND1      -25.0780  -49.1390   67.9980 N.ar  142  HIS142     -0.2268
     67  CD2      -23.2680  -49.8360   69.0240 C.ar  142  HIS142      0.1154
     68  CE1      -24.2740  -49.7000   67.0790 C.ar  142  HIS142      0.1986
     69  NE2      -23.1540  -50.1140   67.7040 N.ar  142  HIS142     -0.2212
     70  N        -27.9480  -50.9710   71.5720 N.3   162  ILE162     -0.1245
     71  CA       -27.8800  -52.1350   70.7300 C.3   162  ILE162      0.1561
     72  C        -28.2150  -53.3190   71.5850 C.2   162  ILE162      0.2260
     73  O        -28.8250  -54.2710   71.1020 O.2   162  ILE162     -0.2867
     74  CB       -26.4840  -52.3220   70.0560 C.3   162  ILE162      0.0252
     75  CG1      -26.5320  -53.5070   69.0670 C.3   162  ILE162      0.0019
     76  CG2      -25.3370  -52.4170   71.0960 C.3   162  ILE162      0.0019
     77  CD1      -25.3240  -53.6800   68.1940 C.3   162  ILE162      0.0001
     78  N        -28.4970  -51.6810   64.9720 N.3   202  HIS202     -0.1241
     79  CA       -27.1030  -51.3210   64.7510 C.3   202  HIS202      0.1621
     80  C        -26.9350  -50.0650   63.9650 C.2   202  HIS202      0.2264
     81  O        -25.8270  -49.5290   63.8810 O.2   202  HIS202     -0.2867
     82  CB       -26.3190  -52.4680   64.0890 C.3   202  HIS202      0.0745
     83  CG       -24.8540  -52.1600   63.9040 C.ar  202  HIS202      0.0817
     84  ND1      -24.3290  -51.8050   62.7110 N.ar  202  HIS202     -0.2268
     85  CD2      -23.8070  -52.1360   64.8150 C.ar  202  HIS202      0.1154
     86  CE1      -23.0150  -51.5580   62.8570 C.ar  202  HIS202      0.1986
     87  NE2      -22.6940  -51.7710   64.1380 N.ar  202  HIS202     -0.2212
     88  N        -25.6260  -57.9570   61.4680 N.3   281  PHE281     -0.1227
     89  CA       -24.6530  -57.2390   62.2610 C.3   281  PHE281      0.1736
     90  C        -23.2120  -57.5990   61.8530 C.2   281  PHE281      0.2595
     91  O        -22.7820  -58.7790   61.9520 O.2   281  PHE281     -0.2718
     92  CB       -24.8610  -57.6340   63.7100 C.3   281  PHE281      0.0547
     93  CG       -23.7710  -57.1800   64.6150 C.ar  281  PHE281     -0.0202
     94  CD1      -23.6690  -55.8120   64.9590 C.ar  281  PHE281     -0.0042
     95  CD2      -22.8610  -58.0910   65.1130 C.ar  281  PHE281     -0.0042
     96  CE1      -22.6660  -55.3850   65.7980 C.ar  281  PHE281     -0.0003
     97  CE2      -21.8470  -57.6770   65.9470 C.ar  281  PHE281     -0.0003
     98  CZ       -21.7500  -56.3220   66.2940 C.ar  281  PHE281     -0.0000
     99  N        -22.4770  -56.5710   61.4040 N.am  282  HIS282     -0.1975
    100  CA       -21.0850  -56.7140   60.9410 C.3   282  HIS282      0.1656
    101  C        -20.9810  -57.8420   59.9470 C.2   282  HIS282      0.2291
    102  O        -19.9960  -58.5660   59.9230 O.2   282  HIS282     -0.2864
    103  CB       -20.1430  -56.9740   62.1310 C.3   282  HIS282      0.0771
    104  CG       -20.0180  -55.8140   63.0830 C.ar  282  HIS282      0.0820
    105  ND1      -18.9920  -55.7010   63.9450 N.ar  282  HIS282     -0.2267
    106  CD2      -20.8430  -54.6990   63.2940 C.ar  282  HIS282      0.1154
    107  CE1      -19.1500  -54.5840   64.6750 C.ar  282  HIS282      0.1986
    108  NE2      -20.2870  -53.9760   64.2720 N.ar  282  HIS282     -0.2212
    109  N        -19.6040  -52.6890   57.7920 N.3   324  HIS324     -0.1241
    110  CA       -20.1100  -51.9470   58.9660 C.3   324  HIS324      0.1621
    111  C        -21.2200  -50.9610   58.7070 C.2   324  HIS324      0.2264
    112  O        -22.0140  -50.6470   59.5910 O.2   324  HIS324     -0.2867
    113  CB       -18.9830  -51.2240   59.7020 C.3   324  HIS324      0.0745
    114  CG       -19.3110  -50.9010   61.1580 C.ar  324  HIS324      0.0817
    115  ND1      -19.2300  -49.6470   61.6690 N.ar  324  HIS324     -0.2268
    116  CD2      -19.7030  -51.7190   62.2050 C.ar  324  HIS324      0.1154
    117  CE1      -19.5540  -49.6720   62.9780 C.ar  324  HIS324      0.1986
    118  NE2      -19.8500  -50.9330   63.3010 N.ar  324  HIS324     -0.2212
    119  N        -11.5610  -48.8720   60.5410 N.3   401  TYR401     -0.1241
    120  CA       -12.2250  -49.6030   61.5950 C.3   401  TYR401      0.1605
    121  C        -11.1810  -50.2540   62.4870 C.2   401  TYR401      0.2264
    122  O        -10.5570  -51.2640   62.0910 O.2   401  TYR401     -0.2867
    123  CB       -13.1390  -50.7160   61.0310 C.3   401  TYR401      0.0534
    124  CG       -14.0110  -51.2430   62.1280 C.ar  401  TYR401     -0.0201
    125  CD1      -13.5450  -52.2010   63.0480 C.ar  401  TYR401     -0.0009
    126  CD2      -15.2550  -50.6850   62.3370 C.ar  401  TYR401     -0.0009
    127  CE1      -14.3430  -52.6120   64.1180 C.ar  401  TYR401      0.0417
    128  CE2      -16.0480  -51.0790   63.3860 C.ar  401  TYR401      0.0417
    129  CZ       -15.6000  -52.0280   64.2660 C.ar  401  TYR401      0.1957
    130  OH       -16.4780  -52.3650   65.2610 O.3   401  TYR401     -0.2866
    131  N        -11.2110  -51.4190   66.5140 N.3   403  VAL403     -0.1245
    132  CA       -11.8800  -51.4850   67.7880 C.3   403  VAL403      0.1561
    133  C        -11.4540  -52.7580   68.5060 C.2   403  VAL403      0.2260
    134  O        -11.7950  -53.8640   68.0920 O.2   403  VAL403     -0.2867
    135  CB       -13.4270  -51.4040   67.6450 C.3   403  VAL403      0.0252
    136  CG1      -14.1150  -51.5090   69.0030 C.3   403  VAL403      0.0019
    137  CG2      -13.8360  -50.1040   66.9600 C.3   403  VAL403      0.0019
    138  N        -12.9540  -56.7610   68.1400 N.3   406  TYR406     -0.1241
    139  CA       -13.8070  -56.9140   66.9600 C.3   406  TYR406      0.1605
    140  C        -12.9770  -57.1040   65.6870 C.2   406  TYR406      0.2264
    141  O        -13.0410  -58.1560   65.0370 O.2   406  TYR406     -0.2867
    142  CB       -14.6830  -55.6710   66.8090 C.3   406  TYR406      0.0534
    143  CG       -15.7720  -55.6230   67.8200 C.ar  406  TYR406     -0.0201
    144  CD1      -15.5630  -55.0410   69.0760 C.ar  406  TYR406     -0.0009
    145  CD2      -17.0160  -56.1910   67.5410 C.ar  406  TYR406     -0.0009
    146  CE1      -16.5750  -55.0170   70.0260 C.ar  406  TYR406      0.0417
    147  CE2      -18.0340  -56.1700   68.4830 C.ar  406  TYR406      0.0417
    148  CZ       -17.8070  -55.5870   69.7190 C.ar  406  TYR406      0.1957
    149  OH       -18.8130  -55.5980   70.6390 O.3   406  TYR406     -0.2866
@<TRIPOS>BOND
     1   109   110    1
     2   111   110    1
     3   111   112    2
     4   110   113    1
     5   113   114    1
     6   102   101    2
     7   101   100    1
     8   119   120    1
     9   100    99    1
    10   100   103    1
    11   123   120    1
    12   123   124    1
    13   114   115   ar
    14   114   116   ar
    15    99    90   am
    16    88    89    1
    17   120   121    1
    18   115   117   ar
    19    90    91    2
    20    90    89    1
    21   122   121    2
    22   124   126   ar
    23   124   125   ar
    24   103   104    1
    25   116   118   ar
    26    89    92    1
    27   126   128   ar
    28    84    86   ar
    29    84    83   ar
    30    86    87   ar
    31   117   118   ar
    32   125   127   ar
    33   104   106   ar
    34   104   105   ar
    35     4     3    2
    36   106   108   ar
    37   128   129   ar
    38    92    93    1
    39    81    80    2
    40     3     2    1
    41    83    82    1
    42    83    85   ar
    43   105   107   ar
    44    80    79    1
    45    82    79    1
    46   127   129   ar
    47    87    85   ar
    48   129   130    1
    49   108   107   ar
    50     1     2    1
    51     2     5    1
    52    93    94   ar
    53    93    95   ar
    54    79    78    1
    55    94    96   ar
    56   141   140    2
    57    95    97   ar
    58   140   139    1
    59    96    98   ar
    60     7     9   ar
    61     7     6   ar
    62    97    98   ar
    63     9    11   ar
    64     5     6    1
    65     6     8   ar
    66    11    12    1
    67    11    10   ar
    68     8    10   ar
    69   131   132    1
    70   142   139    1
    71   142   143    1
    72   139   138    1
    73   137   135    1
    74    68    69   ar
    75    68    66   ar
    76   145   143   ar
    77   145   147   ar
    78   135   132    1
    79   135   136    1
    80    69    67   ar
    81   132   133    1
    82   143   144   ar
    83    66    65   ar
    84   134   133    2
    85    77    75    1
    86    24    23    2
    87    63    62    2
    88   147   148   ar
    89    67    65   ar
    90    75    74    1
    91   144   146   ar
    92    23    22    1
    93    65    64    1
    94    62    61    1
    95    26    25    1
    96   148   146   ar
    97   148   149    1
    98    20    18    1
    99    58    59    1
   100    58    57    1
   101    74    71    1
   102    74    76    1
   103    13    14    1
   104    22    25    1
   105    22    21    1
   106    64    61    1
   107    61    60    1
   108    25    27    1
   109    71    70    1
   110    71    72    1
   111    18    17    1
   112    18    19    1
   113    73    72    2
   114    14    17    1
   115    14    15    1
   116    57    56    1
   117    39    38    1
   118    15    16    2
   119    56    53    1
   120    38    37   ar
   121    38    36   ar
   122    37    35   ar
   123    36    34   ar
   124    43    42    2
   125    52    53    1
   126    52    48   am
   127    50    47    1
   128    50    51    1
   129    53    54    1
   130    35    33   ar
   131    47    48    1
   132    47    46    1
   133    34    33   ar
   134    33    32    1
   135    48    49    2
   136    42    46   am
   137    42    41    1
   138    54    55    2
   139    32    29    1
   140    41    44    1
   141    41    40    1
   142    44    45    1
   143    29    28    1
   144    29    30    1
   145    30    31    2
