@<TRIPOS>MOLECULE
tmp/4a80A00.pdb
 161 151 0 0 0
SMALL
GASTEIGER

@<TRIPOS>ATOM
      1  N         -4.2700   -0.5820   11.4490 N.3     5  TYR5       -0.1227
      2  CA        -4.0650    0.8340   11.1570 C.3     5  TYR5        0.1736
      3  C         -3.2750    0.9340    9.8760 C.2     5  TYR5        0.2595
      4  O         -2.2480    0.2740    9.7280 O.2     5  TYR5       -0.2718
      5  CB        -3.3090    1.5180   12.2970 C.3     5  TYR5        0.0548
      6  CG        -4.0500    1.4280   13.6160 C.ar    5  TYR5       -0.0200
      7  CD1       -4.9980    2.3820   13.9720 C.ar    5  TYR5       -0.0009
      8  CD2       -3.8280    0.3670   14.4910 C.ar    5  TYR5       -0.0009
      9  CE1       -5.6950    2.2910   15.1700 C.ar    5  TYR5        0.0417
     10  CE2       -4.5140    0.2720   15.6890 C.ar    5  TYR5        0.0417
     11  CZ        -5.4480    1.2350   16.0260 C.ar    5  TYR5        0.1957
     12  OH        -6.1440    1.1370   17.2210 O.3     5  TYR5       -0.2866
     13  N         -3.7620    1.7440    8.9430 N.am    6  GLU6       -0.1965
     14  CA        -3.0810    1.9300    7.6670 C.3     6  GLU6        0.1733
     15  C         -2.8390    3.4050    7.4230 C.2     6  GLU6        0.2617
     16  O         -3.6150    4.2570    7.8680 O.2     6  GLU6       -0.2715
     17  CB        -3.8900    1.3050    6.5310 C.3     6  GLU6        0.0429
     18  CG        -4.0240   -0.2100    6.6580 C.3     6  GLU6        0.1163
     19  CD        -4.9900   -0.8310    5.6610 C.2     6  GLU6        0.3649
     20  OE1       -6.1240   -0.3220    5.5130 O.co2   6  GLU6       -0.2457
     21  OE2       -4.6220   -1.8530    5.0400 O.co2   6  GLU6       -0.2457
     22  N         -1.7370    3.6980    6.7420 N.am    7  THR7       -0.1951
     23  CA        -1.4040    5.0580    6.3550 C.3     7  THR7        0.1897
     24  C         -0.5840    5.0300    5.0690 C.2     7  THR7        0.2313
     25  O         -0.0600    3.9880    4.6620 O.2     7  THR7       -0.2863
     26  CB        -0.6460    5.8170    7.4770 C.3     7  THR7        0.1794
     27  OG1       -0.7400    7.2360    7.2650 O.3     7  THR7       -0.2208
     28  CG2        0.8280    5.3960    7.5560 C.3     7  THR7        0.0378
     29  N          2.3170    7.6070    2.8080 N.3     9  THR9       -0.1218
     30  CA         3.1690    8.7680    2.8290 C.3     9  THR9        0.1862
     31  C          4.0220    8.7660    1.5660 C.2     9  THR9        0.2287
     32  O          4.0920    7.7620    0.8550 O.2     9  THR9       -0.2866
     33  CB         4.0240    8.8030    4.1090 C.3     9  THR9        0.1770
     34  OG1        4.6540   10.0860    4.2360 O.3     9  THR9       -0.2211
     35  CG2        5.0810    7.6810    4.1040 C.3     9  THR9        0.0375
     36  N         16.4510    2.5880    3.1070 N.3    22  PHE22      -0.1241
     37  CA        15.5330    2.7070    4.2310 C.3    22  PHE22       0.1605
     38  C         15.1220    1.3490    4.8060 C.2    22  PHE22       0.2264
     39  O         15.0680    1.1900    6.0200 O.2    22  PHE22      -0.2867
     40  CB        14.3080    3.5160    3.8050 C.3    22  PHE22       0.0534
     41  CG        13.3420    3.7920    4.9080 C.ar   22  PHE22      -0.0203
     42  CD1       13.6950    4.5820    5.9880 C.ar   22  PHE22      -0.0042
     43  CD2       12.0590    3.2730    4.8520 C.ar   22  PHE22      -0.0042
     44  CE1       12.7880    4.8360    7.0060 C.ar   22  PHE22      -0.0003
     45  CE2       11.1530    3.5210    5.8570 C.ar   22  PHE22      -0.0003
     46  CZ        11.5190    4.3030    6.9440 C.ar   22  PHE22      -0.0000
     47  N          7.5310   -7.0580    8.8620 N.3    83  TYR83      -0.1241
     48  CA         8.2460   -7.3540   10.0940 C.3    83  TYR83       0.1605
     49  C          7.3010   -7.2360   11.2790 C.2    83  TYR83       0.2264
     50  O          6.2480   -6.5920   11.1810 O.2    83  TYR83      -0.2867
     51  CB         9.4650   -6.4280   10.2520 C.3    83  TYR83       0.0534
     52  CG         9.1350   -5.0200   10.6680 C.ar   83  TYR83      -0.0201
     53  CD1        8.8040   -4.0480    9.7280 C.ar   83  TYR83      -0.0009
     54  CD2        9.1310   -4.6590   12.0090 C.ar   83  TYR83      -0.0009
     55  CE1        8.4950   -2.7570   10.1220 C.ar   83  TYR83       0.0417
     56  CE2        8.8280   -3.3730   12.4050 C.ar   83  TYR83       0.0417
     57  CZ         8.5060   -2.4380   11.4610 C.ar   83  TYR83       0.1957
     58  OH         8.2010   -1.1700   11.8690 O.3    83  TYR83      -0.2866
     59  N          3.7130   -5.6400   10.9870 N.3   100  ASN100     -0.1240
     60  CA         3.7860   -4.4970   10.0940 C.3   100  ASN100      0.1653
     61  C          4.0760   -4.9380    8.6720 C.2   100  ASN100      0.2266
     62  O          4.8350   -5.8940    8.4350 O.2   100  ASN100     -0.2867
     63  CB         4.8680   -3.5340   10.5740 C.3   100  ASN100      0.1155
     64  CG         4.6080   -3.0210   11.9810 C.2   100  ASN100      0.2627
     65  OD1        3.5000   -2.6040   12.2930 O.2   100  ASN100     -0.2716
     66  ND2        5.6290   -3.0540   12.8360 N.am  100  ASN100     -0.0877
     67  N          5.1030   -3.0190    4.9280 N.3   102  ILE102     -0.1245
     68  CA         5.4640   -1.8020    4.1910 C.3   102  ILE102      0.1561
     69  C          5.6540   -2.1200    2.7140 C.2   102  ILE102      0.2260
     70  O          6.4080   -3.0280    2.3790 O.2   102  ILE102     -0.2867
     71  CB         6.7660   -1.1750    4.7350 C.3   102  ILE102      0.0252
     72  CG1        6.6300   -0.8650    6.2360 C.3   102  ILE102      0.0019
     73  CG2        7.1070    0.0990    3.9760 C.3   102  ILE102      0.0019
     74  CD1        7.9330   -0.4400    6.8770 C.3   102  ILE102      0.0001
     75  N          4.8060    5.2670    0.0490 N.3   114  LEU114     -0.1245
     76  CA         4.9340    4.1710    0.9810 C.3   114  LEU114      0.1561
     77  C          3.5660    3.8920    1.5460 C.2   114  LEU114      0.2260
     78  O          2.8830    4.8180    2.0020 O.2   114  LEU114     -0.2867
     79  CB         5.8980    4.5120    2.1030 C.3   114  LEU114      0.0270
     80  CG         7.3540    4.6610    1.6930 C.3   114  LEU114      0.0019
     81  CD1        7.6300    6.0920    1.2650 C.3   114  LEU114      0.0001
     82  CD2        8.2450    4.2600    2.8580 C.3   114  LEU114      0.0001
     83  N          1.6570    1.5780    4.3830 N.3   116  ILE116     -0.1245
     84  CA         2.0390    0.9300    5.6330 C.3   116  ILE116      0.1561
     85  C          0.8130    0.3900    6.3390 C.2   116  ILE116      0.2260
     86  O         -0.1660    1.1140    6.5010 O.2   116  ILE116     -0.2867
     87  CB         2.7420    1.9160    6.5850 C.3   116  ILE116      0.0252
     88  CG1        3.9990    2.4960    5.9310 C.3   116  ILE116      0.0019
     89  CG2        3.0930    1.2460    7.9060 C.3   116  ILE116      0.0019
     90  CD1        3.7900    3.8720    5.3470 C.3   116  ILE116      0.0001
     91  N         -0.1350   -1.5930   10.0520 N.3   118  ASN118     -0.1240
     92  CA         0.2690   -2.0950   11.3610 C.3   118  ASN118      0.1653
     93  C         -0.9060   -2.7860   11.9990 C.2   118  ASN118      0.2266
     94  O         -1.9750   -2.1780   12.1310 O.2   118  ASN118     -0.2867
     95  CB         0.7100   -0.9640   12.2790 C.3   118  ASN118      0.1155
     96  CG         1.5010    0.0830   11.5480 C.2   118  ASN118      0.2627
     97  OD1        0.9360    1.0750   11.0980 O.2   118  ASN118     -0.2716
     98  ND2        2.7980   -0.1520   11.3740 N.am  118  ASN118     -0.0877
     99  N         -1.9430   -4.6510   15.4520 N.3   120  TYR120     -0.1241
    100  CA        -1.6720   -4.9160   16.8590 C.3   120  TYR120      0.1605
    101  C         -2.4650   -6.1580   17.2940 C.2   120  TYR120      0.2264
    102  O         -3.6980   -6.1860   17.1510 O.2   120  TYR120     -0.2867
    103  CB        -2.0500   -3.6950   17.7180 C.3   120  TYR120      0.0534
    104  CG        -1.2360   -2.4460   17.4360 C.ar  120  TYR120     -0.0201
    105  CD1       -1.4190   -1.7300   16.2690 C.ar  120  TYR120     -0.0009
    106  CD2       -0.2900   -1.9760   18.3450 C.ar  120  TYR120     -0.0009
    107  CE1       -0.6850   -0.5930   15.9980 C.ar  120  TYR120      0.0417
    108  CE2        0.4630   -0.8360   18.0780 C.ar  120  TYR120      0.0417
    109  CZ         0.2540   -0.1470   16.8980 C.ar  120  TYR120      0.1957
    110  OH         0.9640    0.9820   16.5820 O.3   120  TYR120     -0.2866
    111  N         -0.4430    4.6160   18.4090 N.3   133  VAL133     -0.1245
    112  CA        -0.3710    4.5520   16.9560 C.3   133  VAL133      0.1561
    113  C          0.2130    5.8660   16.4230 C.2   133  VAL133      0.2260
    114  O          1.0650    5.8560   15.5340 O.2   133  VAL133     -0.2867
    115  CB        -1.7550    4.2620   16.3320 C.3   133  VAL133      0.0252
    116  CG1       -1.6260    4.0420   14.8330 C.3   133  VAL133      0.0019
    117  CG2       -2.3960    3.0410   16.9870 C.3   133  VAL133      0.0019
    118  N          3.9220    5.8830   16.9560 N.3   136  SER136     -0.1202
    119  CA         4.5430    4.9900   15.9900 C.3   136  SER136      0.2020
    120  C          4.6970    5.6780   14.6240 C.2   136  SER136      0.2618
    121  O          5.7710    5.6350   14.0090 O.2   136  SER136     -0.2717
    122  CB         3.7190    3.7080   15.8710 C.3   136  SER136      0.2103
    123  OG         4.3930    2.7420   15.0860 O.3   136  SER136     -0.2182
    124  N          3.6310    6.3380   14.1770 N.am  137  LYS137     -0.1979
    125  CA         3.6290    7.0440   12.9000 C.3   137  LYS137      0.1596
    126  C          4.6500    8.1750   12.8930 C.2   137  LYS137      0.2287
    127  O          5.3440    8.3800   11.8910 O.2   137  LYS137     -0.2864
    128  CB         2.2170    7.5750   12.5910 C.3   137  LYS137      0.0298
    129  CG         2.0700    8.2910   11.2540 C.3   137  LYS137      0.0038
    130  CD         0.6050    8.5700   10.9180 C.3   137  LYS137      0.0206
    131  CE        -0.0470    9.4900   11.9450 C.3   137  LYS137      0.1093
    132  NZ        -1.3560   10.0530   11.4990 N.3   137  LYS137     -0.1314
    133  N          7.4800    8.3990   14.6930 N.3   139  MET139     -0.1230
    134  CA         8.8130    7.8020   14.6260 C.3   139  MET139      0.1702
    135  C          9.1360    7.3690   13.1890 C.2   139  MET139      0.2593
    136  O         10.2070    7.6630   12.6750 O.2   139  MET139     -0.2718
    137  CB         8.8930    6.6080   15.5940 C.3   139  MET139      0.0401
    138  CG        10.1220    5.7110   15.4710 C.3   139  MET139      0.0596
    139  SD        11.6600    6.4890   15.9830 S.3   139  MET139     -0.1393
    140  CE        11.4470    6.5230   17.7610 C.3   139  MET139      0.0692
    141  N          8.2030    6.6730   12.5510 N.am  140  GLY140     -0.1942
    142  CA         8.4040    6.1820   11.1820 C.3   140  GLY140      0.2014
    143  C          8.6580    7.3090   10.2030 C.2   140  GLY140      0.2638
    144  O          9.5350    7.2090    9.3440 O.2   140  GLY140     -0.2714
    145  N          7.8870    8.3840   10.3590 N.am  141  GLU141     -0.1977
    146  CA         7.9990    9.5910    9.5350 C.3   141  GLU141      0.1602
    147  C          9.3210   10.3390    9.7900 C.2   141  GLU141      0.2287
    148  O          9.9470   10.8330    8.8530 O.2   141  GLU141     -0.2864
    149  CB         6.7870   10.4910    9.8070 C.3   141  GLU141      0.0415
    150  CG         6.6280   11.6910    8.8920 C.3   141  GLU141      0.1163
    151  CD         6.2220   11.3390    7.4660 C.2   141  GLU141      0.3649
    152  OE1        5.7040   10.2320    7.2150 O.co2 141  GLU141     -0.2457
    153  OE2        6.4230   12.2050    6.5880 O.co2 141  GLU141     -0.2457
    154  N         11.9970    8.2190    8.1120 N.3   144  LEU144     -0.1245
    155  CA        11.9130    8.3830    6.6470 C.3   144  LEU144      0.1561
    156  C         12.5690    9.6890    6.2020 C.2   144  LEU144      0.2260
    157  O         13.4320    9.6970    5.3220 O.2   144  LEU144     -0.2867
    158  CB        10.4570    8.3400    6.1640 C.3   144  LEU144      0.0270
    159  CG        10.2090    8.6670    4.6860 C.3   144  LEU144      0.0019
    160  CD1       10.9840    7.6810    3.8110 C.3   144  LEU144      0.0001
    161  CD2        8.7210    8.6230    4.3710 C.3   144  LEU144      0.0001
@<TRIPOS>BOND
     1    75    76    1
     2    32    31    2
     3    76    77    1
     4    76    79    1
     5    81    80    1
     6    77    78    2
     7    31    30    1
     8    80    79    1
     9    80    82    1
    10    70    69    2
    11    69    68    1
    12    29    30    1
    13    30    33    1
    14    36    37    1
    15    40    37    1
    16    40    41    1
    17   160   159    1
    18    73    71    1
    19    35    33    1
    20    33    34    1
    21    68    71    1
    22    68    67    1
    23    37    38    1
    24   161   159    1
    25    83    84    1
    26    25    24    2
    27   159   158    1
    28    71    72    1
    29    38    39    2
    30    43    41   ar
    31    43    45   ar
    32    41    42   ar
    33    21    19   ar
    34    24    23    1
    35   157   156    2
    36    90    88    1
    37    20    19   ar
    38    84    85    1
    39    84    87    1
    40    19    18    1
    41    45    46   ar
    42    88    87    1
    43    42    44   ar
    44   158   155    1
    45   156   155    1
    46    72    74    1
    47    85    86    2
    48    23    22    1
    49    23    26    1
    50    17    18    1
    51    17    14    1
    52    87    89    1
    53   153   151   ar
    54   155   154    1
    55    22    15   am
    56    46    44   ar
    57   152   151   ar
    58    27    26    1
    59    15    14    1
    60    15    16    2
    61   151   150    1
    62    26    28    1
    63    14    13    1
    64    62    61    2
    65    61    60    1
    66   148   147    2
    67    47    48    1
    68   150   149    1
    69    13     3   am
    70   144   143    2
    71   146   147    1
    72   146   149    1
    73   146   145    1
    74    53    55   ar
    75    53    52   ar
    76     4     3    2
    77     3     2    1
    78    91    92    1
    79    48    51    1
    80    48    49    1
    81    60    63    1
    82    60    59    1
    83    55    57   ar
    84   143   145   am
    85   143   142    1
    86    51    52    1
    87    63    64    1
    88    52    54   ar
    89   130   129    1
    90   130   131    1
    91    97    96    2
    92     2     1    1
    93     2     5    1
    94    50    49    2
    95   142   141    1
    96   129   128    1
    97    92    93    1
    98    92    95    1
    99    98    96   am
   100    57    58    1
   101    57    56   ar
   102   132   131    1
   103    96    95    1
   104   127   126    2
   105    64    65    2
   106    64    66   am
   107    93    94    2
   108    54    56   ar
   109     5     6    1
   110   141   135   am
   111   128   125    1
   112   136   135    2
   113   126   125    1
   114   125   124    1
   115   135   134    1
   116     6     7   ar
   117     6     8   ar
   118     7     9   ar
   119   121   120    2
   120   124   120   am
   121     8    10   ar
   122   120   119    1
   123   134   133    1
   124   134   137    1
   125   116   115    1
   126   123   122    1
   127     9    11   ar
   128    99   100    1
   129   138   137    1
   130   138   139    1
   131   114   113    2
   132    10    11   ar
   133   122   119    1
   134   139   140    1
   135   119   118    1
   136   107   105   ar
   137   107   109   ar
   138    11    12    1
   139   105   104   ar
   140   115   112    1
   141   115   117    1
   142   113   112    1
   143   110   109    1
   144   100   101    1
   145   100   103    1
   146   109   108   ar
   147   112   111    1
   148   102   101    2
   149   104   103    1
   150   104   106   ar
   151   108   106   ar
