@<TRIPOS>MOLECULE
tmp/4a81A00.pdb
 201 186 0 0 0
SMALL
GASTEIGER

@<TRIPOS>ATOM
      1  N         16.5730    2.5980    3.1420 N.3    22  PHE22      -0.1227
      2  CA        15.6990    2.6460    4.3100 C.3    22  PHE22       0.1736
      3  C         15.4120    1.2610    4.9160 C.2    22  PHE22       0.2595
      4  O         15.3750    1.1370    6.1640 O.2    22  PHE22      -0.2718
      5  CB        14.3940    3.3940    3.9740 C.3    22  PHE22       0.0547
      6  CG        13.4910    3.5790    5.1370 C.ar   22  PHE22      -0.0202
      7  CD1       12.5760    2.6110    5.4650 C.ar   22  PHE22      -0.0042
      8  CD2       13.5700    4.6890    5.9070 C.ar   22  PHE22      -0.0042
      9  CE1       11.7400    2.7690    6.5620 C.ar   22  PHE22      -0.0003
     10  CE2       12.7550    4.8470    7.0050 C.ar   22  PHE22      -0.0003
     11  CZ        11.8390    3.9070    7.3270 C.ar   22  PHE22      -0.0000
     12  N         15.2290    0.2430    4.0600 N.am   23  ILE23      -0.1980
     13  CA        14.9150   -1.1160    4.5040 C.3    23  ILE23       0.1595
     14  C         16.1180   -2.0080    4.5890 C.2    23  ILE23       0.2287
     15  O         16.4990   -2.4100    5.6710 O.2    23  ILE23      -0.2864
     16  CB        13.8790   -1.8320    3.5920 C.3    23  ILE23       0.0276
     17  CG1       12.5260   -1.2020    3.7760 C.3    23  ILE23       0.0022
     18  CG2       13.8030   -3.2980    3.9260 C.3    23  ILE23       0.0022
     19  CD1       11.9950   -1.2250    5.1940 C.3    23  ILE23       0.0001
     20  N         18.8790   -0.3100    6.9550 N.3    26  GLY26      -0.1210
     21  CA        18.2940    0.4560    8.0490 C.3    26  GLY26       0.1956
     22  C         19.0810    0.3690    9.3510 C.2    26  GLY26       0.2611
     23  O         19.1420    1.3770   10.1050 O.2    26  GLY26      -0.2717
     24  N         19.6930   -0.7850    9.6160 N.am   27  ASP27      -0.1973
     25  CA        20.4690   -1.0400   10.8610 C.3    27  ASP27       0.1709
     26  C         21.6790   -0.1320   10.9960 C.2    27  ASP27       0.2293
     27  O         21.9400    0.4170   12.0360 O.2    27  ASP27      -0.2864
     28  CB        20.9760   -2.4650   10.8410 C.3    27  ASP27       0.1436
     29  CG        19.8380   -3.4640   10.7730 C.2    27  ASP27       0.3671
     30  OD1       18.6900   -2.9850   10.7180 O.co2  27  ASP27      -0.2456
     31  OD2       20.0590   -4.6870   10.8380 O.co2  27  ASP27      -0.2456
     32  N         19.9320    4.1360   10.5170 N.3    30  PHE30      -0.1241
     33  CA        19.0870    4.8440   11.4930 C.3    30  PHE30       0.1605
     34  C         19.9390    5.4440   12.6100 C.2    30  PHE30       0.2264
     35  O         19.7280    6.5940   12.9380 O.2    30  PHE30      -0.2867
     36  CB        17.9230    4.0060   12.0330 C.3    30  PHE30       0.0534
     37  CG        16.8960    3.6350   10.9830 C.ar   30  PHE30      -0.0203
     38  CD1       16.4150    4.5840   10.0580 C.ar   30  PHE30      -0.0042
     39  CD2       16.4020    2.3540   10.9050 C.ar   30  PHE30      -0.0042
     40  CE1       15.5000    4.2470    9.0910 C.ar   30  PHE30      -0.0003
     41  CE2       15.4500    2.0190    9.9270 C.ar   30  PHE30      -0.0003
     42  CZ        15.0120    2.9690    9.0280 C.ar   30  PHE30      -0.0000
     43  N         16.8490    6.7240   17.2650 N.3    38  ILE38      -0.1245
     44  CA        17.2750    5.3450   17.4590 C.3    38  ILE38       0.1561
     45  C         18.7650    5.3960   17.8070 C.2    38  ILE38       0.2260
     46  O         19.5880    5.9380   17.0200 O.2    38  ILE38      -0.2867
     47  CB        16.9490    4.4650   16.2120 C.3    38  ILE38       0.0252
     48  CG1       15.4190    4.3390   16.0560 C.3    38  ILE38       0.0019
     49  CG2       17.6520    3.1020   16.2400 C.3    38  ILE38       0.0019
     50  CD1       14.9740    3.3890   14.9440 C.3    38  ILE38       0.0001
     51  N         21.1550   -0.3880   16.6900 N.3    41  VAL41      -0.1245
     52  CA        20.4130   -1.5470   16.2100 C.3    41  VAL41       0.1561
     53  C         21.3850   -2.7190   16.2500 C.2    41  VAL41       0.2260
     54  O         22.3830   -2.6980   15.5660 O.2    41  VAL41      -0.2867
     55  CB        19.8660   -1.3930   14.7750 C.3    41  VAL41       0.0252
     56  CG1       19.1310   -2.6890   14.3770 C.3    41  VAL41       0.0019
     57  CG2       18.9720   -0.1530   14.6030 C.3    41  VAL41       0.0019
     58  N         16.4370   -8.5770   15.6900 N.3    54  LYS54      -0.1245
     59  CA        17.1960   -7.3840   15.9540 C.3    54  LYS54       0.1561
     60  C         16.6880   -6.7110   17.2090 C.2    54  LYS54       0.2260
     61  O         15.4930   -6.8110   17.5510 O.2    54  LYS54      -0.2867
     62  CB        17.0140   -6.4200   14.7980 C.3    54  LYS54       0.0271
     63  CG        17.1640   -7.0700   13.4600 C.3    54  LYS54       0.0035
     64  CD        17.4120   -6.0220   12.4000 C.3    54  LYS54       0.0206
     65  CE        17.4780   -6.6490   11.0220 C.3    54  LYS54       0.1093
     66  NZ        17.7240   -5.6210    9.9630 N.3    54  LYS54      -0.1314
     67  N         16.3110   -2.9980   18.7650 N.3    56  ILE56      -0.1245
     68  CA        16.2810   -1.5850   18.4440 C.3    56  ILE56       0.1561
     69  C         16.2070   -0.8410   19.7880 C.2    56  ILE56       0.2260
     70  O         15.2220   -0.9660   20.5060 O.2    56  ILE56      -0.2867
     71  CB        15.0450   -1.2030   17.5560 C.3    56  ILE56       0.0252
     72  CG1       15.0570   -1.9500   16.2000 C.3    56  ILE56       0.0019
     73  CG2       15.0060    0.2880   17.2820 C.3    56  ILE56       0.0019
     74  CD1       14.1420   -3.1360   16.1400 C.3    56  ILE56       0.0001
     75  N         16.2700    2.7450   22.0630 N.3    58  PHE58      -0.1241
     76  CA        15.9130    4.1290   21.9240 C.3    58  PHE58       0.1605
     77  C         16.8140    5.0390   22.8050 C.2    58  PHE58       0.2264
     78  O         17.3150    4.6090   23.8410 O.2    58  PHE58      -0.2867
     79  CB        14.4020    4.3050   22.1640 C.3    58  PHE58       0.0534
     80  CG        13.5670    3.4660   21.2320 C.ar   58  PHE58      -0.0203
     81  CD1       13.4780    3.7940   19.8740 C.ar   58  PHE58      -0.0042
     82  CD2       12.9250    2.3130   21.6970 C.ar   58  PHE58      -0.0042
     83  CE1       12.7400    2.9940   19.0100 C.ar   58  PHE58      -0.0003
     84  CE2       12.1860    1.5100   20.8220 C.ar   58  PHE58      -0.0003
     85  CZ        12.1010    1.8660   19.4760 C.ar   58  PHE58      -0.0000
     86  N         12.9580   -2.2930   21.7480 N.3    67  VAL67      -0.1245
     87  CA        12.1060   -3.4030   21.2970 C.3    67  VAL67       0.1561
     88  C         13.0090   -4.3730   20.5200 C.2    67  VAL67       0.2260
     89  O         14.0980   -3.9880   20.0000 O.2    67  VAL67      -0.2867
     90  CB        10.8900   -2.9460   20.4090 C.3    67  VAL67       0.0252
     91  CG1        9.8540   -2.1880   21.2340 C.3    67  VAL67       0.0019
     92  CG2       11.3250   -2.0690   19.2510 C.3    67  VAL67       0.0019
     93  N         12.5750   -6.8740   17.2670 N.3    69  ASP69      -0.1239
     94  CA        11.7400   -7.1760   16.1300 C.3    69  ASP69       0.1674
     95  C         12.2280   -8.4510   15.4740 C.2    69  ASP69       0.2266
     96  O         13.3640   -8.9110   15.7120 O.2    69  ASP69      -0.2867
     97  CB        11.6630   -6.0110   15.1470 C.3    69  ASP69       0.1410
     98  CG        12.6410   -6.1360   14.0070 C.2    69  ASP69       0.3668
     99  OD1       13.8230   -6.4190   14.3170 O.co2  69  ASP69      -0.2456
    100  OD2       12.2290   -5.9780   12.8180 O.co2  69  ASP69      -0.2456
    101  N          8.1930   -5.3620    2.8540 N.3    81  TYR81      -0.1241
    102  CA         8.9580   -5.7580    4.0350 C.3    81  TYR81       0.1605
    103  C          8.0190   -5.9000    5.1980 C.2    81  TYR81       0.2264
    104  O          7.4100   -4.9140    5.5870 O.2    81  TYR81      -0.2867
    105  CB         9.9830   -4.6770    4.3710 C.3    81  TYR81       0.0534
    106  CG        10.9640   -5.0520    5.4560 C.ar   81  TYR81      -0.0201
    107  CD1       12.0800   -5.8480    5.1600 C.ar   81  TYR81      -0.0009
    108  CD2       10.8190   -4.6070    6.7430 C.ar   81  TYR81      -0.0009
    109  CE1       13.0010   -6.2100    6.1180 C.ar   81  TYR81       0.0417
    110  CE2       11.7440   -4.9860    7.7390 C.ar   81  TYR81       0.0417
    111  CZ        12.8150   -5.7850    7.4260 C.ar   81  TYR81       0.1957
    112  OH        13.7830   -6.1020    8.3420 O.3    81  TYR81      -0.2866
    113  N          7.6230   -7.3000    9.2170 N.3    83  TYR83      -0.1241
    114  CA         8.4180   -7.5240   10.4380 C.3    83  TYR83       0.1605
    115  C          7.4860   -7.4020   11.6270 C.2    83  TYR83       0.2264
    116  O          6.4730   -6.7220   11.5330 O.2    83  TYR83      -0.2867
    117  CB         9.6000   -6.5070   10.5080 C.3    83  TYR83       0.0534
    118  CG         9.1850   -5.1330   10.8890 C.ar   83  TYR83      -0.0201
    119  CD1        9.0200   -4.7510   12.2370 C.ar   83  TYR83      -0.0009
    120  CD2        8.9760   -4.1790    9.9140 C.ar   83  TYR83      -0.0009
    121  CE1        8.6720   -3.4620   12.5610 C.ar   83  TYR83       0.0417
    122  CE2        8.6010   -2.9030   10.2230 C.ar   83  TYR83       0.0417
    123  CZ         8.4730   -2.5380   11.5270 C.ar   83  TYR83       0.1957
    124  OH         8.0630   -1.2370   11.7290 O.3    83  TYR83      -0.2866
    125  N          7.1710   -6.5240   15.9090 N.3    85  VAL85      -0.1245
    126  CA         7.7160   -6.1980   17.2340 C.3    85  VAL85       0.1561
    127  C          7.2320   -7.3090   18.1560 C.2    85  VAL85       0.2260
    128  O          6.0100   -7.4800   18.3480 O.2    85  VAL85      -0.2867
    129  CB         7.2440   -4.8010   17.7160 C.3    85  VAL85       0.0252
    130  CG1        7.8570   -4.4400   19.0530 C.3    85  VAL85       0.0019
    131  CG2        7.4960   -3.7170   16.6200 C.3    85  VAL85       0.0019
    132  N          3.2090   -6.6350   17.5380 N.3    98  ILE98      -0.1245
    133  CA         2.8270   -5.6770   16.4910 C.3    98  ILE98       0.1561
    134  C          3.4240   -6.2320   15.2090 C.2    98  ILE98       0.2260
    135  O          4.6630   -6.3880   15.1160 O.2    98  ILE98      -0.2867
    136  CB         3.3520   -4.2340   16.7370 C.3    98  ILE98       0.0252
    137  CG1        3.1190   -3.7350   18.1590 C.3    98  ILE98       0.0019
    138  CG2        2.7230   -3.2580   15.7650 C.3    98  ILE98       0.0019
    139  CD1        3.8880   -2.4740   18.5170 C.3    98  ILE98       0.0001
    140  N          3.9340   -5.5350   11.3560 N.3   100  ASN100     -0.1240
    141  CA         3.8640   -4.4170   10.4210 C.3   100  ASN100      0.1653
    142  C          4.2510   -4.8630    9.0090 C.2   100  ASN100      0.2266
    143  O          4.9990   -5.8250    8.8110 O.2   100  ASN100     -0.2867
    144  CB         4.7350   -3.2600   10.8700 C.3   100  ASN100      0.1155
    145  CG         4.4260   -2.7790   12.2860 C.2   100  ASN100      0.2627
    146  OD1        3.2790   -2.6260   12.6640 O.2   100  ASN100     -0.2716
    147  ND2        5.4580   -2.5100   13.0560 N.am  100  ASN100     -0.0877
    148  N          5.4020   -2.9550    5.3020 N.3   102  ILE102     -0.1245
    149  CA         5.7580   -1.7560    4.5320 C.3   102  ILE102      0.1561
    150  C          5.8200   -2.1520    3.0410 C.2   102  ILE102      0.2260
    151  O          6.4970   -3.1170    2.6970 O.2   102  ILE102     -0.2867
    152  CB         7.1000   -1.1640    4.9850 C.3   102  ILE102      0.0252
    153  CG1        7.1360   -0.9600    6.5120 C.3   102  ILE102      0.0019
    154  CG2        7.3610    0.1840    4.3230 C.3   102  ILE102      0.0019
    155  CD1        8.4160   -0.3510    7.0760 C.3   102  ILE102      0.0001
    156  N         -0.0840   -1.5220   10.2960 N.3   118  ASN118     -0.1240
    157  CA         0.3150   -2.0160   11.6250 C.3   118  ASN118      0.1653
    158  C         -0.8200   -2.7650   12.2070 C.2   118  ASN118      0.2266
    159  O         -1.9580   -2.2450   12.2010 O.2   118  ASN118     -0.2867
    160  CB         0.6610   -0.9090   12.5570 C.3   118  ASN118      0.1155
    161  CG         1.3360    0.2260   11.8520 C.2   118  ASN118      0.2627
    162  OD1        0.6970    0.9090   11.0350 O.2   118  ASN118     -0.2716
    163  ND2        2.6390    0.4410   12.1350 N.am  118  ASN118     -0.0877
    164  N         -1.7830   -4.6840   15.7010 N.3   120  TYR120     -0.1241
    165  CA        -1.5380   -4.8460   17.1170 C.3   120  TYR120      0.1605
    166  C         -2.3540   -6.0180   17.6410 C.2   120  TYR120      0.2264
    167  O         -3.6060   -5.9810   17.5830 O.2   120  TYR120     -0.2867
    168  CB        -1.9400   -3.6020   17.8690 C.3   120  TYR120      0.0534
    169  CG        -1.1360   -2.3880   17.5710 C.ar  120  TYR120     -0.0201
    170  CD1       -1.2980   -1.7170   16.3920 C.ar  120  TYR120     -0.0009
    171  CD2       -0.2200   -1.8820   18.5020 C.ar  120  TYR120     -0.0009
    172  CE1       -0.5750   -0.5850   16.1210 C.ar  120  TYR120      0.0417
    173  CE2        0.5090   -0.7480   18.2280 C.ar  120  TYR120      0.0417
    174  CZ         0.3070   -0.1180   17.0400 C.ar  120  TYR120      0.1957
    175  OH         0.9860    1.0090   16.7220 O.3   120  TYR120     -0.2866
    176  N          3.7350    6.1140   16.9340 N.3   136  SER136     -0.1217
    177  CA         4.3620    5.2030   15.9860 C.3   136  SER136      0.1889
    178  C          4.5630    5.8650   14.5840 C.2   136  SER136      0.2288
    179  O          5.6590    5.7970   13.9810 O.2   136  SER136     -0.2866
    180  CB         3.5080    3.9640   15.9170 C.3   136  SER136      0.2089
    181  OG         4.1130    2.9790   15.1300 O.3   136  SER136     -0.2183
    182  N          7.2970    8.5980   14.6590 N.3   139  MET139     -0.1230
    183  CA         8.6080    7.9850   14.6700 C.3   139  MET139      0.1702
    184  C          8.9690    7.5280   13.2530 C.2   139  MET139      0.2592
    185  O          9.9920    7.9180   12.7410 O.2   139  MET139     -0.2718
    186  CB         8.6610    6.8120   15.6420 C.3   139  MET139      0.0401
    187  CG         9.9290    6.0100   15.5260 C.3   139  MET139      0.0596
    188  SD        11.3380    6.8840   16.2200 S.3   139  MET139     -0.1393
    189  CE        11.3660    6.0810   17.8260 C.3   139  MET139      0.0692
    190  N          8.1260    6.7030   12.6400 N.am  140  GLY140     -0.1957
    191  CA         8.3390    6.2520   11.2550 C.3   140  GLY140      0.1869
    192  C          8.5950    7.4390   10.3480 C.2   140  GLY140      0.2309
    193  O          9.5050    7.4130    9.5430 O.2   140  GLY140     -0.2863
    194  N         12.0770    8.9570   10.9410 N.3   143  LEU143     -0.1245
    195  CA        13.1510    8.1670   10.3710 C.3   143  LEU143      0.1561
    196  C         13.2020    8.3160    8.8330 C.2   143  LEU143      0.2260
    197  O         14.2780    8.3940    8.2400 O.2   143  LEU143     -0.2867
    198  CB        12.9800    6.7190   10.7540 C.3   143  LEU143      0.0270
    199  CG        13.0540    6.4010   12.2340 C.3   143  LEU143      0.0019
    200  CD1       12.7250    4.9070   12.3310 C.3   143  LEU143      0.0001
    201  CD2       14.4320    6.7610   12.7970 C.3   143  LEU143      0.0001
@<TRIPOS>BOND
     1   151   150    2
     2   101   102    1
     3   150   149    1
     4     1     2    1
     5    16    17    1
     6    16    18    1
     7    16    13    1
     8    17    19    1
     9     5     2    1
    10     5     6    1
    11   102   105    1
    12   102   103    1
    13    12    13    1
    14    12     3   am
    15     2     3    1
    16   154   152    1
    17   105   106    1
    18    13    14    1
    19   149   152    1
    20   149   148    1
    21    14    15    2
    22     3     4    2
    23   152   153    1
    24     6     7   ar
    25     6     8   ar
    26   107   106   ar
    27   107   109   ar
    28   103   104    2
    29   106   108   ar
    30     7     9   ar
    31     8    10   ar
    32   109   111   ar
    33   153   155    1
    34     9    11   ar
    35   108   110   ar
    36    20    21    1
    37    10    11   ar
    38   111   110   ar
    39   111   112    1
    40    21    22    1
    41   197   196    2
    42   143   142    2
    43   196   195    1
    44   142   141    1
    45    42    40   ar
    46    42    41   ar
    47    40    38   ar
    48   113   114    1
    49    22    24   am
    50    22    23    2
    51   193   192    2
    52    24    25    1
    53   120   122   ar
    54   120   118   ar
    55    41    39   ar
    56    66    65    1
    57    38    37   ar
    58   122   123   ar
    59   156   157    1
    60   192   191    1
    61   195   198    1
    62   195   194    1
    63   141   144    1
    64   141   140    1
    65   114   117    1
    66   114   115    1
    67   117   118    1
    68    32    33    1
    69    30    29   ar
    70   198   199    1
    71    29    31   ar
    72    29    28    1
    73    28    25    1
    74    25    26    1
    75   144   145    1
    76   118   119   ar
    77    39    37   ar
    78    37    36    1
    79    26    27    2
    80    65    64    1
    81   162   161    2
    82   191   190    1
    83    33    36    1
    84    33    34    1
    85   123   124    1
    86   123   121   ar
    87   116   115    2
    88   157   158    1
    89   157   160    1
    90   161   163   am
    91   161   160    1
    92   159   158    2
    93   199   200    1
    94   199   201    1
    95   119   121   ar
    96   145   146    2
    97   145   147   am
    98    64    63    1
    99    34    35    2
   100   190   184   am
   101   185   184    2
   102   100    98   ar
   103   184   183    1
   104    63    62    1
   105   179   178    2
   106    98    99   ar
   107    98    97    1
   108    56    55    1
   109   178   177    1
   110    57    55    1
   111   182   183    1
   112   183   186    1
   113    55    52    1
   114    62    59    1
   115    50    48    1
   116   135   134    2
   117   181   180    1
   118    97    94    1
   119   134   133    1
   120    95    96    2
   121    95    94    1
   122   187   186    1
   123   187   188    1
   124    54    53    2
   125    58    59    1
   126   164   165    1
   127   138   136    1
   128   125   126    1
   129   180   177    1
   130    59    60    1
   131   177   176    1
   132    48    47    1
   133   172   170   ar
   134   172   174   ar
   135    94    93    1
   136    74    72    1
   137    72    71    1
   138    52    53    1
   139    52    51    1
   140    47    49    1
   141    47    44    1
   142   188   189    1
   143   170   169   ar
   144   133   136    1
   145   133   132    1
   146   131   129    1
   147   175   174    1
   148   136   137    1
   149    46    45    2
   150   174   173   ar
   151   165   166    1
   152   165   168    1
   153    60    61    2
   154   126   129    1
   155   126   127    1
   156    43    44    1
   157    73    71    1
   158    44    45    1
   159    71    68    1
   160   169   168    1
   161   169   171   ar
   162   167   166    2
   163   129   130    1
   164   127   128    2
   165   137   139    1
   166   173   171   ar
   167    68    67    1
   168    68    69    1
   169    83    85   ar
   170    83    81   ar
   171    92    90    1
   172    85    84   ar
   173    69    70    2
   174    81    80   ar
   175    89    88    2
   176    90    91    1
   177    90    87    1
   178    88    87    1
   179    84    82   ar
   180    80    82   ar
   181    80    79    1
   182    87    86    1
   183    76    75    1
   184    76    79    1
   185    76    77    1
   186    77    78    2
