@<TRIPOS>MOLECULE
tmp/4a83A00.pdb
 147 141 0 0 0
SMALL
GASTEIGER

@<TRIPOS>ATOM
      1  N         16.2510    2.8610   21.9460 N.3    58  PHE58      -0.1241
      2  CA        15.8580    4.2580   21.8490 C.3    58  PHE58       0.1605
      3  C         16.6790    5.1130   22.7860 C.2    58  PHE58       0.2264
      4  O         17.2080    4.6250   23.7700 O.2    58  PHE58      -0.2867
      5  CB        14.3500    4.3900   22.1110 C.3    58  PHE58       0.0534
      6  CG        13.5450    3.5410   21.1810 C.ar   58  PHE58      -0.0203
      7  CD1       13.4110    3.9050   19.8540 C.ar   58  PHE58      -0.0042
      8  CD2       13.0310    2.3230   21.5890 C.ar   58  PHE58      -0.0042
      9  CE1       12.7110    3.1060   18.9690 C.ar   58  PHE58      -0.0003
     10  CE2       12.3570    1.4990   20.6870 C.ar   58  PHE58      -0.0003
     11  CZ        12.2030    1.8900   19.3830 C.ar   58  PHE58      -0.0000
     12  N         13.1070    8.5140   26.2580 N.3    62  PHE62      -0.1228
     13  CA        11.9840    8.0230   25.4790 C.3    62  PHE62       0.1721
     14  C         11.0800    7.1520   26.3530 C.2    62  PHE62       0.2437
     15  O         11.5070    6.6350   27.3680 O.2    62  PHE62      -0.2733
     16  CB        12.4590    7.2730   24.2450 C.3    62  PHE62       0.0547
     17  CG        12.7810    8.1560   23.0870 C.ar   62  PHE62      -0.0202
     18  CD1       13.6780    9.2050   23.2240 C.ar   62  PHE62      -0.0042
     19  CD2       12.1580    7.9590   21.8620 C.ar   62  PHE62      -0.0042
     20  CE1       13.9560   10.0320   22.1490 C.ar   62  PHE62      -0.0003
     21  CE2       12.4480    8.7830   20.7850 C.ar   62  PHE62      -0.0003
     22  CZ        13.3430    9.8110   20.9340 C.ar   62  PHE62      -0.0000
     23  N          9.8040    7.0010   25.9710 N.am   63  PRO63      -0.2718
     24  CA         8.8950    6.1790   26.7860 C.3    63  PRO63       0.1535
     25  C          9.3580    4.7340   27.0060 C.2    63  PRO63       0.2598
     26  O          9.1610    4.1850   28.0990 O.2    63  PRO63      -0.2715
     27  CB         7.5810    6.2200   25.9990 C.3    63  PRO63       0.0310
     28  CG         7.6610    7.4750   25.1990 C.3    63  PRO63       0.0237
     29  CD         9.1070    7.6740   24.8600 C.3    63  PRO63       0.0939
     30  N          9.9490    4.1290   25.9720 N.am   64  PHE64      -0.1974
     31  CA        10.4190    2.7480   26.0120 C.3    64  PHE64       0.1639
     32  C         11.9070    2.6610   25.7180 C.2    64  PHE64       0.2290
     33  O         12.4350    3.4380   24.9450 O.2    64  PHE64      -0.2864
     34  CB         9.6310    1.9030   25.0150 C.3    64  PHE64       0.0560
     35  CG         8.1570    1.8330   25.3140 C.ar   64  PHE64      -0.0200
     36  CD1        7.7040    1.2440   26.4810 C.ar   64  PHE64      -0.0042
     37  CD2        7.2380    2.3770   24.4470 C.ar   64  PHE64      -0.0042
     38  CE1        6.3480    1.1900   26.7710 C.ar   64  PHE64      -0.0003
     39  CE2        5.8800    2.3100   24.7120 C.ar   64  PHE64      -0.0003
     40  CZ         5.4360    1.7130   25.8720 C.ar   64  PHE64      -0.0000
     41  N         12.8960   -2.2340   21.6550 N.3    67  VAL67      -0.1245
     42  CA        12.0620   -3.3580   21.2490 C.3    67  VAL67       0.1561
     43  C         12.9370   -4.3460   20.4960 C.2    67  VAL67       0.2260
     44  O         14.0440   -3.9980   20.0120 O.2    67  VAL67      -0.2867
     45  CB        10.8690   -2.9480   20.3460 C.3    67  VAL67       0.0252
     46  CG1        9.8880   -2.0500   21.0870 C.3    67  VAL67       0.0019
     47  CG2       11.3590   -2.2870   19.0610 C.3    67  VAL67       0.0019
     48  N          7.2050   -6.8340   15.8900 N.3    85  VAL85      -0.1245
     49  CA         7.7510   -6.4340   17.1650 C.3    85  VAL85       0.1561
     50  C          7.2920   -7.4910   18.1440 C.2    85  VAL85       0.2260
     51  O          6.0850   -7.6680   18.3410 O.2    85  VAL85      -0.2867
     52  CB         7.2610   -5.0480   17.5780 C.3    85  VAL85       0.0252
     53  CG1        7.8670   -4.6990   18.9360 C.3    85  VAL85       0.0019
     54  CG2        7.5840   -4.0110   16.5070 C.3    85  VAL85       0.0019
     55  N          6.4350   -1.8790   24.8910 N.3    90  PRO90      -0.2116
     56  CA         5.0250   -2.0880   25.1790 C.3    90  PRO90       0.1372
     57  C          4.5630   -3.5290   25.1350 C.2    90  PRO90       0.2244
     58  O          3.4200   -3.8020   25.4830 O.2    90  PRO90      -0.2868
     59  CB         4.3350   -1.3090   24.0770 C.3    90  PRO90       0.0268
     60  CG         5.2880   -1.3820   22.9400 C.3    90  PRO90       0.0207
     61  CD         6.6640   -1.4820   23.4930 C.3    90  PRO90       0.0892
     62  N         -0.4240   -7.0540   27.9600 N.3    94  THR94      -0.1203
     63  CA        -1.5700   -6.4660   27.2270 C.3    94  THR94       0.1994
     64  C         -1.3900   -6.4920   25.7040 C.2    94  THR94       0.2617
     65  O         -2.3490   -6.4990   24.9400 O.2    94  THR94      -0.2717
     66  CB        -1.8080   -4.9930   27.6430 C.3    94  THR94       0.1784
     67  OG1       -0.7740   -4.1570   27.0980 O.3    94  THR94      -0.2211
     68  CG2       -1.8320   -4.8490   29.1640 C.3    94  THR94       0.0376
     69  N         -0.1510   -6.5000   25.2630 N.am   95  LEU95      -0.1979
     70  CA         0.1510   -6.4840   23.8520 C.3    95  LEU95       0.1596
     71  C          1.1190   -7.6200   23.5710 C.2    95  LEU95       0.2287
     72  O          2.2340   -7.6370   24.1130 O.2    95  LEU95      -0.2864
     73  CB         0.7470   -5.1330   23.4870 C.3    95  LEU95       0.0297
     74  CG         1.0730   -4.8560   22.0350 C.3    95  LEU95       0.0022
     75  CD1       -0.1390   -4.9230   21.1170 C.3    95  LEU95       0.0001
     76  CD2        1.7570   -3.5040   21.9080 C.3    95  LEU95       0.0001
     77  N          3.3060   -6.7660   17.4990 N.3    98  ILE98      -0.1245
     78  CA         2.8660   -5.7910   16.4950 C.3    98  ILE98       0.1561
     79  C          3.4080   -6.3270   15.1760 C.2    98  ILE98       0.2260
     80  O          4.6010   -6.4950   15.0510 O.2    98  ILE98      -0.2867
     81  CB         3.4040   -4.3850   16.7650 C.3    98  ILE98       0.0252
     82  CG1        3.1200   -3.9160   18.1930 C.3    98  ILE98       0.0019
     83  CG2        2.8250   -3.3990   15.7660 C.3    98  ILE98       0.0019
     84  CD1        3.9060   -2.6720   18.5500 C.3    98  ILE98       0.0001
     85  N         -1.7910   -4.5420   15.6950 N.3   120  TYR120     -0.1241
     86  CA        -1.5310   -4.7380   17.1040 C.3   120  TYR120      0.1605
     87  C         -2.3040   -5.9490   17.5780 C.2   120  TYR120      0.2264
     88  O         -3.5310   -5.9520   17.4680 O.2   120  TYR120     -0.2867
     89  CB        -1.9790   -3.4910   17.8820 C.3   120  TYR120      0.0534
     90  CG        -1.2090   -2.2600   17.4950 C.ar  120  TYR120     -0.0201
     91  CD1       -1.5100   -1.5440   16.3640 C.ar  120  TYR120     -0.0009
     92  CD2       -0.1180   -1.8390   18.2530 C.ar  120  TYR120     -0.0009
     93  CE1       -0.7770   -0.4150   16.0060 C.ar  120  TYR120      0.0417
     94  CE2        0.6180   -0.7300   17.8920 C.ar  120  TYR120      0.0417
     95  CZ         0.2880   -0.0320   16.7700 C.ar  120  TYR120      0.1957
     96  OH         1.0480    1.0610   16.4380 O.3   120  TYR120     -0.2866
     97  N         -7.6540   -1.7140   24.6210 N.3   127  GLU127     -0.1231
     98  CA        -7.7470   -1.1140   23.2920 C.3   127  GLU127      0.1699
     99  C         -6.5470   -0.2600   22.8850 C.2   127  GLU127      0.2592
    100  O         -5.8270    0.2890   23.7290 O.2   127  GLU127     -0.2718
    101  CB        -9.0730   -0.3560   23.1510 C.3   127  GLU127      0.0402
    102  CG        -9.0200    1.1390   23.0730 C.3   127  GLU127      0.1161
    103  CD       -10.4100    1.7600   23.1230 C.2   127  GLU127      0.3649
    104  OE1      -10.9440    1.9620   24.2370 O.co2 127  GLU127     -0.2457
    105  OE2      -10.9740    2.0440   22.0550 O.co2 127  GLU127     -0.2457
    106  N         -6.3650   -0.1700   21.5700 N.am  128  VAL128     -0.1980
    107  CA        -5.3310    0.6360   20.9280 C.3   128  VAL128      0.1595
    108  C         -6.0110    1.7050   20.0500 C.2   128  VAL128      0.2287
    109  O         -6.5850    1.3820   18.9980 O.2   128  VAL128     -0.2864
    110  CB        -4.4360   -0.2540   20.0290 C.3   128  VAL128      0.0276
    111  CG1       -3.2980    0.5500   19.4340 C.3   128  VAL128      0.0022
    112  CG2       -3.9020   -1.4470   20.7960 C.3   128  VAL128      0.0022
    113  N         -2.9540    7.3310   20.0920 N.3   132  GLN132     -0.1231
    114  CA        -1.7270    6.7800   20.6590 C.3   132  GLN132      0.1698
    115  C         -0.7930    6.2170   19.5830 C.2   132  GLN132      0.2592
    116  O          0.4240    6.4260   19.6390 O.2   132  GLN132     -0.2718
    117  CB        -2.0720    5.7080   21.6920 C.3   132  GLN132      0.0381
    118  CG        -2.9580    6.2110   22.8190 C.3   132  GLN132      0.0905
    119  CD        -2.5950    7.6120   23.2830 C.2   132  GLN132      0.2608
    120  OE1       -1.4160    7.9220   23.5080 O.2   132  GLN132     -0.2717
    121  NE2       -3.6110    8.4740   23.4210 N.am  132  GLN132     -0.0878
    122  N         -1.3810    5.5420   18.5940 N.am  133  VAL133     -0.1980
    123  CA        -0.6880    5.0310   17.3820 C.3   133  VAL133      0.1595
    124  C          0.0210    6.1530   16.5860 C.2   133  VAL133      0.2287
    125  O          0.9320    5.9000   15.7770 O.2   133  VAL133     -0.2864
    126  CB        -1.7320    4.2810   16.5050 C.3   133  VAL133      0.0276
    127  CG1       -1.2130    4.0070   15.1060 C.3   133  VAL133      0.0022
    128  CG2       -2.1720    2.9940   17.2050 C.3   133  VAL133      0.0022
    129  N          2.1900    8.0670   17.6870 N.3   135  ALA135     -0.1231
    130  CA         3.6130    7.9900   18.0170 C.3   135  ALA135      0.1694
    131  C          4.3580    7.1070   17.0390 C.2   135  ALA135      0.2592
    132  O          5.4910    7.4160   16.6810 O.2   135  ALA135     -0.2718
    133  CB         3.8260    7.4960   19.4380 C.3   135  ALA135      0.0304
    134  N          3.7210    6.0240   16.6010 N.am  136  SER136     -0.1952
    135  CA         4.3020    5.1350   15.5890 C.3   136  SER136      0.1924
    136  C          4.5110    5.8910   14.2900 C.2   136  SER136      0.2314
    137  O          5.5950    5.8490   13.7070 O.2   136  SER136     -0.2863
    138  CB         3.4190    3.8920   15.3610 C.3   136  SER136      0.2116
    139  OG         3.8490    3.1150   14.2400 O.3   136  SER136     -0.2180
    140  N          7.2930    8.6370   14.5990 N.3   139  MET139     -0.1245
    141  CA         8.6310    8.0330   14.5680 C.3   139  MET139      0.1570
    142  C          9.0000    7.5850   13.1610 C.2   139  MET139      0.2261
    143  O         10.1050    7.8530   12.6910 O.2   139  MET139     -0.2867
    144  CB         8.7220    6.8240   15.5040 C.3   139  MET139      0.0387
    145  CG        10.0060    6.0340   15.3630 C.3   139  MET139      0.0595
    146  SD        11.4950    6.9000   15.8860 S.3   139  MET139     -0.1393
    147  CE        11.3750    6.6660   17.6600 C.3   139  MET139      0.0692
@<TRIPOS>BOND
     1   143   142    2
     2   142   141    1
     3   137   136    2
     4   139   138    1
     5   136   135    1
     6   141   140    1
     7   141   144    1
     8    80    79    2
     9   127   126    1
    10    79    78    1
    11   138   135    1
    12   145   144    1
    13   145   146    1
    14   135   134    1
    15    85    86    1
    16    83    81    1
    17   125   124    2
    18   146   147    1
    19    48    49    1
    20    93    91   ar
    21    93    95   ar
    22    91    90   ar
    23    96    95    1
    24    78    81    1
    25    78    77    1
    26   126   128    1
    27   126   123    1
    28    54    52    1
    29   124   123    1
    30   134   131   am
    31   132   131    2
    32    81    82    1
    33    95    94   ar
    34   131   130    1
    35    86    87    1
    36    86    89    1
    37    49    52    1
    38    49    50    1
    39   123   122    1
    40    88    87    2
    41    90    89    1
    42    90    92   ar
    43    52    53    1
    44   129   130    1
    45    94    92   ar
    46   130   133    1
    47    50    51    2
    48    82    84    1
    49   122   115   am
    50     9    11   ar
    51     9     7   ar
    52   109   108    2
    53    47    45    1
    54    11    10   ar
    55   111   110    1
    56   115   116    2
    57   115   114    1
    58     7     6   ar
    59    44    43    2
    60   110   112    1
    61   110   107    1
    62   108   107    1
    63   113   114    1
    64    45    46    1
    65    45    42    1
    66    43    42    1
    67   114   117    1
    68    10     8   ar
    69    21    22   ar
    70    21    19   ar
    71   107   106    1
    72    22    20   ar
    73    75    74    1
    74     6     8   ar
    75     6     5    1
    76    42    41    1
    77   106    99   am
    78   117   118    1
    79     2     1    1
    80     2     5    1
    81     2     3    1
    82    19    17   ar
    83    76    74    1
    84    74    73    1
    85   105   103   ar
    86    20    18   ar
    87     3     4    2
    88   118   119    1
    89    99    98    1
    90    99   100    2
    91    60    61    1
    92    60    59    1
    93   102   103    1
    94   102   101    1
    95    17    18   ar
    96    17    16    1
    97   103   104   ar
    98   101    98    1
    99   119   121   am
   100   119   120    2
   101    98    97    1
   102    73    70    1
   103    61    55    1
   104    71    70    1
   105    71    72    2
   106    70    69    1
   107    59    56    1
   108    16    13    1
   109    37    39   ar
   110    37    35   ar
   111    39    40   ar
   112    29    28    1
   113    29    23    1
   114    55    56    1
   115    65    64    2
   116    33    32    2
   117    34    35    1
   118    34    31    1
   119    57    56    1
   120    57    58    2
   121    28    27    1
   122    69    64   am
   123    35    36   ar
   124    13    12    1
   125    13    14    1
   126    64    63    1
   127    32    31    1
   128    40    38   ar
   129    23    14   am
   130    23    24    1
   131    30    31    1
   132    30    25   am
   133    27    24    1
   134    14    15    2
   135    36    38   ar
   136    24    25    1
   137    25    26    2
   138    67    66    1
   139    63    66    1
   140    63    62    1
   141    66    68    1
