@<TRIPOS>MOLECULE
tmp/4a83A02.pdb
 121 111 0 0 0
SMALL
GASTEIGER

@<TRIPOS>ATOM
      1  N         -1.5620    3.4280    6.8180 N.3     7  THR7       -0.1218
      2  CA        -1.2600    4.7950    6.4260 C.3     7  THR7        0.1862
      3  C         -0.3720    4.7960    5.2070 C.2     7  THR7        0.2287
      4  O          0.1920    3.7620    4.8270 O.2     7  THR7       -0.2866
      5  CB        -0.5840    5.5710    7.5560 C.3     7  THR7        0.1770
      6  OG1       -0.5410    6.9780    7.2280 O.3     7  THR7       -0.2211
      7  CG2        0.8040    5.0130    7.8350 C.3     7  THR7        0.0375
      8  N          2.6200    7.4470    3.1480 N.3     9  THR9       -0.1218
      9  CA         3.3900    8.6650    3.1120 C.3     9  THR9        0.1862
     10  C          4.2810    8.6800    1.8870 C.2     9  THR9        0.2287
     11  O          4.5760    7.6690    1.2720 O.2     9  THR9       -0.2866
     12  CB         4.1820    8.8680    4.4050 C.3     9  THR9        0.1770
     13  OG1        4.7200   10.1950    4.4260 O.3     9  THR9       -0.2211
     14  CG2        5.2910    7.8210    4.5280 C.3     9  THR9        0.0375
     15  N         16.7560    2.4660    3.2530 N.3    22  PHE22      -0.1241
     16  CA        15.8840    2.4930    4.4460 C.3    22  PHE22       0.1605
     17  C         15.5920    1.0820    4.9810 C.2    22  PHE22       0.2264
     18  O         15.5360    0.8700    6.1960 O.2    22  PHE22      -0.2867
     19  CB        14.5740    3.1960    4.0560 C.3    22  PHE22       0.0534
     20  CG        13.6090    3.4060    5.1790 C.ar   22  PHE22      -0.0203
     21  CD1       12.6890    2.4240    5.5440 C.ar   22  PHE22      -0.0042
     22  CD2       13.6040    4.5940    5.8680 C.ar   22  PHE22      -0.0042
     23  CE1       11.7980    2.6500    6.5820 C.ar   22  PHE22      -0.0003
     24  CE2       12.7100    4.8260    6.9040 C.ar   22  PHE22      -0.0003
     25  CZ        11.8030    3.8650    7.2480 C.ar   22  PHE22      -0.0000
     26  N          7.6780   -7.3320    9.1860 N.3    83  TYR83      -0.1241
     27  CA         8.3840   -7.6580   10.4180 C.3    83  TYR83       0.1605
     28  C          7.4370   -7.5300   11.5940 C.2    83  TYR83       0.2264
     29  O          6.3830   -6.8970   11.5060 O.2    83  TYR83      -0.2867
     30  CB         9.6080   -6.7260   10.6390 C.3    83  TYR83       0.0534
     31  CG         9.2280   -5.2940   10.8920 C.ar   83  TYR83      -0.0201
     32  CD1        9.0130   -4.4160    9.8420 C.ar   83  TYR83      -0.0009
     33  CD2        9.0000   -4.8280   12.1930 C.ar   83  TYR83      -0.0009
     34  CE1        8.6390   -3.1050   10.0540 C.ar   83  TYR83       0.0417
     35  CE2        8.6420   -3.5070   12.4110 C.ar   83  TYR83       0.0417
     36  CZ         8.4370   -2.6530   11.3380 C.ar   83  TYR83       0.1957
     37  OH         8.0360   -1.3380   11.5420 O.3    83  TYR83      -0.2866
     38  N          3.9070   -5.5960   11.2810 N.3   100  ASN100     -0.1240
     39  CA         3.9810   -4.4720   10.3720 C.3   100  ASN100      0.1653
     40  C          4.3320   -4.9190    8.9640 C.2   100  ASN100      0.2266
     41  O          5.0650   -5.8890    8.7660 O.2   100  ASN100     -0.2867
     42  CB         5.0130   -3.4450   10.8710 C.3   100  ASN100      0.1155
     43  CG         4.5120   -2.6460   12.0740 C.2   100  ASN100      0.2627
     44  OD1        3.3950   -2.8580   12.5290 O.2   100  ASN100     -0.2716
     45  ND2        5.3400   -1.7260   12.5910 N.am  100  ASN100     -0.0877
     46  N          5.5140   -3.0020    5.2180 N.3   102  ILE102     -0.1245
     47  CA         5.9180   -1.8150    4.4860 C.3   102  ILE102      0.1561
     48  C          5.9820   -2.2070    3.0210 C.2   102  ILE102      0.2260
     49  O          6.5680   -3.2370    2.6790 O.2   102  ILE102     -0.2867
     50  CB         7.3120   -1.2980    4.9290 C.3   102  ILE102      0.0252
     51  CG1        7.3470   -0.9210    6.4170 C.3   102  ILE102      0.0019
     52  CG2        7.7040   -0.0830    4.0930 C.3   102  ILE102      0.0019
     53  CD1        8.7620   -0.6970    6.9460 C.3   102  ILE102      0.0001
     54  N          5.1350    5.1050    0.4110 N.3   114  LEU114     -0.1245
     55  CA         5.2540    4.0190    1.3500 C.3   114  LEU114      0.1561
     56  C          3.8770    3.7060    1.8890 C.2   114  LEU114      0.2260
     57  O          3.1950    4.5860    2.4270 O.2   114  LEU114     -0.2867
     58  CB         6.1940    4.3720    2.4690 C.3   114  LEU114      0.0270
     59  CG         7.6300    4.5520    2.0220 C.3   114  LEU114      0.0019
     60  CD1        7.9020    5.9870    1.5680 C.3   114  LEU114      0.0001
     61  CD2        8.5650    4.0770    3.1340 C.3   114  LEU114      0.0001
     62  N          1.9540    1.4660    4.5680 N.3   116  ILE116     -0.1245
     63  CA         2.2730    0.8580    5.8460 C.3   116  ILE116      0.1561
     64  C          1.0150    0.2770    6.5210 C.2   116  ILE116      0.2260
     65  O         -0.0210    0.9430    6.6130 O.2   116  ILE116     -0.2867
     66  CB         2.9210    1.8940    6.7660 C.3   116  ILE116      0.0252
     67  CG1        4.2010    2.4510    6.1220 C.3   116  ILE116      0.0019
     68  CG2        3.2390    1.2780    8.1140 C.3   116  ILE116      0.0019
     69  CD1        4.2170    3.9560    6.0060 C.3   116  ILE116      0.0001
     70  N          0.0540   -1.5230   10.2300 N.3   118  ASN118     -0.1240
     71  CA         0.4570   -1.8900   11.5870 C.3   118  ASN118      0.1653
     72  C         -0.6960   -2.6010   12.2180 C.2   118  ASN118      0.2266
     73  O         -1.8060   -2.0540   12.2900 O.2   118  ASN118     -0.2867
     74  CB         0.7610   -0.6850   12.4610 C.3   118  ASN118      0.1155
     75  CG         1.8430    0.1920   11.8970 C.2   118  ASN118      0.2627
     76  OD1        2.8770   -0.2860   11.4490 O.2   118  ASN118     -0.2716
     77  ND2        1.6090    1.4940   11.9200 N.am  118  ASN118     -0.0877
     78  N          3.7210    6.0240   16.6010 N.3   136  SER136     -0.1202
     79  CA         4.3020    5.1350   15.5890 C.3   136  SER136      0.2020
     80  C          4.5110    5.8910   14.2900 C.2   136  SER136      0.2618
     81  O          5.5950    5.8490   13.7070 O.2   136  SER136     -0.2717
     82  CB         3.4190    3.8920   15.3610 C.3   136  SER136      0.2103
     83  OG         3.8490    3.1150   14.2400 O.3   136  SER136     -0.2182
     84  N          3.4750    6.5860   13.8460 N.am  137  LYS137     -0.1979
     85  CA         3.5280    7.3420   12.6040 C.3   137  LYS137      0.1596
     86  C          4.5950    8.4180   12.6460 C.2   137  LYS137      0.2287
     87  O          5.3750    8.5460   11.7020 O.2   137  LYS137     -0.2864
     88  CB         2.1580    7.9720   12.3110 C.3   137  LYS137      0.0298
     89  CG         2.0990    8.7560   11.0120 C.3   137  LYS137      0.0038
     90  CD         0.6560    9.1070   10.6790 C.3   137  LYS137      0.0206
     91  CE         0.5780   10.1550    9.5830 C.3   137  LYS137      0.1093
     92  NZ        -0.7830   10.2190    8.9770 N.3   137  LYS137     -0.1314
     93  N          8.0830    6.8960   12.5020 N.3   140  GLY140     -0.1210
     94  CA         8.3130    6.4450   11.1450 C.3   140  GLY140      0.1956
     95  C          8.6510    7.5760   10.1910 C.2   140  GLY140      0.2611
     96  O          9.5580    7.4530    9.3580 O.2   140  GLY140     -0.2717
     97  N          7.9150    8.6830   10.2990 N.am  141  GLU141     -0.1979
     98  CA         8.1440    9.8670    9.4750 C.3   141  GLU141      0.1602
     99  C          9.5050   10.4920    9.7630 C.2   141  GLU141      0.2287
    100  O         10.2000   10.9160    8.8540 O.2   141  GLU141     -0.2864
    101  CB         7.0620   10.9180    9.7290 C.3   141  GLU141      0.0415
    102  CG         5.6730   10.5300    9.2650 C.3   141  GLU141      0.1163
    103  CD         5.5260   10.5330    7.7660 C.2   141  GLU141      0.3649
    104  OE1        6.3070   11.2390    7.0810 O.co2 141  GLU141     -0.2457
    105  OE2        4.6130    9.8270    7.2840 O.co2 141  GLU141     -0.2457
    106  N         12.1910    8.9780   10.8710 N.3   143  LEU143     -0.1231
    107  CA        13.2190    8.1190   10.3100 C.3   143  LEU143      0.1693
    108  C         13.2800    8.2790    8.7930 C.2   143  LEU143      0.2591
    109  O         14.3670    8.3600    8.2120 O.2   143  LEU143     -0.2718
    110  CB        12.9500    6.6720   10.6840 C.3   143  LEU143      0.0284
    111  CG        13.0570    6.3280   12.1680 C.3   143  LEU143      0.0019
    112  CD1       12.6860    4.8680   12.3580 C.3   143  LEU143      0.0001
    113  CD2       14.4620    6.5910   12.6860 C.3   143  LEU143      0.0001
    114  N         12.1190    8.3290    8.1520 N.am  144  LEU144     -0.1980
    115  CA        12.0620    8.4750    6.6930 C.3   144  LEU144      0.1596
    116  C         12.7140    9.7880    6.2550 C.2   144  LEU144      0.2287
    117  O         13.5480    9.8120    5.3530 O.2   144  LEU144     -0.2864
    118  CB        10.6280    8.3890    6.1910 C.3   144  LEU144      0.0297
    119  CG        10.4160    8.6920    4.7020 C.3   144  LEU144      0.0022
    120  CD1       11.1930    7.7160    3.8260 C.3   144  LEU144      0.0001
    121  CD2        8.9330    8.6890    4.3640 C.3   144  LEU144      0.0001
@<TRIPOS>BOND
     1    54    55    1
     2    11    10    2
     3    55    56    1
     4    55    58    1
     5    60    59    1
     6    10     9    1
     7    56    57    2
     8    59    58    1
     9    59    61    1
    10    49    48    2
    11    48    47    1
    12     9     8    1
    13     9    12    1
    14    15    16    1
    15   120   119    1
    16    19    16    1
    17    19    20    1
    18    52    50    1
    19   121   119    1
    20    12    13    1
    21    12    14    1
    22    16    17    1
    23    47    50    1
    24    47    46    1
    25    62    63    1
    26   119   118    1
    27     4     3    2
    28    50    51    1
    29    17    18    2
    30    20    21   ar
    31    20    22   ar
    32     3     2    1
    33   117   116    2
    34    21    23   ar
    35    63    64    1
    36    63    66    1
    37    22    24   ar
    38    69    67    1
    39    67    66    1
    40   118   115    1
    41   116   115    1
    42    51    53    1
    43     2     1    1
    44     2     5    1
    45    64    65    2
    46    23    25   ar
    47   115   114    1
    48    66    68    1
    49    24    25   ar
    50   104   103   ar
    51     6     5    1
    52   105   103   ar
    53     5     7    1
    54   103   102    1
    55   114   108   am
    56   109   108    2
    57    41    40    2
    58   108   107    1
    59   100    99    2
    60    40    39    1
    61    92    91    1
    62    26    27    1
    63   102   101    1
    64    96    95    2
    65    98   101    1
    66    98    99    1
    67    98    97    1
    68    91    90    1
    69    32    34   ar
    70    32    31   ar
    71    34    36   ar
    72    95    97   am
    73    95    94    1
    74    70    71    1
    75   107   110    1
    76   107   106    1
    77    39    42    1
    78    39    38    1
    79    27    30    1
    80    27    28    1
    81    30    31    1
    82    90    89    1
    83   110   111    1
    84    42    43    1
    85    31    33   ar
    86    89    88    1
    87    94    93    1
    88    36    37    1
    89    36    35   ar
    90    76    75    2
    91    29    28    2
    92    71    72    1
    93    71    74    1
    94    87    86    2
    95    75    77   am
    96    75    74    1
    97    43    44    2
    98    43    45   am
    99   111   112    1
   100   111   113    1
   101    33    35   ar
   102    72    73    2
   103    88    85    1
   104    85    86    1
   105    85    84    1
   106    81    80    2
   107    84    80   am
   108    83    82    1
   109    80    79    1
   110    82    79    1
   111    79    78    1
