@<TRIPOS>MOLECULE
tmp/4a85A00.pdb
 160 149 0 0 0
SMALL
GASTEIGER

@<TRIPOS>ATOM
      1  N         -1.5290    3.5850    6.8660 N.3     7  THR7       -0.1218
      2  CA        -1.2530    4.9290    6.4530 C.3     7  THR7        0.1862
      3  C         -0.4000    4.9180    5.1890 C.2     7  THR7        0.2287
      4  O          0.1420    3.8780    4.7910 O.2     7  THR7       -0.2866
      5  CB        -0.5570    5.7340    7.5740 C.3     7  THR7        0.1770
      6  OG1       -0.6080    7.1520    7.2930 O.3     7  THR7       -0.2211
      7  CG2        0.9040    5.2320    7.8930 C.3     7  THR7        0.0375
      8  N          2.5480    7.5770    2.9890 N.3     9  THR9       -0.1218
      9  CA         3.3660    8.7710    2.9580 C.3     9  THR9        0.1862
     10  C          4.1520    8.7650    1.6560 C.2     9  THR9        0.2287
     11  O          4.2160    7.7630    0.9810 O.2     9  THR9       -0.2866
     12  CB         4.2390    8.8650    4.2300 C.3     9  THR9        0.1770
     13  OG1        4.8460   10.1980    4.3610 O.3     9  THR9       -0.2211
     14  CG2        5.2590    7.7670    4.2490 C.3     9  THR9        0.0375
     15  N         16.5160    2.6020    3.1630 N.3    22  PHE22      -0.1227
     16  CA        15.6110    2.7430    4.3140 C.3    22  PHE22       0.1736
     17  C         15.2330    1.3910    4.8770 C.2    22  PHE22       0.2595
     18  O         15.0850    1.2360    6.0560 O.2    22  PHE22      -0.2718
     19  CB        14.3840    3.4870    3.8370 C.3    22  PHE22       0.0547
     20  CG        13.3590    3.7670    4.8790 C.ar   22  PHE22      -0.0202
     21  CD1       13.6050    4.5970    5.9400 C.ar   22  PHE22      -0.0042
     22  CD2       12.1100    3.1900    4.7550 C.ar   22  PHE22      -0.0042
     23  CE1       12.6300    4.8180    6.9120 C.ar   22  PHE22      -0.0003
     24  CE2       11.1410    3.4480    5.6740 C.ar   22  PHE22      -0.0003
     25  CZ        11.4280    4.2320    6.8070 C.ar   22  PHE22      -0.0000
     26  N         15.0470    0.4000    4.0010 N.am   23  ILE23      -0.1980
     27  CA        14.6870   -0.9890    4.4190 C.3    23  ILE23       0.1595
     28  C         15.9070   -1.8490    4.5450 C.2    23  ILE23       0.2287
     29  O         16.2180   -2.3320    5.6320 O.2    23  ILE23      -0.2864
     30  CB        13.6800   -1.6510    3.4470 C.3    23  ILE23       0.0276
     31  CG1       12.3800   -0.8260    3.3980 C.3    23  ILE23       0.0022
     32  CG2       13.4350   -3.1120    3.8090 C.3    23  ILE23       0.0022
     33  CD1       11.6900   -0.5730    4.7060 C.3    23  ILE23       0.0001
     34  N         19.9770    3.9760   10.2600 N.3    30  PHE30      -0.1241
     35  CA        19.1920    4.6780   11.2620 C.3    30  PHE30       0.1605
     36  C         20.0080    5.3020   12.4020 C.2    30  PHE30       0.2264
     37  O         19.8050    6.4620   12.7260 O.2    30  PHE30      -0.2867
     38  CB        18.0780    3.7940   11.8070 C.3    30  PHE30       0.0534
     39  CG        17.0100    3.4550   10.8350 C.ar   30  PHE30      -0.0203
     40  CD1       16.7120    4.2360    9.7520 C.ar   30  PHE30      -0.0042
     41  CD2       16.2340    2.3270   11.0280 C.ar   30  PHE30      -0.0042
     42  CE1       15.7100    3.8830    8.9010 C.ar   30  PHE30      -0.0003
     43  CE2       15.2400    1.9810   10.1520 C.ar   30  PHE30      -0.0003
     44  CZ        15.0090    2.7540    9.0630 C.ar   30  PHE30      -0.0000
     45  N         12.8120   -6.5630   16.9410 N.3    69  ASP69      -0.1239
     46  CA        12.0290   -6.7360   15.7540 C.3    69  ASP69       0.1674
     47  C         12.5190   -7.9770   15.0410 C.2    69  ASP69       0.2266
     48  O         13.7150   -8.2350   14.9710 O.2    69  ASP69      -0.2867
     49  CB        12.2040   -5.5080   14.8520 C.3    69  ASP69       0.1410
     50  CG        11.5470   -4.2400   15.3670 C.2    69  ASP69       0.3668
     51  OD1       10.8000   -4.3130   16.3580 O.co2  69  ASP69      -0.2456
     52  OD2       11.7580   -3.2040   14.6940 O.co2  69  ASP69      -0.2456
     53  N          8.3090   -5.1670    2.6270 N.3    81  TYR81      -0.1241
     54  CA         9.0350   -5.6200    3.8060 C.3    81  TYR81       0.1605
     55  C          8.0530   -5.7920    4.9610 C.2    81  TYR81       0.2264
     56  O          7.3140   -4.8670    5.2780 O.2    81  TYR81      -0.2867
     57  CB        10.0720   -4.5440    4.2040 C.3    81  TYR81       0.0534
     58  CG        10.9050   -4.8840    5.4040 C.ar   81  TYR81      -0.0201
     59  CD1       11.8030   -5.9070    5.3510 C.ar   81  TYR81      -0.0009
     60  CD2       10.8730   -4.1060    6.5210 C.ar   81  TYR81      -0.0009
     61  CE1       12.6370   -6.1610    6.4220 C.ar   81  TYR81       0.0417
     62  CE2       11.6580   -4.3890    7.6190 C.ar   81  TYR81       0.0417
     63  CZ        12.5340   -5.3950    7.5680 C.ar   81  TYR81       0.1957
     64  OH        13.3340   -5.6220    8.6430 O.3    81  TYR81      -0.2866
     65  N          7.7470   -7.0600    8.9740 N.3    83  TYR83      -0.1241
     66  CA         8.5120   -7.3170   10.2130 C.3    83  TYR83       0.1605
     67  C          7.5810   -7.1220   11.4110 C.2    83  TYR83       0.2264
     68  O          6.5630   -6.4830   11.2950 O.2    83  TYR83      -0.2867
     69  CB         9.6880   -6.3700   10.3250 C.3    83  TYR83       0.0534
     70  CG         9.3280   -4.9800   10.6310 C.ar   83  TYR83      -0.0201
     71  CD1        8.9160   -4.0880    9.6590 C.ar   83  TYR83      -0.0009
     72  CD2        9.3440   -4.5170   11.9920 C.ar   83  TYR83      -0.0009
     73  CE1        8.5690   -2.7930   10.0190 C.ar   83  TYR83       0.0417
     74  CE2        9.0280   -3.2580   12.2990 C.ar   83  TYR83       0.0417
     75  CZ         8.6040   -2.3740   11.3270 C.ar   83  TYR83       0.1957
     76  OH         8.2400   -1.0910   11.6920 O.3    83  TYR83      -0.2866
     77  N          3.9160   -5.6560   10.9910 N.3   100  ASN100     -0.1240
     78  CA         3.9890   -4.4950   10.1290 C.3   100  ASN100      0.1653
     79  C          4.2880   -4.9500    8.6810 C.2   100  ASN100      0.2266
     80  O          5.0320   -5.9040    8.4640 O.2   100  ASN100     -0.2867
     81  CB         5.1210   -3.5990   10.5940 C.3   100  ASN100      0.1155
     82  CG         4.9820   -3.1920   12.0370 C.2   100  ASN100      0.2627
     83  OD1        4.1010   -2.4200   12.3670 O.2   100  ASN100     -0.2716
     84  ND2        5.7470   -3.8140   12.8910 N.am  100  ASN100     -0.0877
     85  N          5.3330   -2.9610    4.9480 N.3   102  ILE102     -0.1245
     86  CA         5.6770   -1.7240    4.2350 C.3   102  ILE102      0.1561
     87  C          5.7900   -2.1000    2.7630 C.2   102  ILE102      0.2260
     88  O          6.4350   -3.0990    2.4100 O.2   102  ILE102     -0.2867
     89  CB         7.0210   -1.1560    4.6740 C.3   102  ILE102      0.0252
     90  CG1        6.9650   -0.8250    6.1530 C.3   102  ILE102      0.0019
     91  CG2        7.3790    0.1260    3.9240 C.3   102  ILE102      0.0019
     92  CD1        8.3050   -0.4520    6.7770 C.3   102  ILE102      0.0001
     93  N          4.9850    5.1930    0.0820 N.3   114  LEU114     -0.1245
     94  CA         5.0850    4.0920    1.0470 C.3   114  LEU114      0.1561
     95  C          3.7300    3.8290    1.6630 C.2   114  LEU114      0.2260
     96  O          3.0580    4.7390    2.1350 O.2   114  LEU114     -0.2867
     97  CB         6.0600    4.4520    2.1210 C.3   114  LEU114      0.0270
     98  CG         7.4830    4.7810    1.7300 C.3   114  LEU114      0.0019
     99  CD1        7.6680    6.2070    1.2840 C.3   114  LEU114      0.0001
    100  CD2        8.5380    4.3940    2.7480 C.3   114  LEU114      0.0001
    101  N          1.8780    1.6110    4.5140 N.3   116  ILE116     -0.1245
    102  CA         2.2850    1.0190    5.8040 C.3   116  ILE116      0.1561
    103  C          1.0470    0.4650    6.4840 C.2   116  ILE116      0.2260
    104  O          0.0450    1.1400    6.5950 O.2   116  ILE116     -0.2867
    105  CB         2.9550    2.0800    6.6870 C.3   116  ILE116      0.0252
    106  CG1        4.2250    2.6210    5.9600 C.3   116  ILE116      0.0019
    107  CG2        3.2600    1.5050    8.0650 C.3   116  ILE116      0.0019
    108  CD1        4.2880    4.1400    5.8610 C.3   116  ILE116      0.0001
    109  N          0.1170   -1.5040   10.1830 N.3   118  ASN118     -0.1240
    110  CA         0.5570   -1.8870   11.5660 C.3   118  ASN118      0.1653
    111  C         -0.5930   -2.6610   12.1610 C.2   118  ASN118      0.2266
    112  O         -1.6610   -2.0450   12.3020 O.2   118  ASN118     -0.2867
    113  CB         0.8180   -0.5990   12.3880 C.3   118  ASN118      0.1155
    114  CG         1.8690    0.3700   11.8210 C.2   118  ASN118      0.2627
    115  OD1        1.6520    1.6250   11.8400 O.2   118  ASN118     -0.2716
    116  ND2        2.9580   -0.1370   11.3180 N.am  118  ASN118     -0.0877
    117  N          4.2480    5.6120   16.7690 N.3   136  SER136     -0.1202
    118  CA         4.8290    4.7590   15.7260 C.3   136  SER136      0.2020
    119  C          4.9510    5.5020   14.4100 C.2   136  SER136      0.2618
    120  O          5.9980    5.4370   13.7870 O.2   136  SER136     -0.2717
    121  CB         3.9980    3.4840   15.5750 C.3   136  SER136      0.2103
    122  OG         4.5390    2.5650   14.6620 O.3   136  SER136     -0.2182
    123  N          3.8770    6.2020   14.0250 N.am  137  LYS137     -0.1979
    124  CA         3.8510    6.9400   12.7650 C.3   137  LYS137      0.1596
    125  C          4.8750    8.0120   12.8200 C.2   137  LYS137      0.2287
    126  O          5.5670    8.2330   11.8280 O.2   137  LYS137     -0.2864
    127  CB         2.4480    7.5270   12.4520 C.3   137  LYS137      0.0298
    128  CG         2.3700    8.3720   11.1700 C.3   137  LYS137      0.0038
    129  CD         0.9330    8.8340   10.8690 C.3   137  LYS137      0.0206
    130  CE         0.6390   10.2840   11.2640 C.3   137  LYS137      0.1093
    131  NZ        -0.6740   10.7850   10.7450 N.3   137  LYS137     -0.1314
    132  N          8.3810    6.5220   12.4840 N.3   140  GLY140     -0.1210
    133  CA         8.5840    6.0960   11.0630 C.3   140  GLY140      0.1956
    134  C          8.8710    7.2950   10.1570 C.2   140  GLY140      0.2611
    135  O          9.8070    7.2550    9.3130 O.2   140  GLY140     -0.2717
    136  N          8.1230    8.3880   10.3770 N.am  141  GLU141     -0.1979
    137  CA         8.2510    9.5880    9.5370 C.3   141  GLU141      0.1602
    138  C          9.5960   10.2820    9.8010 C.2   141  GLU141      0.2287
    139  O         10.2680   10.7240    8.8840 O.2   141  GLU141     -0.2864
    140  CB         7.0160   10.4720    9.7300 C.3   141  GLU141      0.0415
    141  CG         6.8790   11.6690    8.8070 C.3   141  GLU141      0.1163
    142  CD         6.5810   11.3230    7.3550 C.2   141  GLU141      0.3649
    143  OE1        6.2020   10.1800    7.1020 O.co2 141  GLU141     -0.2457
    144  OE2        6.6540   12.2340    6.4830 O.co2 141  GLU141     -0.2457
    145  N         12.3740    8.8220   10.8010 N.3   143  LEU143     -0.1231
    146  CA        13.3780    7.9750   10.1570 C.3   143  LEU143      0.1693
    147  C         13.3780    8.1450    8.6210 C.2   143  LEU143      0.2591
    148  O         14.4500    8.2130    8.0490 O.2   143  LEU143     -0.2718
    149  CB        13.1490    6.5350   10.5460 C.3   143  LEU143      0.0284
    150  CG        13.3660    6.2020   12.0360 C.3   143  LEU143      0.0019
    151  CD1       12.9550    4.7500   12.2800 C.3   143  LEU143      0.0001
    152  CD2       14.7580    6.5210   12.5470 C.3   143  LEU143      0.0001
    153  N         12.2030    8.1100    8.0590 N.am  144  LEU144     -0.1980
    154  CA        12.1170    8.3550    6.5690 C.3   144  LEU144      0.1596
    155  C         12.7430    9.6580    6.1890 C.2   144  LEU144      0.2287
    156  O         13.5290    9.6950    5.2330 O.2   144  LEU144     -0.2864
    157  CB        10.6920    8.2870    6.1520 C.3   144  LEU144      0.0297
    158  CG        10.4210    8.6340    4.6830 C.3   144  LEU144      0.0022
    159  CD1       11.1750    7.6330    3.7610 C.3   144  LEU144      0.0001
    160  CD2        8.8900    8.6230    4.4960 C.3   144  LEU144      0.0001
@<TRIPOS>BOND
     1    93    94    1
     2    11    10    2
     3    94    95    1
     4    94    97    1
     5    99    98    1
     6    10     9    1
     7    95    96    2
     8    98    97    1
     9    98   100    1
    10    88    87    2
    11    53    54    1
    12    87    86    1
    13     9     8    1
    14     9    12    1
    15    15    16    1
    16    31    30    1
    17    31    33    1
    18    30    32    1
    19    30    27    1
    20   159   158    1
    21    54    57    1
    22    54    55    1
    23    19    16    1
    24    19    20    1
    25    91    89    1
    26    26    27    1
    27    26    17   am
    28    57    58    1
    29    12    14    1
    30    12    13    1
    31    86    89    1
    32    86    85    1
    33    16    17    1
    34    27    28    1
    35   160   158    1
    36   101   102    1
    37    28    29    2
    38    89    90    1
    39   158   157    1
    40    22    20   ar
    41    22    24   ar
    42     4     3    2
    43    17    18    2
    44    20    21   ar
    45    55    56    2
    46     3     2    1
    47   156   155    2
    48    59    58   ar
    49    59    61   ar
    50    58    60   ar
    51    24    25   ar
    52   102   103    1
    53   102   105    1
    54   108   106    1
    55    21    23   ar
    56   106   105    1
    57   157   154    1
    58    90    92    1
    59   155   154    1
    60    61    63   ar
    61     2     1    1
    62     2     5    1
    63   144   142   ar
    64   103   104    2
    65    60    62   ar
    66   154   153    1
    67   105   107    1
    68    25    23   ar
    69   143   142   ar
    70     6     5    1
    71   142   141    1
    72    63    62   ar
    73    63    64    1
    74     5     7    1
    75   148   147    2
    76   153   147   am
    77    80    79    2
    78   147   146    1
    79    79    78    1
    80   141   140    1
    81   139   138    2
    82    42    44   ar
    83    42    40   ar
    84    65    66    1
    85    44    43   ar
    86   135   134    2
    87   137   140    1
    88   137   138    1
    89   137   136    1
    90    71    73   ar
    91    71    70   ar
    92    40    39   ar
    93    73    75   ar
    94    78    81    1
    95    78    77    1
    96    43    41   ar
    97   134   136   am
    98   134   133    1
    99   146   149    1
   100   146   145    1
   101   109   110    1
   102    66    69    1
   103    66    67    1
   104    34    35    1
   105    69    70    1
   106   149   150    1
   107    81    82    1
   108    70    72   ar
   109   131   130    1
   110    39    41   ar
   111    39    38    1
   112   129   128    1
   113   129   130    1
   114   133   132    1
   115   128   127    1
   116    35    38    1
   117    35    36    1
   118    68    67    2
   119   116   114   am
   120    75    76    1
   121    75    74   ar
   122   110   111    1
   123   110   113    1
   124   114   115    2
   125   114   113    1
   126   126   125    2
   127    72    74   ar
   128   150   151    1
   129   150   152    1
   130    82    83    2
   131    82    84   am
   132   111   112    2
   133    36    37    2
   134   127   124    1
   135   124   125    1
   136   124   123    1
   137   120   119    2
   138   123   119   am
   139   119   118    1
   140   122   121    1
   141    52    50   ar
   142    49    50    1
   143    49    46    1
   144    48    47    2
   145    47    46    1
   146    50    51   ar
   147   121   118    1
   148   118   117    1
   149    46    45    1
