@<TRIPOS>MOLECULE
tmp/4a85A01.pdb
 77 71 0 0 0
SMALL
GASTEIGER

@<TRIPOS>ATOM
      1  N         15.0470    0.4000    4.0010 N.3    23  ILE23      -0.1231
      2  CA        14.6870   -0.9890    4.4190 C.3    23  ILE23       0.1692
      3  C         15.9070   -1.8490    4.5450 C.2    23  ILE23       0.2591
      4  O         16.2180   -2.3320    5.6320 O.2    23  ILE23      -0.2718
      5  CB        13.6800   -1.6510    3.4470 C.3    23  ILE23       0.0266
      6  CG1       12.3800   -0.8260    3.3980 C.3    23  ILE23       0.0019
      7  CG2       13.4350   -3.1120    3.8090 C.3    23  ILE23       0.0020
      8  CD1       11.6900   -0.5730    4.7060 C.3    23  ILE23       0.0001
      9  N         16.5870   -2.1090    3.4310 N.am   24  LEU24      -0.1980
     10  CA        17.6790   -3.0910    3.4370 C.3    24  LEU24       0.1596
     11  C         18.9330   -2.6850    4.2440 C.2    24  LEU24       0.2287
     12  O         19.6710   -3.5610    4.7020 O.2    24  LEU24      -0.2864
     13  CB        18.0390   -3.5590    1.9980 C.3    24  LEU24       0.0297
     14  CG        16.9450   -4.1550    1.1100 C.3    24  LEU24       0.0022
     15  CD1       17.4670   -4.3990   -0.3090 C.3    24  LEU24       0.0001
     16  CD2       16.4510   -5.4310    1.7740 C.3    24  LEU24       0.0001
     17  N         18.7300   -0.2330    6.9240 N.3    26  GLY26      -0.1210
     18  CA        18.3590    0.4750    8.1530 C.3    26  GLY26       0.1956
     19  C         19.2250    0.2430    9.3750 C.2    26  GLY26       0.2611
     20  O         19.4170    1.1750   10.1570 O.2    26  GLY26      -0.2717
     21  N         19.7270   -0.9630    9.5920 N.am   27  ASP27      -0.1973
     22  CA        20.6050   -1.2400   10.7570 C.3    27  ASP27       0.1709
     23  C         21.7950   -0.3110   10.8310 C.2    27  ASP27       0.2293
     24  O         22.2340    0.0910   11.9210 O.2    27  ASP27      -0.2864
     25  CB        21.1660   -2.6690   10.8060 C.3    27  ASP27       0.1436
     26  CG        20.1300   -3.7780   10.8640 C.2    27  ASP27       0.3671
     27  OD1       18.9630   -3.5290   10.7880 O.co2  27  ASP27      -0.2456
     28  OD2       20.5560   -4.9680   10.9380 O.co2  27  ASP27      -0.2456
     29  N         19.4210  -12.0150    7.6910 N.3    48  GLY48      -0.1225
     30  CA        18.6840  -10.9400    7.0650 C.3    48  GLY48       0.1811
     31  C         17.3010  -11.2960    6.5060 C.2    48  GLY48       0.2280
     32  O         16.4730  -10.4140    6.2350 O.2    48  GLY48      -0.2866
     33  N         16.5460   -8.3660   15.4490 N.3    54  LYS54      -0.1245
     34  CA        17.3810   -7.2320   15.7700 C.3    54  LYS54       0.1561
     35  C         16.8320   -6.4910   16.9980 C.2    54  LYS54       0.2260
     36  O         15.6140   -6.4840   17.2450 O.2    54  LYS54      -0.2867
     37  CB        17.5340   -6.2950   14.5930 C.3    54  LYS54       0.0271
     38  CG        17.4260   -7.0310   13.2510 C.3    54  LYS54       0.0035
     39  CD        18.0630   -6.2050   12.1580 C.3    54  LYS54       0.0206
     40  CE        17.9600   -6.9370   10.8410 C.3    54  LYS54       0.1093
     41  NZ        17.6880   -6.0060    9.7100 N.3    54  LYS54      -0.1314
     42  N         12.3720   -9.8890   11.2880 N.3    71  VAL71      -0.1245
     43  CA        12.0560   -9.8530    9.8590 C.3    71  VAL71       0.1561
     44  C         11.1140  -11.0110    9.5350 C.2    71  VAL71       0.2260
     45  O         11.3540  -12.1600    9.9690 O.2    71  VAL71      -0.2867
     46  CB        13.3540  -10.0380    9.0730 C.3    71  VAL71       0.0252
     47  CG1       13.0330  -10.0940    7.5560 C.3    71  VAL71       0.0019
     48  CG2       14.3520   -8.9400    9.3980 C.3    71  VAL71       0.0019
     49  N         10.8410  -10.4240    3.0450 N.3    74  VAL74      -0.1245
     50  CA        11.5010   -9.3390    2.2920 C.3    74  VAL74       0.1561
     51  C         11.4090   -9.6170    0.7720 C.2    74  VAL74       0.2260
     52  O         11.8200  -10.7130    0.3260 O.2    74  VAL74      -0.2867
     53  CB        13.0050   -9.2050    2.6470 C.3    74  VAL74       0.0252
     54  CG1       13.5970   -7.8890    2.1110 C.3    74  VAL74       0.0019
     55  CG2       13.2630   -9.3110    4.1670 C.3    74  VAL74       0.0019
     56  N         12.3340   -8.3100   -2.6140 N.3    76  HIS76      -0.1241
     57  CA        13.2640   -7.4070   -3.2800 C.3    76  HIS76       0.1621
     58  C         12.8100   -6.9670   -4.6600 C.2    76  HIS76       0.2264
     59  O         13.3450   -6.0160   -5.1900 O.2    76  HIS76      -0.2867
     60  CB        14.6670   -8.0890   -3.4490 C.3    76  HIS76       0.0745
     61  CG        15.4760   -8.2270   -2.1830 C.ar   76  HIS76       0.0817
     62  ND1       16.6450   -7.6080   -2.0140 N.ar   76  HIS76      -0.2268
     63  CD2       15.2590   -8.9640   -1.0320 C.ar   76  HIS76       0.1154
     64  CE1       17.1500   -7.9080   -0.8180 C.ar   76  HIS76       0.1986
     65  NE2       16.2990   -8.7340   -0.2160 N.ar   76  HIS76      -0.2212
     66  N          8.3090   -5.1670    2.6270 N.3    81  TYR81      -0.1241
     67  CA         9.0350   -5.6200    3.8060 C.3    81  TYR81       0.1605
     68  C          8.0530   -5.7920    4.9610 C.2    81  TYR81       0.2264
     69  O          7.3140   -4.8670    5.2780 O.2    81  TYR81      -0.2867
     70  CB        10.0720   -4.5440    4.2040 C.3    81  TYR81       0.0534
     71  CG        10.9050   -4.8840    5.4040 C.ar   81  TYR81      -0.0201
     72  CD1       11.8030   -5.9070    5.3510 C.ar   81  TYR81      -0.0009
     73  CD2       10.8730   -4.1060    6.5210 C.ar   81  TYR81      -0.0009
     74  CE1       12.6370   -6.1610    6.4220 C.ar   81  TYR81       0.0417
     75  CE2       11.6580   -4.3890    7.6190 C.ar   81  TYR81       0.0417
     76  CZ        12.5340   -5.3950    7.5680 C.ar   81  TYR81       0.1957
     77  OH        13.3340   -5.6220    8.6430 O.3    81  TYR81      -0.2866
@<TRIPOS>BOND
     1    59    58    2
     2    58    57    1
     3    60    57    1
     4    60    61    1
     5    57    56    1
     6    61    62   ar
     7    61    63   ar
     8    62    64   ar
     9    63    65   ar
    10    64    65   ar
    11    15    14    1
    12    52    51    2
    13    51    50    1
    14    14    16    1
    15    14    13    1
    16    13    10    1
    17    54    53    1
    18    50    53    1
    19    50    49    1
    20    66    67    1
    21    53    55    1
    22     6     5    1
    23     6     8    1
    24     9    10    1
    25     9     3   am
    26    10    11    1
    27     5     7    1
    28     5     2    1
    29    67    70    1
    30    67    68    1
    31     1     2    1
    32    70    71    1
    33    11    12    2
    34     2     3    1
    35     3     4    2
    36    68    69    2
    37    72    71   ar
    38    72    74   ar
    39    71    73   ar
    40    32    31    2
    41    74    76   ar
    42    31    30    1
    43    73    75   ar
    44    17    18    1
    45    30    29    1
    46    47    46    1
    47    76    75   ar
    48    76    77    1
    49    18    19    1
    50    46    48    1
    51    46    43    1
    52    19    21   am
    53    19    20    2
    54    44    43    1
    55    44    45    2
    56    21    22    1
    57    41    40    1
    58    43    42    1
    59    22    25    1
    60    22    23    1
    61    27    26   ar
    62    25    26    1
    63    23    24    2
    64    40    39    1
    65    26    28   ar
    66    39    38    1
    67    38    37    1
    68    37    34    1
    69    33    34    1
    70    34    35    1
    71    35    36    2
