@<TRIPOS>MOLECULE
tmp/4a86A01.pdb
 125 116 0 0 0
SMALL
GASTEIGER

@<TRIPOS>ATOM
      1  N         16.4940    2.5900    3.2800 N.3    22  PHE22      -0.1227
      2  CA        15.6060    2.7690    4.4360 C.3    22  PHE22       0.1736
      3  C         15.1560    1.4180    4.9890 C.2    22  PHE22       0.2595
      4  O         15.0620    1.2570    6.2080 O.2    22  PHE22      -0.2718
      5  CB        14.4290    3.6530    3.9970 C.3    22  PHE22       0.0547
      6  CG        13.4090    3.9170    5.0490 C.ar   22  PHE22      -0.0202
      7  CD1       13.7380    4.5910    6.1860 C.ar   22  PHE22      -0.0042
      8  CD2       12.0950    3.5600    4.8420 C.ar   22  PHE22      -0.0042
      9  CE1       12.7980    4.8540    7.1710 C.ar   22  PHE22      -0.0003
     10  CE2       11.1330    3.8370    5.8010 C.ar   22  PHE22      -0.0003
     11  CZ        11.4950    4.4780    6.9820 C.ar   22  PHE22      -0.0000
     12  N         14.8660    0.4540    4.1080 N.am   23  ILE23      -0.1980
     13  CA        14.4170   -0.8810    4.5530 C.3    23  ILE23       0.1595
     14  C         15.5650   -1.8450    4.7930 C.2    23  ILE23       0.2287
     15  O         15.7200   -2.3510    5.9020 O.2    23  ILE23      -0.2864
     16  CB        13.4140   -1.5330    3.5760 C.3    23  ILE23       0.0276
     17  CG1       12.1790   -0.6450    3.4090 C.3    23  ILE23       0.0022
     18  CG2       13.0510   -2.9370    4.0360 C.3    23  ILE23       0.0022
     19  CD1       11.3610   -0.4540    4.6660 C.3    23  ILE23       0.0001
     20  N         18.5490   -0.1770    7.1730 N.3    26  GLY26      -0.1210
     21  CA        18.1630    0.5360    8.3790 C.3    26  GLY26       0.1956
     22  C         19.0790    0.3420    9.5800 C.2    26  GLY26       0.2611
     23  O         19.2920    1.2940   10.3270 O.2    26  GLY26      -0.2717
     24  N         19.6300   -0.8670    9.7600 N.am   27  ASP27      -0.1973
     25  CA        20.5560   -1.1760   10.8930 C.3    27  ASP27       0.1709
     26  C         21.7360   -0.2430   10.9250 C.2    27  ASP27       0.2293
     27  O         22.1780    0.1780   11.9960 O.2    27  ASP27      -0.2864
     28  CB        21.1470   -2.5890   10.8080 C.3    27  ASP27       0.1436
     29  CG        20.1130   -3.6790   10.9160 C.2    27  ASP27       0.3671
     30  OD1       18.9190   -3.3660   10.9900 O.co2  27  ASP27      -0.2456
     31  OD2       20.5030   -4.8630   10.9390 O.co2  27  ASP27      -0.2456
     32  N         19.9210    4.0600   10.4880 N.3    30  PHE30      -0.1241
     33  CA        19.1060    4.7790   11.4670 C.3    30  PHE30       0.1605
     34  C         19.9180    5.4040   12.5960 C.2    30  PHE30       0.2264
     35  O         19.7210    6.5890   12.8920 O.2    30  PHE30      -0.2867
     36  CB        17.9890    3.9270   12.0640 C.3    30  PHE30       0.0534
     37  CG        16.9210    3.4820   11.0890 C.ar   30  PHE30      -0.0203
     38  CD1       16.6620    4.1560    9.9110 C.ar   30  PHE30      -0.0042
     39  CD2       16.1250    2.3810   11.3930 C.ar   30  PHE30      -0.0042
     40  CE1       15.6840    3.7380    9.0440 C.ar   30  PHE30      -0.0003
     41  CE2       15.1230    1.9640   10.5350 C.ar   30  PHE30      -0.0003
     42  CZ        14.9220    2.6280    9.3370 C.ar   30  PHE30      -0.0000
     43  N         21.3040   -0.3690   16.8010 N.3    41  VAL41      -0.1245
     44  CA        20.6060   -1.5020   16.2550 C.3    41  VAL41       0.1561
     45  C         21.5420   -2.6850   16.2970 C.2    41  VAL41       0.2260
     46  O         22.6280   -2.6740   15.7140 O.2    41  VAL41      -0.2867
     47  CB        20.0700   -1.2970   14.8170 C.3    41  VAL41       0.0252
     48  CG1       19.3740   -2.5820   14.3630 C.3    41  VAL41       0.0019
     49  CG2       19.1230   -0.0880   14.6800 C.3    41  VAL41       0.0019
     50  N         16.4380   -8.3400   15.5080 N.3    54  LYS54      -0.1245
     51  CA        17.2010   -7.1390   15.7720 C.3    54  LYS54       0.1561
     52  C         16.6830   -6.4370   17.0130 C.2    54  LYS54       0.2260
     53  O         15.4460   -6.3310   17.2090 O.2    54  LYS54      -0.2867
     54  CB        17.0930   -6.1930   14.5840 C.3    54  LYS54       0.0271
     55  CG        17.3080   -6.9160   13.2550 C.3    54  LYS54       0.0035
     56  CD        17.6670   -5.9490   12.1580 C.3    54  LYS54       0.0206
     57  CE        18.1360   -6.6900   10.9130 C.3    54  LYS54       0.1093
     58  NZ        19.5100   -7.2310   11.1060 N.3    54  LYS54      -0.1314
     59  N         16.4950   -2.9100   18.7130 N.3    56  ILE56      -0.1245
     60  CA        16.5140   -1.4710   18.4180 C.3    56  ILE56       0.1561
     61  C         16.4010   -0.7360   19.7700 C.2    56  ILE56       0.2260
     62  O         15.3740   -0.8670   20.4760 O.2    56  ILE56      -0.2867
     63  CB        15.3690   -1.0380   17.4990 C.3    56  ILE56       0.0252
     64  CG1       15.4830   -1.7230   16.1220 C.3    56  ILE56       0.0019
     65  CG2       15.3740    0.4800   17.3180 C.3    56  ILE56       0.0019
     66  CD1       14.8030   -3.0720   16.0360 C.3    56  ILE56       0.0001
     67  N         12.7220   -6.6170   17.0820 N.3    69  ASP69      -0.1239
     68  CA        11.9410   -6.7880   15.8620 C.3    69  ASP69       0.1674
     69  C         12.4150   -8.0590   15.1500 C.2    69  ASP69       0.2266
     70  O         13.6110   -8.4050   15.1780 O.2    69  ASP69      -0.2867
     71  CB        12.1400   -5.6010   14.9210 C.3    69  ASP69       0.1410
     72  CG        11.4430   -4.3410   15.3860 C.2    69  ASP69       0.3668
     73  OD1       10.6820   -4.3770   16.3790 O.co2  69  ASP69      -0.2456
     74  OD2       11.6660   -3.2950   14.7450 O.co2  69  ASP69      -0.2456
     75  N         12.2630   -9.9180   11.4010 N.3    71  VAL71      -0.1245
     76  CA        11.9500   -9.8670    9.9820 C.3    71  VAL71       0.1561
     77  C         11.0200  -11.0240    9.6720 C.2    71  VAL71       0.2260
     78  O         11.2900  -12.1660   10.0420 O.2    71  VAL71      -0.2867
     79  CB        13.2220   -9.9750    9.1380 C.3    71  VAL71       0.0252
     80  CG1       12.8760   -9.9670    7.6240 C.3    71  VAL71       0.0019
     81  CG2       14.1980   -8.8490    9.5560 C.3    71  VAL71       0.0019
     82  N          8.1180   -5.2980    2.6350 N.3    81  TYR81      -0.1241
     83  CA         8.8550   -5.7120    3.7950 C.3    81  TYR81       0.1605
     84  C          7.9100   -5.8250    4.9790 C.2    81  TYR81       0.2264
     85  O          7.2290   -4.8670    5.3130 O.2    81  TYR81      -0.2867
     86  CB         9.8720   -4.6640    4.1320 C.3    81  TYR81       0.0534
     87  CG        10.8150   -4.9900    5.2510 C.ar   81  TYR81      -0.0201
     88  CD1       11.8850   -5.8310    5.0520 C.ar   81  TYR81      -0.0009
     89  CD2       10.6890   -4.3870    6.4850 C.ar   81  TYR81      -0.0009
     90  CE1       12.7900   -6.0980    6.0600 C.ar   81  TYR81       0.0417
     91  CE2       11.5840   -4.6590    7.5150 C.ar   81  TYR81       0.0417
     92  CZ        12.6290   -5.5090    7.2960 C.ar   81  TYR81       0.1957
     93  OH        13.5300   -5.7510    8.2600 O.3    81  TYR81      -0.2866
     94  N          7.6400   -7.0610    9.0300 N.3    83  TYR83      -0.1241
     95  CA         8.3720   -7.3660   10.2500 C.3    83  TYR83       0.1605
     96  C          7.4370   -7.2020   11.4380 C.2    83  TYR83       0.2264
     97  O          6.4110   -6.5270   11.3320 O.2    83  TYR83      -0.2867
     98  CB         9.5830   -6.4490   10.4200 C.3    83  TYR83       0.0534
     99  CG         9.2600   -5.0600   10.8620 C.ar   83  TYR83      -0.0201
    100  CD1        8.8890   -4.0690    9.9500 C.ar   83  TYR83      -0.0009
    101  CD2        9.2640   -4.7260   12.2100 C.ar   83  TYR83      -0.0009
    102  CE1        8.5570   -2.7840   10.3740 C.ar   83  TYR83       0.0417
    103  CE2        8.9620   -3.4370   12.6210 C.ar   83  TYR83       0.0417
    104  CZ         8.6080   -2.4820   11.7190 C.ar   83  TYR83       0.1957
    105  OH         8.2680   -1.2290   12.2040 O.3    83  TYR83      -0.2866
    106  N          5.1090   -3.0090    5.0310 N.3   102  ILE102     -0.1245
    107  CA         5.4660   -1.7980    4.2710 C.3   102  ILE102      0.1561
    108  C          5.5910   -2.1810    2.8120 C.2   102  ILE102      0.2260
    109  O          6.2090   -3.1890    2.4790 O.2   102  ILE102     -0.2867
    110  CB         6.7970   -1.1620    4.7560 C.3   102  ILE102      0.0252
    111  CG1        6.7170   -0.8300    6.2500 C.3   102  ILE102      0.0019
    112  CG2        7.1350    0.1380    4.0030 C.3   102  ILE102      0.0019
    113  CD1        8.0830   -0.5860    6.8520 C.3   102  ILE102      0.0001
    114  N          8.3000    6.6910   12.6390 N.3   140  GLY140     -0.1225
    115  CA         8.4960    6.2150   11.2540 C.3   140  GLY140      0.1811
    116  C          8.7710    7.3580   10.3050 C.2   140  GLY140      0.2280
    117  O          9.7040    7.2880    9.5130 O.2   140  GLY140     -0.2866
    118  N         12.2790    8.8590   10.9000 N.3   143  LEU143     -0.1245
    119  CA        13.3460    8.0320   10.3090 C.3   143  LEU143      0.1561
    120  C         13.3290    8.2290    8.7790 C.2   143  LEU143      0.2260
    121  O         14.3680    8.3160    8.1350 O.2   143  LEU143     -0.2867
    122  CB        13.1710    6.5700   10.6630 C.3   143  LEU143      0.0270
    123  CG        13.3050    6.2660   12.1620 C.3   143  LEU143      0.0019
    124  CD1       12.9880    4.8010   12.4470 C.3   143  LEU143      0.0001
    125  CD2       14.6850    6.6610   12.6840 C.3   143  LEU143      0.0001
@<TRIPOS>BOND
     1   109   108    2
     2    82    83    1
     3   108   107    1
     4     1     2    1
     5    17    16    1
     6    17    19    1
     7    16    18    1
     8    16    13    1
     9    83    86    1
    10    83    84    1
    11     5     2    1
    12     5     6    1
    13   112   110    1
    14    12    13    1
    15    12     3   am
    16    86    87    1
    17   107   110    1
    18   107   106    1
    19     2     3    1
    20    13    14    1
    21   110   111    1
    22    14    15    2
    23     8     6   ar
    24     8    10   ar
    25    84    85    2
    26     3     4    2
    27     6     7   ar
    28    88    87   ar
    29    88    90   ar
    30    87    89   ar
    31    10    11   ar
    32    90    92   ar
    33     7     9   ar
    34   111   113    1
    35    89    91   ar
    36    11     9   ar
    37    20    21    1
    38    92    91   ar
    39    92    93    1
    40    80    79    1
    41   121   120    2
    42    21    22    1
    43   120   119    1
    44    94    95    1
    45    40    42   ar
    46    40    38   ar
    47    79    81    1
    48    79    76    1
    49    42    41   ar
    50   117   116    2
    51    22    24   am
    52    22    23    2
    53    77    76    1
    54    77    78    2
    55    24    25    1
    56    38    37   ar
    57   100   102   ar
    58   100    99   ar
    59    76    75    1
    60    95    98    1
    61    95    96    1
    62   116   115    1
    63   119   122    1
    64   119   118    1
    65   102   104   ar
    66    98    99    1
    67    32    33    1
    68    41    39   ar
    69   122   123    1
    70    28    25    1
    71    28    29    1
    72    99   101   ar
    73    25    26    1
    74    57    58    1
    75    57    56    1
    76    29    31   ar
    77    29    30   ar
    78    26    27    2
    79    37    39   ar
    80    37    36    1
    81   115   114    1
    82    97    96    2
    83    33    36    1
    84    33    34    1
    85   104   105    1
    86   104   103   ar
    87    56    55    1
    88   123   124    1
    89   123   125    1
    90   101   103   ar
    91    34    35    2
    92    55    54    1
    93    48    47    1
    94    54    51    1
    95    49    47    1
    96    74    72   ar
    97    47    44    1
    98    71    72    1
    99    71    68    1
   100    69    70    2
   101    69    68    1
   102    72    73   ar
   103    50    51    1
   104    46    45    2
   105    51    52    1
   106    68    67    1
   107    66    64    1
   108    64    63    1
   109    44    45    1
   110    44    43    1
   111    52    53    2
   112    65    63    1
   113    63    60    1
   114    60    59    1
   115    60    61    1
   116    61    62    2
