@<TRIPOS>MOLECULE
tmp/4a87A01.pdb
 164 152 0 0 0
SMALL
GASTEIGER

@<TRIPOS>ATOM
      1  N         -1.6040    3.7220    6.9280 N.3     7  THR7       -0.1218
      2  CA        -1.3040    5.0680    6.5370 C.3     7  THR7        0.1862
      3  C         -0.4540    5.0400    5.2820 C.2     7  THR7        0.2287
      4  O          0.0940    4.0220    4.9070 O.2     7  THR7       -0.2866
      5  CB        -0.6400    5.8180    7.7180 C.3     7  THR7        0.1770
      6  OG1       -0.6440    7.2350    7.5040 O.3     7  THR7       -0.2211
      7  CG2        0.7680    5.3190    7.9700 C.3     7  THR7        0.0375
      8  N          2.4230    7.6590    3.0440 N.3     9  THR9       -0.1218
      9  CA         3.2280    8.8770    2.9980 C.3     9  THR9        0.1862
     10  C          4.0120    8.8440    1.6900 C.2     9  THR9        0.2287
     11  O          4.0140    7.8730    0.9890 O.2     9  THR9       -0.2866
     12  CB         4.0920    8.9720    4.2660 C.3     9  THR9        0.1770
     13  OG1        4.6940   10.2570    4.3420 O.3     9  THR9       -0.2211
     14  CG2        5.1970    7.9060    4.3380 C.3     9  THR9        0.0375
     15  N         16.4420    2.6350    3.1850 N.3    22  PHE22      -0.1227
     16  CA        15.5280    2.7590    4.3270 C.3    22  PHE22       0.1736
     17  C         15.1210    1.4180    4.8850 C.2    22  PHE22       0.2595
     18  O         15.0170    1.2710    6.0910 O.2    22  PHE22      -0.2718
     19  CB        14.2980    3.5820    3.8850 C.3    22  PHE22       0.0547
     20  CG        13.2670    3.8550    4.9530 C.ar   22  PHE22      -0.0202
     21  CD1       13.5230    4.6590    6.0130 C.ar   22  PHE22      -0.0042
     22  CD2       12.0200    3.3000    4.8260 C.ar   22  PHE22      -0.0042
     23  CE1       12.5560    4.8700    6.9920 C.ar   22  PHE22      -0.0003
     24  CE2       11.0300    3.5020    5.7840 C.ar   22  PHE22      -0.0003
     25  CZ        11.3180    4.2900    6.8900 C.ar   22  PHE22      -0.0000
     26  N         14.8480    0.4540    4.0150 N.am   23  ILE23      -0.1980
     27  CA        14.4260   -0.8800    4.4500 C.3    23  ILE23       0.1595
     28  C         15.6390   -1.7920    4.6360 C.2    23  ILE23       0.2287
     29  O         15.9100   -2.2660    5.7500 O.2    23  ILE23      -0.2864
     30  CB        13.3810   -1.4890    3.4810 C.3    23  ILE23       0.0276
     31  CG1       12.2070   -0.5110    3.3550 C.3    23  ILE23       0.0022
     32  CG2       12.9750   -2.8890    3.9360 C.3    23  ILE23       0.0022
     33  CD1       11.3260   -0.4060    4.5970 C.3    23  ILE23       0.0001
     34  N         18.5790   -0.2120    7.0990 N.3    26  GLY26      -0.1225
     35  CA        18.2450    0.5740    8.2740 C.3    26  GLY26       0.1811
     36  C         19.1230    0.3070    9.4830 C.2    26  GLY26       0.2280
     37  O         19.3050    1.1930   10.2720 O.2    26  GLY26      -0.2866
     38  N         19.8700    3.9870   10.4050 N.3    30  PHE30      -0.1241
     39  CA        19.0720    4.7140   11.4030 C.3    30  PHE30       0.1605
     40  C         19.9060    5.3250   12.5240 C.2    30  PHE30       0.2264
     41  O         19.7110    6.4810   12.8500 O.2    30  PHE30      -0.2867
     42  CB        17.9240    3.8700   11.9470 C.3    30  PHE30       0.0534
     43  CG        16.8880    3.4750   10.9410 C.ar   30  PHE30      -0.0203
     44  CD1       16.6070    4.2070    9.8330 C.ar   30  PHE30      -0.0042
     45  CD2       16.1080    2.3690   11.1980 C.ar   30  PHE30      -0.0042
     46  CE1       15.6220    3.8010    8.9530 C.ar   30  PHE30      -0.0003
     47  CE2       15.1050    1.9960   10.3390 C.ar   30  PHE30      -0.0003
     48  CZ        14.8970    2.6740    9.1810 C.ar   30  PHE30      -0.0000
     49  N         12.6770   -6.6640   17.0480 N.3    69  ASP69      -0.1239
     50  CA        11.9010   -6.8430   15.8490 C.3    69  ASP69       0.1674
     51  C         12.3620   -8.0830   15.1320 C.2    69  ASP69       0.2266
     52  O         13.5450   -8.4060   15.1520 O.2    69  ASP69      -0.2867
     53  CB        12.0610   -5.6480   14.9040 C.3    69  ASP69       0.1410
     54  CG        11.3620   -4.3680   15.4080 C.2    69  ASP69       0.3668
     55  OD1       10.6740   -4.3930   16.4520 O.co2  69  ASP69      -0.2456
     56  OD2       11.5710   -3.3190   14.7670 O.co2  69  ASP69      -0.2456
     57  N          8.1150   -5.2090    2.6270 N.3    81  TYR81      -0.1241
     58  CA         8.8530   -5.6310    3.7880 C.3    81  TYR81       0.1605
     59  C          7.9050   -5.7730    4.9580 C.2    81  TYR81       0.2264
     60  O          7.1760   -4.8380    5.2860 O.2    81  TYR81      -0.2867
     61  CB         9.8990   -4.5990    4.1110 C.3    81  TYR81       0.0534
     62  CG        10.8180   -4.9160    5.2440 C.ar   81  TYR81      -0.0201
     63  CD1       11.8480   -5.8110    5.0730 C.ar   81  TYR81      -0.0009
     64  CD2       10.7180   -4.2780    6.4660 C.ar   81  TYR81      -0.0009
     65  CE1       12.7490   -6.0610    6.0840 C.ar   81  TYR81       0.0417
     66  CE2       11.6020   -4.5370    7.4910 C.ar   81  TYR81       0.0417
     67  CZ        12.5940   -5.4450    7.3020 C.ar   81  TYR81       0.1957
     68  OH        13.5110   -5.7260    8.2850 O.3    81  TYR81      -0.2866
     69  N          7.6200   -7.0210    9.0100 N.3    83  TYR83      -0.1241
     70  CA         8.3860   -7.2630   10.2170 C.3    83  TYR83       0.1605
     71  C          7.4720   -7.1250   11.4020 C.2    83  TYR83       0.2264
     72  O          6.4580   -6.4230   11.3210 O.2    83  TYR83      -0.2867
     73  CB         9.6090   -6.3210   10.3240 C.3    83  TYR83       0.0534
     74  CG         9.2600   -4.9080   10.6420 C.ar   83  TYR83      -0.0201
     75  CD1        8.8230   -4.0380    9.6610 C.ar   83  TYR83      -0.0009
     76  CD2        9.2930   -4.4370   11.9600 C.ar   83  TYR83      -0.0009
     77  CE1        8.4470   -2.7050    9.9790 C.ar   83  TYR83       0.0417
     78  CE2        8.9460   -3.1410   12.2740 C.ar   83  TYR83       0.0417
     79  CZ         8.5040   -2.2810   11.2840 C.ar   83  TYR83       0.1957
     80  OH         8.1320   -0.9940   11.6090 O.3    83  TYR83      -0.2866
     81  N          3.8320   -5.5750   11.0240 N.3   100  ASN100     -0.1240
     82  CA         3.8930   -4.4280   10.1640 C.3   100  ASN100      0.1653
     83  C          4.1690   -4.8480    8.7510 C.2   100  ASN100      0.2266
     84  O          4.9110   -5.8130    8.5060 O.2   100  ASN100     -0.2867
     85  CB         5.0140   -3.4670   10.6340 C.3   100  ASN100      0.1155
     86  CG         4.8580   -3.0880   12.0820 C.2   100  ASN100      0.2627
     87  OD1        3.9990   -2.3310   12.4490 O.2   100  ASN100     -0.2716
     88  ND2        5.6390   -3.7160   12.9170 N.am  100  ASN100     -0.0877
     89  N          5.1670   -2.8770    5.0250 N.3   102  ILE102     -0.1245
     90  CA         5.5120   -1.6680    4.2790 C.3   102  ILE102      0.1561
     91  C          5.5940   -2.0620    2.8140 C.2   102  ILE102      0.2260
     92  O          6.2110   -3.0730    2.4710 O.2   102  ILE102     -0.2867
     93  CB         6.8400   -1.0700    4.7580 C.3   102  ILE102      0.0252
     94  CG1        6.7850   -0.7230    6.2420 C.3   102  ILE102      0.0019
     95  CG2        7.2480    0.1380    3.9160 C.3   102  ILE102      0.0019
     96  CD1        8.1030   -0.3790    6.8400 C.3   102  ILE102      0.0001
     97  N          4.8270    5.2950    0.1500 N.3   114  LEU114     -0.1245
     98  CA         4.9610    4.2190    1.0980 C.3   114  LEU114      0.1561
     99  C          3.5880    3.9320    1.7290 C.2   114  LEU114      0.2260
    100  O          2.9190    4.8410    2.2250 O.2   114  LEU114     -0.2867
    101  CB         5.9440    4.5780    2.1970 C.3   114  LEU114      0.0270
    102  CG         7.3640    4.8510    1.7500 C.3   114  LEU114      0.0019
    103  CD1        7.5950    6.2900    1.3220 C.3   114  LEU114      0.0001
    104  CD2        8.3720    4.4640    2.8160 C.3   114  LEU114      0.0001
    105  N          1.7180    1.6890    4.5410 N.3   116  ILE116     -0.1245
    106  CA         2.1100    1.1050    5.7980 C.3   116  ILE116      0.1561
    107  C          0.9010    0.5500    6.5410 C.2   116  ILE116      0.2260
    108  O         -0.1010    1.2440    6.6940 O.2   116  ILE116     -0.2867
    109  CB         2.7340    2.1960    6.6470 C.3   116  ILE116      0.0252
    110  CG1        4.0590    2.6880    6.0020 C.3   116  ILE116      0.0019
    111  CG2        2.9260    1.7050    8.0620 C.3   116  ILE116      0.0019
    112  CD1        4.0430    4.1690    5.8600 C.3   116  ILE116      0.0001
    113  N          0.0200   -1.3790   10.2970 N.3   118  ASN118     -0.1240
    114  CA         0.4930   -1.7630   11.6530 C.3   118  ASN118      0.1653
    115  C         -0.6680   -2.5200   12.2940 C.2   118  ASN118      0.2266
    116  O         -1.7210   -1.8940   12.4980 O.2   118  ASN118     -0.2867
    117  CB         0.8240   -0.5180   12.5300 C.3   118  ASN118      0.1155
    118  CG         1.8420    0.4310   11.9300 C.2   118  ASN118      0.2627
    119  OD1        1.6180    1.6850   11.9270 O.2   118  ASN118     -0.2716
    120  ND2        2.8930   -0.0780   11.4360 N.am  118  ASN118     -0.0877
    121  N          4.1270    5.6880   16.7330 N.3   136  SER136     -0.1202
    122  CA         4.7330    4.8310   15.7290 C.3   136  SER136      0.2020
    123  C          4.8440    5.5360   14.3990 C.2   136  SER136      0.2618
    124  O          5.8710    5.4400   13.7400 O.2   136  SER136     -0.2717
    125  CB         3.9170    3.5400   15.6040 C.3   136  SER136      0.2103
    126  OG         4.4160    2.6490   14.6300 O.3   136  SER136     -0.2182
    127  N          3.7780    6.2410   14.0130 N.am  137  LYS137     -0.1979
    128  CA         3.7560    6.9740   12.7550 C.3   137  LYS137      0.1596
    129  C          4.8120    8.0680   12.7710 C.2   137  LYS137      0.2287
    130  O          5.5300    8.2230   11.8060 O.2   137  LYS137     -0.2864
    131  CB         2.3670    7.5610   12.4750 C.3   137  LYS137      0.0298
    132  CG         2.2750    8.4140   11.2190 C.3   137  LYS137      0.0038
    133  CD         0.8830    9.0410   11.0950 C.3   137  LYS137      0.0206
    134  CE         0.6850    9.8000    9.7940 C.3   137  LYS137      0.1093
    135  NZ        -0.6680   10.4300    9.7450 N.3   137  LYS137     -0.1314
    136  N          8.2800    6.5510   12.4390 N.3   140  GLY140     -0.1210
    137  CA         8.5520    6.1320   11.0490 C.3   140  GLY140      0.1956
    138  C          8.7750    7.3100   10.1450 C.2   140  GLY140      0.2611
    139  O          9.7110    7.2840    9.3550 O.2   140  GLY140     -0.2717
    140  N          8.0160    8.3940   10.3180 N.am  141  GLU141     -0.1979
    141  CA         8.2010    9.6160    9.5220 C.3   141  GLU141      0.1602
    142  C          9.5450   10.2670    9.7990 C.2   141  GLU141      0.2287
    143  O         10.2110   10.7160    8.8850 O.2   141  GLU141     -0.2864
    144  CB         7.0360   10.5950    9.7480 C.3   141  GLU141      0.0415
    145  CG         7.0160   11.7790    8.7990 C.3   141  GLU141      0.1163
    146  CD         6.4200   11.4830    7.4260 C.2   141  GLU141      0.3649
    147  OE1        6.0630   10.3220    7.1600 O.co2 141  GLU141     -0.2457
    148  OE2        6.3090   12.4340    6.6060 O.co2 141  GLU141     -0.2457
    149  N         12.2970    8.8350   10.8210 N.3   143  LEU143     -0.1231
    150  CA        13.3310    7.9880   10.2200 C.3   143  LEU143      0.1693
    151  C         13.3280    8.1390    8.7030 C.2   143  LEU143      0.2591
    152  O         14.3770    8.2300    8.0720 O.2   143  LEU143     -0.2718
    153  CB        13.1030    6.5340   10.6100 C.3   143  LEU143      0.0284
    154  CG        13.2750    6.2020   12.0910 C.3   143  LEU143      0.0019
    155  CD1       12.8950    4.7480   12.3580 C.3   143  LEU143      0.0001
    156  CD2       14.6730    6.4950   12.6250 C.3   143  LEU143      0.0001
    157  N         12.1510    8.1710    8.0990 N.am  144  LEU144     -0.1980
    158  CA        12.0520    8.3590    6.6470 C.3   144  LEU144      0.1596
    159  C         12.6750    9.6660    6.2090 C.2   144  LEU144      0.2287
    160  O         13.4960    9.7130    5.2840 O.2   144  LEU144     -0.2864
    161  CB        10.5880    8.2900    6.2090 C.3   144  LEU144      0.0297
    162  CG        10.3550    8.6230    4.7450 C.3   144  LEU144      0.0022
    163  CD1       11.1020    7.6770    3.7690 C.3   144  LEU144      0.0001
    164  CD2        8.8540    8.6260    4.4610 C.3   144  LEU144      0.0001
@<TRIPOS>BOND
     1    97    98    1
     2    11    10    2
     3    98    99    1
     4    98   101    1
     5   103   102    1
     6    10     9    1
     7    99   100    2
     8   102   101    1
     9   102   104    1
    10    92    91    2
    11    57    58    1
    12    91    90    1
    13     9     8    1
    14     9    12    1
    15    15    16    1
    16    31    30    1
    17    31    33    1
    18    30    32    1
    19    30    27    1
    20   163   162    1
    21    58    61    1
    22    58    59    1
    23    19    16    1
    24    19    20    1
    25    95    93    1
    26    26    27    1
    27    26    17   am
    28    61    62    1
    29    12    14    1
    30    12    13    1
    31    90    93    1
    32    90    89    1
    33    16    17    1
    34    27    28    1
    35   164   162    1
    36   105   106    1
    37    28    29    2
    38   162   161    1
    39    93    94    1
    40    22    20   ar
    41    22    24   ar
    42    17    18    2
    43     4     3    2
    44    20    21   ar
    45    59    60    2
    46    63    62   ar
    47    63    65   ar
    48    62    64   ar
    49     3     2    1
    50   160   159    2
    51    24    25   ar
    52   106   107    1
    53   106   109    1
    54   112   110    1
    55   110   109    1
    56    21    23   ar
    57    65    67   ar
    58   159   158    1
    59   161   158    1
    60    94    96    1
    61    64    66   ar
    62     2     1    1
    63     2     5    1
    64   107   108    2
    65   148   146   ar
    66   158   157    1
    67   109   111    1
    68    25    23   ar
    69    34    35    1
    70   147   146   ar
    71    67    66   ar
    72    67    68    1
    73   146   145    1
    74     6     5    1
    75     5     7    1
    76   152   151    2
    77   157   151   am
    78    35    36    1
    79    84    83    2
    80   151   150    1
    81    83    82    1
    82   145   144    1
    83   143   142    2
    84    46    48   ar
    85    46    44   ar
    86    69    70    1
    87    48    47   ar
    88   139   138    2
    89    36    37    2
    90   141   144    1
    91   141   142    1
    92   141   140    1
    93    75    77   ar
    94    75    74   ar
    95   135   134    1
    96   134   133    1
    97    44    43   ar
    98    77    79   ar
    99   138   140   am
   100   138   137    1
   101    82    85    1
   102    82    81    1
   103    70    73    1
   104    70    71    1
   105   150   153    1
   106   150   149    1
   107   113   114    1
   108    73    74    1
   109    47    45   ar
   110    38    39    1
   111   153   154    1
   112    85    86    1
   113    74    76   ar
   114    43    45   ar
   115    43    42    1
   116   137   136    1
   117   133   132    1
   118   132   131    1
   119    79    80    1
   120    79    78   ar
   121    72    71    2
   122    39    42    1
   123    39    40    1
   124   120   118   am
   125   114   115    1
   126   114   117    1
   127   130   129    2
   128   119   118    2
   129   118   117    1
   130    76    78   ar
   131    86    87    2
   132    86    88   am
   133   154   155    1
   134   154   156    1
   135   115   116    2
   136   131   128    1
   137    40    41    2
   138   128   129    1
   139   128   127    1
   140   124   123    2
   141   127   123   am
   142   123   122    1
   143   126   125    1
   144    56    54   ar
   145    53    54    1
   146    53    50    1
   147    51    52    2
   148    51    50    1
   149    54    55   ar
   150   125   122    1
   151   122   121    1
   152    50    49    1
