@<TRIPOS>MOLECULE
tmp/4a87A02.pdb
 105 99 0 0 0
SMALL
GASTEIGER

@<TRIPOS>ATOM
      1  N         16.4420    2.6350    3.1850 N.3    22  PHE22      -0.1227
      2  CA        15.5280    2.7590    4.3270 C.3    22  PHE22       0.1736
      3  C         15.1210    1.4180    4.8850 C.2    22  PHE22       0.2595
      4  O         15.0170    1.2710    6.0910 O.2    22  PHE22      -0.2718
      5  CB        14.2980    3.5820    3.8850 C.3    22  PHE22       0.0547
      6  CG        13.2670    3.8550    4.9530 C.ar   22  PHE22      -0.0202
      7  CD1       13.5230    4.6590    6.0130 C.ar   22  PHE22      -0.0042
      8  CD2       12.0200    3.3000    4.8260 C.ar   22  PHE22      -0.0042
      9  CE1       12.5560    4.8700    6.9920 C.ar   22  PHE22      -0.0003
     10  CE2       11.0300    3.5020    5.7840 C.ar   22  PHE22      -0.0003
     11  CZ        11.3180    4.2900    6.8900 C.ar   22  PHE22      -0.0000
     12  N         14.8480    0.4540    4.0150 N.am   23  ILE23      -0.1980
     13  CA        14.4260   -0.8800    4.4500 C.3    23  ILE23       0.1595
     14  C         15.6390   -1.7920    4.6360 C.2    23  ILE23       0.2287
     15  O         15.9100   -2.2660    5.7500 O.2    23  ILE23      -0.2864
     16  CB        13.3810   -1.4890    3.4810 C.3    23  ILE23       0.0276
     17  CG1       12.2070   -0.5110    3.3550 C.3    23  ILE23       0.0022
     18  CG2       12.9750   -2.8890    3.9360 C.3    23  ILE23       0.0022
     19  CD1       11.3260   -0.4060    4.5970 C.3    23  ILE23       0.0001
     20  N         18.5790   -0.2120    7.0990 N.3    26  GLY26      -0.1210
     21  CA        18.2450    0.5740    8.2740 C.3    26  GLY26       0.1956
     22  C         19.1230    0.3070    9.4830 C.2    26  GLY26       0.2611
     23  O         19.3050    1.1930   10.2720 O.2    26  GLY26      -0.2717
     24  N         19.6290   -0.9130    9.6560 N.am   27  ASP27      -0.1973
     25  CA        20.5070   -1.1820   10.7960 C.3    27  ASP27       0.1709
     26  C         21.7310   -0.2600   10.8610 C.2    27  ASP27       0.2293
     27  O         22.1170    0.1230   11.8950 O.2    27  ASP27      -0.2864
     28  CB        21.0520   -2.6190   10.8200 C.3    27  ASP27       0.1436
     29  CG        19.9810   -3.7120   10.8640 C.2    27  ASP27       0.3671
     30  OD1       18.8150   -3.4850   10.8250 O.co2  27  ASP27      -0.2456
     31  OD2       20.4070   -4.8430   10.9520 O.co2  27  ASP27      -0.2456
     32  N         19.8700    3.9870   10.4050 N.3    30  PHE30      -0.1241
     33  CA        19.0720    4.7140   11.4030 C.3    30  PHE30       0.1605
     34  C         19.9060    5.3250   12.5240 C.2    30  PHE30       0.2264
     35  O         19.7110    6.4810   12.8500 O.2    30  PHE30      -0.2867
     36  CB        17.9240    3.8700   11.9470 C.3    30  PHE30       0.0534
     37  CG        16.8880    3.4750   10.9410 C.ar   30  PHE30      -0.0203
     38  CD1       16.6070    4.2070    9.8330 C.ar   30  PHE30      -0.0042
     39  CD2       16.1080    2.3690   11.1980 C.ar   30  PHE30      -0.0042
     40  CE1       15.6220    3.8010    8.9530 C.ar   30  PHE30      -0.0003
     41  CE2       15.1050    1.9960   10.3390 C.ar   30  PHE30      -0.0003
     42  CZ        14.8970    2.6740    9.1810 C.ar   30  PHE30      -0.0000
     43  N         21.2140   -0.4020   16.6630 N.3    41  VAL41      -0.1245
     44  CA        20.5320   -1.5770   16.1410 C.3    41  VAL41       0.1561
     45  C         21.4760   -2.7590   16.1950 C.2    41  VAL41       0.2260
     46  O         22.5690   -2.7260   15.6090 O.2    41  VAL41      -0.2867
     47  CB        20.0180   -1.3800   14.6980 C.3    41  VAL41       0.0252
     48  CG1       19.3100   -2.6640   14.2270 C.3    41  VAL41       0.0019
     49  CG2       19.0780   -0.1720   14.5680 C.3    41  VAL41       0.0019
     50  N         16.4230   -8.4200   15.5040 N.3    54  LYS54      -0.1245
     51  CA        17.2410   -7.2290   15.7740 C.3    54  LYS54       0.1561
     52  C         16.7440   -6.5590   17.0340 C.2    54  LYS54       0.2260
     53  O         15.5430   -6.5180   17.2820 O.2    54  LYS54      -0.2867
     54  CB        17.1270   -6.2660   14.6300 C.3    54  LYS54       0.0271
     55  CG        17.4800   -6.9630   13.3140 C.3    54  LYS54       0.0035
     56  CD        17.2930   -6.1090   12.1840 C.3    54  LYS54       0.0206
     57  CE        17.6950   -6.8050   10.8970 C.3    54  LYS54       0.1093
     58  NZ        19.1200   -7.3370   10.9360 N.3    54  LYS54      -0.1314
     59  N         16.4610   -2.9920   18.7120 N.3    56  ILE56      -0.1245
     60  CA        16.4950   -1.5620   18.4110 C.3    56  ILE56       0.1561
     61  C         16.4140   -0.8320   19.7350 C.2    56  ILE56       0.2260
     62  O         15.4190   -0.9430   20.4240 O.2    56  ILE56      -0.2867
     63  CB        15.3280   -1.1650   17.5040 C.3    56  ILE56       0.0252
     64  CG1       15.4610   -1.8300   16.1310 C.3    56  ILE56       0.0019
     65  CG2       15.3540    0.3360   17.2800 C.3    56  ILE56       0.0019
     66  CD1       14.9130   -3.2220   16.0590 C.3    56  ILE56       0.0001
     67  N         12.6770   -6.6640   17.0480 N.3    69  ASP69      -0.1239
     68  CA        11.9010   -6.8430   15.8490 C.3    69  ASP69       0.1674
     69  C         12.3620   -8.0830   15.1320 C.2    69  ASP69       0.2266
     70  O         13.5450   -8.4060   15.1520 O.2    69  ASP69      -0.2867
     71  CB        12.0610   -5.6480   14.9040 C.3    69  ASP69       0.1410
     72  CG        11.3620   -4.3680   15.4080 C.2    69  ASP69       0.3668
     73  OD1       10.6740   -4.3930   16.4520 O.co2  69  ASP69      -0.2456
     74  OD2       11.5710   -3.3190   14.7670 O.co2  69  ASP69      -0.2456
     75  N         12.2410   -9.9030   11.3300 N.3    71  VAL71      -0.1245
     76  CA        11.9270   -9.8230    9.9140 C.3    71  VAL71       0.1561
     77  C         10.9580  -10.9510    9.5860 C.2    71  VAL71       0.2260
     78  O         11.2080  -12.1080    9.9430 O.2    71  VAL71      -0.2867
     79  CB        13.2090   -9.9460    9.0780 C.3    71  VAL71       0.0252
     80  CG1       12.8680   -9.9670    7.5880 C.3    71  VAL71       0.0019
     81  CG2       14.2060   -8.8530    9.4850 C.3    71  VAL71       0.0019
     82  N          8.1150   -5.2090    2.6270 N.3    81  TYR81      -0.1241
     83  CA         8.8530   -5.6310    3.7880 C.3    81  TYR81       0.1605
     84  C          7.9050   -5.7730    4.9580 C.2    81  TYR81       0.2264
     85  O          7.1760   -4.8380    5.2860 O.2    81  TYR81      -0.2867
     86  CB         9.8990   -4.5990    4.1110 C.3    81  TYR81       0.0534
     87  CG        10.8180   -4.9160    5.2440 C.ar   81  TYR81      -0.0201
     88  CD1       11.8480   -5.8110    5.0730 C.ar   81  TYR81      -0.0009
     89  CD2       10.7180   -4.2780    6.4660 C.ar   81  TYR81      -0.0009
     90  CE1       12.7490   -6.0610    6.0840 C.ar   81  TYR81       0.0417
     91  CE2       11.6020   -4.5370    7.4910 C.ar   81  TYR81       0.0417
     92  CZ        12.5940   -5.4450    7.3020 C.ar   81  TYR81       0.1957
     93  OH        13.5110   -5.7260    8.2850 O.3    81  TYR81      -0.2866
     94  N          7.6200   -7.0210    9.0100 N.3    83  TYR83      -0.1241
     95  CA         8.3860   -7.2630   10.2170 C.3    83  TYR83       0.1605
     96  C          7.4720   -7.1250   11.4020 C.2    83  TYR83       0.2264
     97  O          6.4580   -6.4230   11.3210 O.2    83  TYR83      -0.2867
     98  CB         9.6090   -6.3210   10.3240 C.3    83  TYR83       0.0534
     99  CG         9.2600   -4.9080   10.6420 C.ar   83  TYR83      -0.0201
    100  CD1        8.8230   -4.0380    9.6610 C.ar   83  TYR83      -0.0009
    101  CD2        9.2930   -4.4370   11.9600 C.ar   83  TYR83      -0.0009
    102  CE1        8.4470   -2.7050    9.9790 C.ar   83  TYR83       0.0417
    103  CE2        8.9460   -3.1410   12.2740 C.ar   83  TYR83       0.0417
    104  CZ         8.5040   -2.2810   11.2840 C.ar   83  TYR83       0.1957
    105  OH         8.1320   -0.9940   11.6090 O.3    83  TYR83      -0.2866
@<TRIPOS>BOND
     1    82    83    1
     2     1     2    1
     3    17    16    1
     4    17    19    1
     5    16    18    1
     6    16    13    1
     7    83    86    1
     8    83    84    1
     9     5     2    1
    10     5     6    1
    11    12    13    1
    12    12     3   am
    13    86    87    1
    14     2     3    1
    15    13    14    1
    16    14    15    2
    17     8     6   ar
    18     8    10   ar
    19     3     4    2
    20     6     7   ar
    21    84    85    2
    22    88    87   ar
    23    88    90   ar
    24    87    89   ar
    25    10    11   ar
    26     7     9   ar
    27    90    92   ar
    28    89    91   ar
    29    11     9   ar
    30    20    21    1
    31    92    91   ar
    32    92    93    1
    33    80    79    1
    34    21    22    1
    35    40    42   ar
    36    40    38   ar
    37    94    95    1
    38    79    81    1
    39    79    76    1
    40    42    41   ar
    41    22    24   am
    42    22    23    2
    43    77    76    1
    44    77    78    2
    45    24    25    1
    46   100   102   ar
    47   100    99   ar
    48    38    37   ar
    49    76    75    1
    50   102   104   ar
    51    95    98    1
    52    95    96    1
    53    98    99    1
    54    41    39   ar
    55    32    33    1
    56    99   101   ar
    57    25    28    1
    58    25    26    1
    59    28    29    1
    60    30    29   ar
    61    26    27    2
    62    29    31   ar
    63    57    58    1
    64    57    56    1
    65    37    39   ar
    66    37    36    1
    67   104   105    1
    68   104   103   ar
    69    97    96    2
    70    33    36    1
    71    33    34    1
    72   101   103   ar
    73    56    55    1
    74    34    35    2
    75    55    54    1
    76    48    47    1
    77    49    47    1
    78    54    51    1
    79    47    44    1
    80    74    72   ar
    81    71    72    1
    82    71    68    1
    83    69    70    2
    84    69    68    1
    85    72    73   ar
    86    50    51    1
    87    46    45    2
    88    51    52    1
    89    68    67    1
    90    66    64    1
    91    64    63    1
    92    44    45    1
    93    44    43    1
    94    52    53    2
    95    65    63    1
    96    63    60    1
    97    60    59    1
    98    60    61    1
    99    61    62    2
