@<TRIPOS>MOLECULE
tmp/4a87A00.pdb
 109 105 0 0 0
SMALL
GASTEIGER

@<TRIPOS>ATOM
      1  N         16.4300    2.7130   21.9430 N.3    58  PHE58      -0.1241
      2  CA        16.0480    4.1100   21.8690 C.3    58  PHE58       0.1605
      3  C         16.9410    4.9450   22.7370 C.2    58  PHE58       0.2264
      4  O         17.4820    4.4830   23.7380 O.2    58  PHE58      -0.2867
      5  CB        14.5610    4.2770   22.2310 C.3    58  PHE58       0.0534
      6  CG        13.6610    3.4560   21.3520 C.ar   58  PHE58      -0.0203
      7  CD1       13.5360    3.7660   20.0120 C.ar   58  PHE58      -0.0042
      8  CD2       12.9920    2.3220   21.8550 C.ar   58  PHE58      -0.0042
      9  CE1       12.7670    2.9810   19.1730 C.ar   58  PHE58      -0.0003
     10  CE2       12.2030    1.5490   21.0000 C.ar   58  PHE58      -0.0003
     11  CZ        12.0940    1.8620   19.6730 C.ar   58  PHE58      -0.0000
     12  N         13.4320    8.4290   26.0740 N.3    62  PHE62      -0.1228
     13  CA        12.3190    7.9750   25.2760 C.3    62  PHE62       0.1721
     14  C         11.3530    7.1340   26.1190 C.2    62  PHE62       0.2437
     15  O         11.6850    6.6150   27.1620 O.2    62  PHE62      -0.2733
     16  CB        12.8050    7.1880   24.0710 C.3    62  PHE62       0.0547
     17  CG        13.1340    8.0420   22.9020 C.ar   62  PHE62      -0.0202
     18  CD1       14.0100    9.0990   22.9890 C.ar   62  PHE62      -0.0042
     19  CD2       12.4910    7.8060   21.7030 C.ar   62  PHE62      -0.0042
     20  CE1       14.2660    9.9010   21.8710 C.ar   62  PHE62      -0.0003
     21  CE2       12.7580    8.5820   20.6050 C.ar   62  PHE62      -0.0003
     22  CZ        13.6490    9.6020   20.6940 C.ar   62  PHE62      -0.0000
     23  N         10.0980    6.9960   25.6660 N.am   63  PRO63      -0.2718
     24  CA         9.1470    6.2150   26.4490 C.3    63  PRO63       0.1535
     25  C          9.5530    4.7850   26.7270 C.2    63  PRO63       0.2598
     26  O          9.2980    4.2570   27.8030 O.2    63  PRO63      -0.2715
     27  CB         7.8530    6.3200   25.6190 C.3    63  PRO63       0.0310
     28  CG         7.9870    7.5810   24.8520 C.3    63  PRO63       0.0237
     29  CD         9.4550    7.6870   24.5310 C.3    63  PRO63       0.0939
     30  N         10.2070    4.1550   25.7540 N.am   64  PHE64      -0.1974
     31  CA        10.6080    2.7630   25.8210 C.3    64  PHE64       0.1639
     32  C         12.1250    2.6540   25.7180 C.2    64  PHE64       0.2290
     33  O         12.7820    3.4690   25.1080 O.2    64  PHE64      -0.2864
     34  CB         9.9670    1.9770   24.6620 C.3    64  PHE64       0.0560
     35  CG         8.4550    1.9940   24.6890 C.ar   64  PHE64      -0.0200
     36  CD1        7.7610    1.6000   25.8130 C.ar   64  PHE64      -0.0042
     37  CD2        7.7240    2.4280   23.5810 C.ar   64  PHE64      -0.0042
     38  CE1        6.3660    1.6410   25.8520 C.ar   64  PHE64      -0.0003
     39  CE2        6.3340    2.4260   23.5940 C.ar   64  PHE64      -0.0003
     40  CZ         5.6800    2.0370   24.7370 C.ar   64  PHE64      -0.0000
     41  N         13.0360   -2.2120   21.5140 N.3    67  VAL67      -0.1245
     42  CA        12.1720   -3.3050   21.0420 C.3    67  VAL67       0.1561
     43  C         13.0280   -4.3040   20.3180 C.2    67  VAL67       0.2260
     44  O         14.1160   -3.9680   19.8140 O.2    67  VAL67      -0.2867
     45  CB        11.0520   -2.8450   20.0800 C.3    67  VAL67       0.0252
     46  CG1        9.9760   -2.0710   20.8520 C.3    67  VAL67       0.0019
     47  CG2       11.5980   -2.0990   18.8690 C.3    67  VAL67       0.0019
     48  N          7.1730   -6.4460   15.7790 N.3    85  VAL85      -0.1245
     49  CA         7.7030   -6.0840   17.0790 C.3    85  VAL85       0.1561
     50  C          7.2690   -7.2260   18.0120 C.2    85  VAL85       0.2260
     51  O          6.0700   -7.4460   18.1870 O.2    85  VAL85      -0.2867
     52  CB         7.1280   -4.7420   17.5630 C.3    85  VAL85       0.0252
     53  CG1        7.7120   -4.4080   18.9090 C.3    85  VAL85       0.0019
     54  CG2        7.3900   -3.6220   16.5470 C.3    85  VAL85       0.0019
     55  N          6.2250   -1.6700   24.1700 N.3    90  PRO90      -0.2116
     56  CA         4.8310   -1.8880   24.5420 C.3    90  PRO90       0.1372
     57  C          4.4520   -3.3630   24.6710 C.2    90  PRO90       0.2244
     58  O          3.3230   -3.6700   25.1270 O.2    90  PRO90      -0.2868
     59  CB         4.0780   -1.2430   23.3780 C.3    90  PRO90       0.0268
     60  CG         4.9740   -1.4600   22.2190 C.3    90  PRO90       0.0207
     61  CD         6.3640   -1.3470   22.7500 C.3    90  PRO90       0.0892
     62  N          3.2550   -6.5900   17.3860 N.3    98  ILE98      -0.1245
     63  CA         2.8040   -5.6610   16.3980 C.3    98  ILE98       0.1561
     64  C          3.3340   -6.1520   15.0560 C.2    98  ILE98       0.2260
     65  O          4.5660   -6.2030   14.8820 O.2    98  ILE98      -0.2867
     66  CB         3.2180   -4.2140   16.6340 C.3    98  ILE98       0.0252
     67  CG1        2.9660   -3.7580   18.0590 C.3    98  ILE98       0.0019
     68  CG2        2.5770   -3.3020   15.6160 C.3    98  ILE98       0.0019
     69  CD1        3.6650   -2.4590   18.4430 C.3    98  ILE98       0.0001
     70  N         -1.8930   -4.5910   15.5670 N.3   120  TYR120     -0.1241
     71  CA        -1.6320   -4.8220   16.9610 C.3   120  TYR120      0.1605
     72  C         -2.3870   -6.0460   17.4190 C.2   120  TYR120      0.2264
     73  O         -3.6100   -6.0810   17.3040 O.2   120  TYR120     -0.2867
     74  CB        -2.0480   -3.6060   17.7810 C.3   120  TYR120      0.0534
     75  CG        -1.2000   -2.4010   17.5190 C.ar  120  TYR120     -0.0201
     76  CD1       -1.3250   -1.6830   16.3420 C.ar  120  TYR120     -0.0009
     77  CD2       -0.2980   -1.9620   18.4620 C.ar  120  TYR120     -0.0009
     78  CE1       -0.5530   -0.5660   16.0950 C.ar  120  TYR120      0.0417
     79  CE2        0.4810   -0.8550   18.2170 C.ar  120  TYR120      0.0417
     80  CZ         0.3600   -0.1880   17.0250 C.ar  120  TYR120      0.1957
     81  OH         1.1320    0.9130   16.7540 O.3   120  TYR120     -0.2866
     82  N         -0.5470    5.7560   20.8870 N.3   132  GLN132     -0.1245
     83  CA         0.4390    4.7220   20.5560 C.3   132  GLN132      0.1566
     84  C          0.6740    4.5900   19.0370 C.2   132  GLN132      0.2260
     85  O          1.8100    4.4200   18.5290 O.2   132  GLN132     -0.2867
     86  CB        -0.0230    3.3950   21.1560 C.3   132  GLN132      0.0367
     87  CG         1.0210    2.3110   21.0180 C.3   132  GLN132      0.0905
     88  CD         0.6880    1.0360   21.7830 C.2   132  GLN132      0.2608
     89  OE1       -0.4600    0.8360   22.1900 O.2   132  GLN132     -0.2717
     90  NE2        1.6790    0.1740   21.9840 N.am  132  GLN132     -0.0878
     91  N          2.5140    7.7140   17.8740 N.3   135  ALA135     -0.1231
     92  CA         3.9410    7.6390   18.1800 C.3   135  ALA135      0.1694
     93  C          4.6850    6.8090   17.1570 C.2   135  ALA135      0.2592
     94  O          5.7650    7.1890   16.7200 O.2   135  ALA135     -0.2718
     95  CB         4.1630    7.0950   19.5820 C.3   135  ALA135      0.0304
     96  N          4.1270    5.6880   16.7330 N.am  136  SER136     -0.1952
     97  CA         4.7330    4.8310   15.7290 C.3   136  SER136      0.1924
     98  C          4.8440    5.5360   14.3990 C.2   136  SER136      0.2314
     99  O          5.8710    5.4400   13.7400 O.2   136  SER136     -0.2863
    100  CB         3.9170    3.5400   15.6040 C.3   136  SER136      0.2116
    101  OG         4.4160    2.6490   14.6300 O.3   136  SER136     -0.2180
    102  N          7.5540    8.2380   14.6020 N.3   139  MET139     -0.1245
    103  CA         8.8730    7.6120   14.5340 C.3   139  MET139      0.1570
    104  C          9.1990    7.2200   13.1000 C.2   139  MET139      0.2261
    105  O         10.3010    7.5010   12.6120 O.2   139  MET139     -0.2867
    106  CB         8.9350    6.3750   15.4800 C.3   139  MET139      0.0387
    107  CG        10.2240    5.5380   15.4270 C.3   139  MET139      0.0595
    108  SD        11.7690    6.3980   15.7490 S.3   139  MET139     -0.1393
    109  CE        11.8440    6.5500   17.5370 C.3   139  MET139      0.0692
@<TRIPOS>BOND
     1   105   104    2
     2   104   103    1
     3    99    98    2
     4    98    97    1
     5   103   102    1
     6   103   106    1
     7   101   100    1
     8    65    64    2
     9    64    63    1
    10   107   106    1
    11   107   108    1
    12    70    71    1
    13   100    97    1
    14    68    66    1
    15    97    96    1
    16   108   109    1
    17    48    49    1
    18    78    76   ar
    19    78    80   ar
    20    76    75   ar
    21    63    66    1
    22    63    62    1
    23    54    52    1
    24    66    67    1
    25    94    93    2
    26    96    93   am
    27    81    80    1
    28    71    72    1
    29    71    74    1
    30    80    79   ar
    31    49    52    1
    32    49    50    1
    33    93    92    1
    34    73    72    2
    35    75    74    1
    36    75    77   ar
    37    52    53    1
    38    91    92    1
    39    50    51    2
    40    67    69    1
    41    92    95    1
    42    79    77   ar
    43    85    84    2
    44    47    45    1
    45    84    83    1
    46     9    11   ar
    47     9     7   ar
    48    11    10   ar
    49    44    43    2
    50     7     6   ar
    51    45    46    1
    52    45    42    1
    53    43    42    1
    54    83    82    1
    55    83    86    1
    56    21    22   ar
    57    21    19   ar
    58    22    20   ar
    59    10     8   ar
    60    87    86    1
    61    87    88    1
    62    42    41    1
    63     6     8   ar
    64     6     5    1
    65    19    17   ar
    66    88    90   am
    67    88    89    2
    68     2     1    1
    69     2     5    1
    70     2     3    1
    71    20    18   ar
    72    60    61    1
    73    60    59    1
    74     3     4    2
    75    61    55    1
    76    17    18   ar
    77    17    16    1
    78    59    56    1
    79    37    39   ar
    80    37    35   ar
    81    39    40   ar
    82    16    13    1
    83    55    56    1
    84    29    28    1
    85    29    23    1
    86    56    57    1
    87    34    35    1
    88    34    31    1
    89    57    58    2
    90    35    36   ar
    91    40    38   ar
    92    28    27    1
    93    33    32    2
    94    13    12    1
    95    13    14    1
    96    27    24    1
    97    23    14   am
    98    23    24    1
    99    32    31    1
   100    30    31    1
   101    30    25   am
   102    36    38   ar
   103    14    15    2
   104    24    25    1
   105    25    26    2
