@<TRIPOS>MOLECULE
tmp/4a8fA00.pdb
 176 160 0 0 0
SMALL
GASTEIGER

@<TRIPOS>ATOM
      1  N         13.7910   17.5640   17.5430 N.3    81  ARG81      -0.1245
      2  CA        12.3310   17.5020   17.5670 C.3    81  ARG81       0.1563
      3  C         11.5900   18.3610   18.5860 C.2    81  ARG81       0.2260
      4  O         10.3950   18.6080   18.4190 O.2    81  ARG81      -0.2867
      5  CB        11.7490   16.1030   17.4160 C.3    81  ARG81       0.0307
      6  CG        12.5430   14.9460   17.9370 C.3    81  ARG81       0.0489
      7  CD        11.6090   13.7560   17.9550 C.3    81  ARG81       0.2205
      8  NE        12.0460   12.7700   18.9200 N.pl3  81  ARG81      -0.0865
      9  CZ        11.4300   11.6190   19.1270 C.cat  81  ARG81       0.5346
     10  NH1       10.3550   11.3050   18.4310 N.pl3  81  ARG81       0.1354
     11  NH2       11.9190   10.7420   20.0050 N.pl3  81  ARG81       0.1354
     12  N          8.1060    4.7160   39.5130 N.3   204  ARG204     -0.1245
     13  CA         9.4430    5.0170   38.9830 C.3   204  ARG204      0.1563
     14  C          9.4630    6.3780   38.2760 C.2   204  ARG204      0.2260
     15  O          8.4330    6.8150   37.7470 O.2   204  ARG204     -0.2867
     16  CB         9.8630    3.8920   38.0250 C.3   204  ARG204      0.0307
     17  CG        10.1500    2.5300   38.7160 C.3   204  ARG204      0.0489
     18  CD        10.8630    1.4730   37.8440 C.3   204  ARG204      0.2205
     19  NE        11.5470    2.0130   36.6470 N.pl3 204  ARG204     -0.0865
     20  CZ        12.0290    1.2930   35.6240 C.cat 204  ARG204      0.5346
     21  NH1       11.8980   -0.0350   35.6120 N.pl3 204  ARG204      0.1354
     22  NH2       12.6070    1.8990   34.5900 N.pl3 204  ARG204      0.1354
     23  N         10.0900    9.2330   35.3380 N.3   206  GLN206     -0.1245
     24  CA        10.3600    9.6200   33.9690 C.3   206  GLN206      0.1566
     25  C         11.0270   11.0210   34.1660 C.2   206  GLN206      0.2260
     26  O         10.3790   12.0820   34.4000 O.2   206  GLN206     -0.2867
     27  CB         9.0730    9.6230   33.1410 C.3   206  GLN206      0.0367
     28  CG         9.0820   10.5800   31.9060 C.3   206  GLN206      0.0905
     29  CD         9.0240    9.9930   30.5110 C.2   206  GLN206      0.2608
     30  OE1       10.0290    9.4610   29.9620 O.2   206  GLN206     -0.2717
     31  NE2        7.8250   10.0100   29.9220 N.am  206  GLN206     -0.0878
     32  N         12.7590   13.1680   32.5340 N.3   208  THR208     -0.1218
     33  CA        12.5790   14.2660   31.5920 C.3   208  THR208      0.1862
     34  C         11.2050   14.1350   31.0220 C.2   208  THR208      0.2287
     35  O         10.8120   13.0490   30.5850 O.2   208  THR208     -0.2866
     36  CB        13.5940   14.2350   30.4480 C.3   208  THR208      0.1770
     37  OG1       13.4970   12.9900   29.7770 O.3   208  THR208     -0.2211
     38  CG2       15.0100   14.4530   30.9080 C.3   208  THR208      0.0375
     39  N          5.8500    7.4280   37.0240 N.3   270  ARG270     -0.1245
     40  CA         5.1420    6.3820   36.2990 C.3   270  ARG270      0.1563
     41  C          4.9460    5.1530   37.1380 C.2   270  ARG270      0.2260
     42  O          5.8170    4.7780   37.9360 O.2   270  ARG270     -0.2867
     43  CB         5.8670    6.0120   35.0180 C.3   270  ARG270      0.0307
     44  CG         5.8400    7.1700   34.0430 C.3   270  ARG270      0.0489
     45  CD         6.4000    6.8250   32.6970 C.3   270  ARG270      0.2205
     46  NE         5.3380    6.8700   31.7030 N.pl3 270  ARG270     -0.0865
     47  CZ         5.5120    6.7770   30.3950 C.cat 270  ARG270      0.5346
     48  NH1        6.7430    6.7050   29.8830 N.pl3 270  ARG270      0.1354
     49  NH2        4.4670    6.7840   29.5850 N.pl3 270  ARG270      0.1354
     50  N          2.3150    6.3400   16.8030 N.3   324  ASP324     -0.1239
     51  CA         2.2350    6.6640   18.2140 C.3   324  ASP324      0.1674
     52  C          0.9350    6.1020   18.8560 C.2   324  ASP324      0.2266
     53  O         -0.1790    6.4360   18.4040 O.2   324  ASP324     -0.2867
     54  CB         2.1880    8.1900   18.2780 C.3   324  ASP324      0.1410
     55  CG         2.8670    8.8950   19.4030 C.2   324  ASP324      0.3668
     56  OD1        3.4150    8.2030   20.3020 O.co2 324  ASP324     -0.2456
     57  OD2        2.8140   10.1460   19.4170 O.co2 324  ASP324     -0.2456
     58  N          4.7480   -0.7110   21.4740 N.3   453  ASP453     -0.1225
     59  CA         4.1180    0.5210   20.9700 C.3   453  ASP453      0.1805
     60  C          4.9330    1.2950   19.9340 C.2   453  ASP453      0.2597
     61  O          4.3130    2.0210   19.1270 O.2   453  ASP453     -0.2718
     62  CB         3.6520    1.4510   22.1080 C.3   453  ASP453      0.1424
     63  CG         4.6420    1.6450   23.2460 C.2   453  ASP453      0.3668
     64  OD1        5.8160    1.1990   23.1020 O.co2 453  ASP453     -0.2456
     65  OD2        4.2120    2.1360   24.3390 O.co2 453  ASP453     -0.2456
     66  N          6.2940    1.1070   19.8940 N.am  454  ASP454     -0.1974
     67  CA         7.1170    1.7910   18.8830 C.3   454  ASP454      0.1709
     68  C          7.1080    1.0400   17.5650 C.2   454  ASP454      0.2293
     69  O          7.3150   -0.1550   17.5450 O.2   454  ASP454     -0.2864
     70  CB         8.5540    2.1230   19.3480 C.3   454  ASP454      0.1436
     71  CG         9.2550    3.3310   18.6660 C.2   454  ASP454      0.3671
     72  OD1        8.6390    3.9640   17.7530 O.co2 454  ASP454     -0.2456
     73  OD2       10.4150    3.6420   19.0420 O.co2 454  ASP454     -0.2456
     74  N          3.7440    9.9980   14.9700 N.3   491  GLU491     -0.1245
     75  CA         4.7350   10.5780   15.8750 C.3   491  GLU491      0.1567
     76  C          5.2160   11.9490   15.3450 C.2   491  GLU491      0.2260
     77  O          5.5720   12.0710   14.1630 O.2   491  GLU491     -0.2867
     78  CB         5.9230    9.6090   16.0540 C.3   491  GLU491      0.0388
     79  CG         6.9340   10.0230   17.1020 C.3   491  GLU491      0.1160
     80  CD         7.9810    8.9780   17.4550 C.2   491  GLU491      0.3649
     81  OE1        8.1590    7.9970   16.6980 O.co2 491  GLU491     -0.2457
     82  OE2        8.6080    9.1230   18.5290 O.co2 491  GLU491     -0.2457
     83  N         10.8200    8.7390   15.0320 N.3   495  ALA495     -0.1245
     84  CA        12.0040    8.0440   15.5250 C.3   495  ALA495      0.1562
     85  C         11.6340    6.5900   15.8920 C.2   495  ALA495      0.2260
     86  O         10.4950    6.2880   16.2480 O.2   495  ALA495     -0.2867
     87  CB        12.5940    8.7760   16.7050 C.3   495  ALA495      0.0290
     88  N         14.7230    5.0040   19.7400 N.3   498  GLY498     -0.1225
     89  CA        15.7260    5.9970   20.0990 C.3   498  GLY498      0.1811
     90  C         16.5980    6.5660   19.0070 C.2   498  GLY498      0.2280
     91  O         17.5150    7.3380   19.3310 O.2   498  GLY498     -0.2866
     92  N         19.5750   10.0480   18.7580 N.3   517  ASN517     -0.1240
     93  CA        18.8370   11.2060   19.2520 C.3   517  ASN517      0.1653
     94  C         19.6890   11.9300   20.2930 C.2   517  ASN517      0.2266
     95  O         19.9060   11.4030   21.4010 O.2   517  ASN517     -0.2867
     96  CB        17.4780   10.7980   19.8190 C.3   517  ASN517      0.1155
     97  CG        16.6080   11.9700   20.2130 C.2   517  ASN517      0.2627
     98  OD1       17.0110   13.1610   20.1670 O.2   517  ASN517     -0.2716
     99  ND2       15.3670   11.6530   20.5740 N.am  517  ASN517     -0.0877
    100  N         18.2680   12.3210   23.7320 N.3   520  SER520     -0.1217
    101  CA        18.3920   11.1200   24.5480 C.3   520  SER520      0.1889
    102  C         19.7660   11.0160   25.1780 C.2   520  SER520      0.2288
    103  O         19.8580   10.5510   26.3140 O.2   520  SER520     -0.2866
    104  CB        18.0340    9.8810   23.7500 C.3   520  SER520      0.2089
    105  OG        16.7460   10.0920   23.1850 O.3   520  SER520     -0.2183
    106  N         19.4080   13.4440   28.1260 N.3   523  ASN523     -0.1225
    107  CA        18.5540   12.7330   29.0770 C.3   523  ASN523      0.1785
    108  C         19.4140   11.7530   29.8950 C.2   523  ASN523      0.2597
    109  O         19.4270   11.8270   31.1260 O.2   523  ASN523     -0.2718
    110  CB        17.4990   11.9200   28.3500 C.3   523  ASN523      0.1169
    111  CG        16.4310   12.7400   27.7560 C.2   523  ASN523      0.2627
    112  OD1       16.3470   13.9620   27.9990 O.2   523  ASN523     -0.2716
    113  ND2       15.5960   12.0660   26.9510 N.am  523  ASN523     -0.0877
    114  N         20.1480   10.8740   29.2040 N.am  524  ASN524     -0.1974
    115  CA        20.9710    9.8810   29.8510 C.3   524  ASN524      0.1688
    116  C         22.1020   10.4730   30.7110 C.2   524  ASN524      0.2292
    117  O         22.2980    9.9950   31.8380 O.2   524  ASN524     -0.2864
    118  CB        21.5680    8.9580   28.8000 C.3   524  ASN524      0.1181
    119  CG        20.6530    7.9480   28.1490 C.2   524  ASN524      0.2629
    120  OD1       21.0850    7.2300   27.1880 O.2   524  ASN524     -0.2716
    121  ND2       19.4030    7.8670   28.6310 N.am  524  ASN524     -0.0877
    122  N         17.6370    8.1310   35.5040 N.3   529  GLU529     -0.1245
    123  CA        16.4430    7.7340   36.2020 C.3   529  GLU529      0.1567
    124  C         16.7450    7.4800   37.6740 C.2   529  GLU529      0.2260
    125  O         15.9610    7.8550   38.5610 O.2   529  GLU529     -0.2867
    126  CB        15.7720    6.5300   35.5250 C.3   529  GLU529      0.0388
    127  CG        14.4170    6.1960   36.1750 C.3   529  GLU529      0.1160
    128  CD        13.6420    4.9250   35.8540 C.2   529  GLU529      0.3649
    129  OE1       13.7900    4.3880   34.7330 O.co2 529  GLU529     -0.2457
    130  OE2       12.8550    4.4860   36.7260 O.co2 529  GLU529     -0.2457
    131  N         23.6370    1.6060   31.5330 N.3   624  ASP624     -0.1239
    132  CA        22.1810    1.6610   31.6920 C.3   624  ASP624      0.1674
    133  C         21.5050    0.3620   31.2690 C.2   624  ASP624      0.2266
    134  O         21.0230    0.2610   30.1330 O.2   624  ASP624     -0.2867
    135  CB        21.5780    2.8680   30.9210 C.3   624  ASP624      0.1410
    136  CG        20.0810    3.0510   31.1350 C.2   624  ASP624      0.3668
    137  OD1       19.5750    2.6060   32.1850 O.co2 624  ASP624     -0.2456
    138  OD2       19.4100    3.6230   30.2370 O.co2 624  ASP624     -0.2456
    139  N         18.6210   -0.7600   31.8290 N.3   626  ASN626     -0.1225
    140  CA        17.2280   -0.5010   31.4900 C.3   626  ASN626      0.1785
    141  C         17.0690   -0.5130   29.9410 C.2   626  ASN626      0.2597
    142  O         15.9990   -0.8240   29.4470 O.2   626  ASN626     -0.2718
    143  CB        16.8170    0.8760   32.0230 C.3   626  ASN626      0.1169
    144  CG        15.4830    0.9630   32.7150 C.2   626  ASN626      0.2627
    145  OD1       14.4530    0.4550   32.2460 O.2   626  ASN626     -0.2716
    146  ND2       15.4580    1.7600   33.7790 N.am  626  ASN626     -0.0877
    147  N         18.1450   -0.1930   29.1920 N.am  627  LYS627     -0.1980
    148  CA        18.1640   -0.2030   27.7250 C.3   627  LYS627      0.1596
    149  C         17.9670   -1.6140   27.2010 C.2   627  LYS627      0.2287
    150  O         17.5210   -1.8110   26.0780 O.2   627  LYS627     -0.2864
    151  CB        19.4630    0.4160   27.1480 C.3   627  LYS627      0.0298
    152  CG        19.3930    1.9350   27.1480 C.3   627  LYS627      0.0038
    153  CD        20.6280    2.6200   26.6330 C.3   627  LYS627      0.0206
    154  CE        20.3850    4.0960   26.3420 C.3   627  LYS627      0.1093
    155  NZ        19.4600    4.8040   27.3070 N.3   627  LYS627     -0.1314
    156  N         14.0560   -2.2520   26.8680 N.3   630  TYR630     -0.1227
    157  CA        13.2320   -1.4600   25.9690 C.3   630  TYR630      0.1736
    158  C         13.8910   -1.1940   24.6210 C.2   630  TYR630      0.2595
    159  O         13.1870   -0.9610   23.6520 O.2   630  TYR630     -0.2718
    160  CB        12.7630   -0.1360   26.6450 C.3   630  TYR630      0.0548
    161  CG        13.7690    0.9990   26.5970 C.ar  630  TYR630     -0.0200
    162  CD1       13.8990    1.7950   25.4510 C.ar  630  TYR630     -0.0009
    163  CD2       14.5700    1.3060   27.7050 C.ar  630  TYR630     -0.0009
    164  CE1       14.8380    2.8340   25.3920 C.ar  630  TYR630      0.0417
    165  CE2       15.5060    2.3490   27.6640 C.ar  630  TYR630      0.0417
    166  CZ        15.6250    3.1220   26.5070 C.ar  630  TYR630      0.1957
    167  OH        16.5360    4.1640   26.4680 O.3   630  TYR630     -0.2866
    168  N         15.2140   -1.1530   24.5590 N.am  631  LYS631     -0.1980
    169  CA        15.9200   -0.8140   23.3300 C.3   631  LYS631      0.1596
    170  C         16.5790   -2.0470   22.6620 C.2   631  LYS631      0.2287
    171  O         16.4980   -2.2240   21.4390 O.2   631  LYS631     -0.2864
    172  CB        16.9170    0.3090   23.6090 C.3   631  LYS631      0.0298
    173  CG        17.6140    0.8400   22.3990 C.3   631  LYS631      0.0038
    174  CD        18.4760    2.0190   22.7390 C.3   631  LYS631      0.0206
    175  CE        19.3630    2.4660   21.5980 C.3   631  LYS631      0.1093
    176  NZ        18.6640    3.2750   20.5580 N.3   631  LYS631     -0.1314
@<TRIPOS>BOND
     1    77    76    2
     2    74    75    1
     3    83    84    1
     4    76    75    1
     5    84    85    1
     6    84    87    1
     7    75    78    1
     8    85    86    2
     9    78    79    1
    10    81    80   ar
    11    50    51    1
    12    79    80    1
    13     5     2    1
    14     5     6    1
    15    80    82   ar
    16     1     2    1
    17    69    68    2
    18    68    67    1
    19     2     3    1
    20    72    71   ar
    21     6     7    1
    22     7     8    1
    23    51    54    1
    24    51    52    1
    25    54    55    1
    26    53    52    2
    27     4     3    2
    28    10     9    1
    29    71    73   ar
    30    71    70    1
    31    92    93    1
    32    67    70    1
    33    67    66    1
    34     8     9    2
    35    90    91    2
    36    90    89    1
    37     9    11    1
    38    61    60    2
    39    93    96    1
    40    93    94    1
    41    55    57   ar
    42    55    56   ar
    43    88    89    1
    44    96    97    1
    45    66    60   am
    46    60    59    1
    47    98    97    2
    48    97    99   am
    49    94    95    2
    50   176   175    1
    51    59    58    1
    52    59    62    1
    53   171   170    2
    54   175   174    1
    55    62    63    1
    56   173   174    1
    57   173   172    1
    58   170   169    1
    59    64    63   ar
    60   105   104    1
    61    63    65   ar
    62   169   172    1
    63   169   168    1
    64   159   158    2
    65   100   101    1
    66   104   101    1
    67   101   102    1
    68   168   158   am
    69   158   157    1
    70   102   103    2
    71   164   162   ar
    72   164   166   ar
    73   162   161   ar
    74   157   160    1
    75   157   156    1
    76   150   149    2
    77   154   153    1
    78   154   155    1
    79   167   166    1
    80   166   165   ar
    81   161   160    1
    82   161   163   ar
    83   153   152    1
    84   113   111   am
    85   152   151    1
    86   151   148    1
    87   120   119    2
    88   149   148    1
    89   165   163   ar
    90   148   147    1
    91   111   112    2
    92   111   110    1
    93   106   107    1
    94   119   121   am
    95   119   118    1
    96   110   107    1
    97   118   115    1
    98   107   108    1
    99   147   141   am
   100   114   115    1
   101   114   108   am
   102   142   141    2
   103    49    47    1
   104    37    36    1
   105   115   116    1
   106    48    47    1
   107   108   109    2
   108    31    29   am
   109   141   140    1
   110    30    29    2
   111   134   133    2
   112   138   136   ar
   113    47    46    2
   114    36    38    1
   115    36    33    1
   116    29    28    1
   117    35    34    2
   118   116   117    2
   119   135   136    1
   120   135   132    1
   121    34    33    1
   122   136   137   ar
   123   133   132    1
   124   140   139    1
   125   140   143    1
   126   131   132    1
   127    33    32    1
   128    46    45    1
   129    28    27    1
   130   143   144    1
   131   145   144    2
   132    45    44    1
   133   144   146   am
   134    27    24    1
   135    24    25    1
   136    24    23    1
   137    44    43    1
   138    25    26    2
   139    22    20    1
   140   129   128   ar
   141    43    40    1
   142   122   123    1
   143   126   127    1
   144   126   123    1
   145    21    20    1
   146    20    19    2
   147   128   127    1
   148   128   130   ar
   149   123   124    1
   150    40    39    1
   151    40    41    1
   152    19    18    1
   153    41    42    2
   154   124   125    2
   155    15    14    2
   156    18    17    1
   157    16    17    1
   158    16    13    1
   159    14    13    1
   160    13    12    1
