@<TRIPOS>MOLECULE
tmp/4a8fB00.pdb
 218 203 0 0 0
SMALL
GASTEIGER

@<TRIPOS>ATOM
      1  N         47.1000   32.2210   32.8050 N.3    23  LYS23      -0.1245
      2  CA        47.4610   31.4730   34.0310 C.3    23  LYS23       0.1561
      3  C         47.4440   32.3570   35.2990 C.2    23  LYS23       0.2260
      4  O         46.8820   31.9500   36.3520 O.2    23  LYS23      -0.2867
      5  CB        48.8560   30.8280   33.9210 C.3    23  LYS23       0.0271
      6  CG        48.9830   29.7110   32.9120 C.3    23  LYS23       0.0035
      7  CD        49.3080   28.3400   33.5660 C.3    23  LYS23       0.0206
      8  CE        50.7780   27.9480   33.6620 C.3    23  LYS23       0.1093
      9  NZ        51.4740   27.6670   32.3610 N.3    23  LYS23      -0.1314
     10  N         43.9680   33.7050   36.2860 N.3    26  GLN26      -0.1245
     11  CA        43.2630   32.5520   36.8940 C.3    26  GLN26       0.1566
     12  C         43.7200   32.3330   38.3500 C.2    26  GLN26       0.2260
     13  O         42.8800   32.0240   39.2240 O.2    26  GLN26      -0.2867
     14  CB        43.4920   31.2490   36.1030 C.3    26  GLN26       0.0367
     15  CG        42.7910   31.1820   34.7300 C.3    26  GLN26       0.0905
     16  CD        43.2530   30.0000   33.8480 C.2    26  GLN26       0.2608
     17  OE1       42.5490   29.5400   32.9130 O.2    26  GLN26      -0.2717
     18  NE2       44.4780   29.5140   34.0700 N.am   26  GLN26      -0.0878
     19  N         41.3540   32.2890   41.4740 N.3    30  ARG30      -0.1245
     20  CA        41.1440   30.8960   41.9910 C.3    30  ARG30       0.1563
     21  C         40.3030   30.8400   43.2560 C.2    30  ARG30       0.2260
     22  O         40.6850   31.3890   44.2960 O.2    30  ARG30      -0.2867
     23  CB        42.4570   30.1350   42.2550 C.3    30  ARG30       0.0307
     24  CG        42.2640   28.5980   42.2960 C.3    30  ARG30       0.0489
     25  CD        43.2780   27.8750   41.4030 C.3    30  ARG30       0.2205
     26  NE        42.9730   27.9450   39.9550 N.pl3  30  ARG30      -0.0865
     27  CZ        43.8560   28.1800   38.9700 C.cat  30  ARG30       0.5346
     28  NH1       45.1400   28.3970   39.2490 N.pl3  30  ARG30       0.1354
     29  NH2       43.4490   28.2350   37.7050 N.pl3  30  ARG30       0.1354
     30  N         38.2650   25.4120   46.3960 N.3    33  LYS33      -0.1245
     31  CA        37.8990   24.1550   45.7180 C.3    33  LYS33       0.1561
     32  C         38.0530   22.9570   46.6870 C.2    33  LYS33       0.2260
     33  O         38.9470   22.9900   47.5640 O.2    33  LYS33      -0.2867
     34  CB        38.7840   23.9500   44.4770 C.3    33  LYS33       0.0271
     35  CG        38.1350   24.2430   43.1280 C.3    33  LYS33       0.0035
     36  CD        38.0170   25.7570   42.7500 C.3    33  LYS33       0.0206
     37  CE        37.3810   25.9950   41.3920 C.3    33  LYS33       0.1093
     38  NZ        36.5300   27.2150   41.3360 N.3    33  LYS33      -0.1314
     39  N         60.7260   20.3020   37.9430 N.3   147  LYS147     -0.1231
     40  CA        59.8310   20.2580   36.7930 C.3   147  LYS147      0.1693
     41  C         58.3900   20.4250   37.2790 C.2   147  LYS147      0.2593
     42  O         58.0320   19.9480   38.3810 O.2   147  LYS147     -0.2718
     43  CB        60.0030   18.9310   36.0250 C.3   147  LYS147      0.0285
     44  CG        61.3810   18.7560   35.3840 C.3   147  LYS147      0.0035
     45  CD        61.4430   17.4570   34.6220 C.3   147  LYS147      0.0206
     46  CE        62.8190   17.2480   34.0550 C.3   147  LYS147      0.1093
     47  NZ        62.8580   16.0450   33.1930 N.3   147  LYS147     -0.1314
     48  N         57.6130   21.1700   36.4940 N.am  148  GLY148     -0.1942
     49  CA        56.2190   21.4120   36.8200 C.3   148  GLY148      0.2014
     50  C         55.9510   22.4820   37.8660 C.2   148  GLY148      0.2640
     51  O         54.8000   22.9060   37.9710 O.2   148  GLY148     -0.2714
     52  N         56.9790   22.9410   38.6580 N.am  149  SER149     -0.1935
     53  CA        56.8890   24.0450   39.6580 C.3   149  SER149      0.2055
     54  C         56.3590   25.3580   38.9690 C.2   149  SER149      0.2643
     55  O         56.4810   25.5010   37.7360 O.2   149  SER149     -0.2714
     56  CB        58.2830   24.3510   40.1850 C.3   149  SER149      0.2130
     57  OG        59.1020   24.8460   39.1300 O.3   149  SER149     -0.2179
     58  N         55.7970   26.3060   39.7520 N.am  150  SER150     -0.1949
     59  CA        55.3060   27.5610   39.1730 C.3   150  SER150      0.1924
     60  C         56.2640   28.6920   39.4430 C.2   150  SER150      0.2314
     61  O         56.9880   28.6400   40.4590 O.2   150  SER150     -0.2863
     62  CB        53.9250   27.9290   39.7140 C.3   150  SER150      0.2116
     63  OG        53.5120   29.2230   39.2930 O.3   150  SER150     -0.2180
     64  N         55.0300   31.6490   39.8780 N.3   152  CYS152     -0.1235
     65  CA        54.1750   32.4370   40.7500 C.3   152  CYS152      0.1677
     66  C         54.2840   33.8910   40.3680 C.2   152  CYS152      0.2270
     67  O         54.4660   34.1760   39.1900 O.2   152  CYS152     -0.2867
     68  CB        54.4810   32.1870   42.2340 C.3   152  CYS152      0.0956
     69  SG        54.6340   30.4260   42.6700 S.3   152  CYS152     -0.0801
     70  N         54.6760   27.4290   34.3070 N.3   158  ASN158     -0.1225
     71  CA        55.0450   26.0560   34.6770 C.3   158  ASN158      0.1785
     72  C         56.0180   25.4540   33.6230 C.2   158  ASN158      0.2597
     73  O         56.6050   24.3690   33.8380 O.2   158  ASN158     -0.2718
     74  CB        53.7940   25.1810   34.8830 C.3   158  ASN158      0.1169
     75  CG        53.0200   25.5880   36.1080 C.2   158  ASN158      0.2627
     76  OD1       52.0200   26.3000   36.0230 O.2   158  ASN158     -0.2716
     77  ND2       53.4970   25.2050   37.2850 N.am  158  ASN158     -0.0877
     78  N         56.2110   26.2060   32.5040 N.am  159  ASP159     -0.1960
     79  CA        57.1410   25.8650   31.4370 C.3   159  ASP159      0.1840
     80  C         58.6050   26.0550   31.8360 C.2   159  ASP159      0.2622
     81  O         59.0300   27.1770   32.1610 O.2   159  ASP159     -0.2715
     82  CB        56.8510   26.6210   30.1390 C.3   159  ASP159      0.1450
     83  CG        57.9160   26.3780   29.0590 C.2   159  ASP159      0.3671
     84  OD1       58.3300   25.1810   28.8600 O.co2 159  ASP159     -0.2456
     85  OD2       58.4100   27.3720   28.4860 O.co2 159  ASP159     -0.2456
     86  N         59.3810   24.9620   31.7260 N.am  160  MET160     -0.1963
     87  CA        60.7910   24.9630   32.0640 C.3   160  MET160      0.1736
     88  C         61.6090   25.9270   31.2330 C.2   160  MET160      0.2617
     89  O         62.5240   26.5700   31.7300 O.2   160  MET160     -0.2715
     90  CB        61.3460   23.5460   32.0410 C.3   160  MET160      0.0427
     91  CG        62.8100   23.4300   32.3300 C.3   160  MET160      0.0599
     92  SD        63.1460   23.9020   33.9950 S.3   160  MET160     -0.1393
     93  CE        62.4600   22.4560   34.8980 C.3   160  MET160      0.0692
     94  N         61.2340   26.0750   29.9920 N.am  161  GLY161     -0.1955
     95  CA        61.9350   26.9870   29.0990 C.3   161  GLY161      0.1869
     96  C         61.8980   28.3840   29.6450 C.2   161  GLY161      0.2309
     97  O         62.9520   28.9970   29.8660 O.2   161  GLY161     -0.2863
     98  N         48.7030   29.4050   49.1600 N.3   202  VAL202     -0.1245
     99  CA        47.9640   28.2180   48.7530 C.3   202  VAL202      0.1561
    100  C         47.8300   27.3410   49.9840 C.2   202  VAL202      0.2260
    101  O         48.6680   27.4150   50.8750 O.2   202  VAL202     -0.2867
    102  CB        48.6460   27.4830   47.5970 C.3   202  VAL202      0.0252
    103  CG1       49.4940   28.4420   46.7660 C.3   202  VAL202      0.0019
    104  CG2       49.4960   26.3190   48.1040 C.3   202  VAL202      0.0019
    105  N         47.7430   23.5140   51.2590 N.3   204  ARG204     -0.1245
    106  CA        47.9930   22.1130   50.8910 C.3   204  ARG204      0.1563
    107  C         47.4210   21.2660   52.0310 C.2   204  ARG204      0.2260
    108  O         47.1290   21.8540   53.0640 O.2   204  ARG204     -0.2867
    109  CB        49.5090   21.8860   50.6760 C.3   204  ARG204      0.0307
    110  CG        50.1000   22.6800   49.4800 C.3   204  ARG204      0.0489
    111  CD        51.2210   21.9470   48.7110 C.3   204  ARG204      0.2205
    112  NE        52.5810   22.4940   48.9220 N.pl3 204  ARG204     -0.0865
    113  CZ        53.4900   22.0330   49.7930 C.cat 204  ARG204      0.5346
    114  NH1       53.2110   20.9850   50.5680 N.pl3 204  ARG204      0.1354
    115  NH2       54.6810   22.6220   49.8960 N.pl3 204  ARG204      0.1354
    116  N         50.8040   26.9690   52.5090 N.3   272  ALA272     -0.1231
    117  CA        52.0170   26.9660   51.7020 C.3   272  ALA272      0.1694
    118  C         52.1550   28.3110   50.9540 C.2   272  ALA272      0.2591
    119  O         51.1450   28.9370   50.5770 O.2   272  ALA272     -0.2718
    120  CB        51.9370   25.8510   50.7020 C.3   272  ALA272      0.0304
    121  N         53.3960   28.7880   50.7770 N.am  273  MET273     -0.1979
    122  CA        53.5970   30.0840   50.1290 C.3   273  MET273      0.1605
    123  C         54.5840   29.9920   49.0220 C.2   273  MET273      0.2287
    124  O         55.6920   29.4800   49.2420 O.2   273  MET273     -0.2864
    125  CB        54.0670   31.1330   51.1230 C.3   273  MET273      0.0413
    126  CG        53.1730   31.2010   52.2900 C.3   273  MET273      0.0598
    127  SD        53.2620   32.7650   53.0540 S.3   273  MET273     -0.1393
    128  CE        54.3950   32.4610   54.2320 C.3   273  MET273      0.0692
    129  N         48.2300   14.0540   47.9230 N.3   530  TYR530     -0.1241
    130  CA        47.6200   14.3820   46.6220 C.3   530  TYR530      0.1605
    131  C         47.0370   13.1030   45.9570 C.2   530  TYR530      0.2264
    132  O         47.3590   11.9610   46.3310 O.2   530  TYR530     -0.2867
    133  CB        48.6520   15.0280   45.6780 C.3   530  TYR530      0.0534
    134  CG        49.4600   16.1410   46.3080 C.ar  530  TYR530     -0.0201
    135  CD1       50.6590   15.8780   46.9600 C.ar  530  TYR530     -0.0009
    136  CD2       49.0440   17.4580   46.2290 C.ar  530  TYR530     -0.0009
    137  CE1       51.4370   16.9020   47.5150 C.ar  530  TYR530      0.0417
    138  CE2       49.7870   18.4960   46.8190 C.ar  530  TYR530      0.0417
    139  CZ        50.9990   18.2170   47.4530 C.ar  530  TYR530      0.1957
    140  OH        51.8220   19.2050   47.9910 O.3   530  TYR530     -0.2866
    141  N         46.5850   12.1780   39.8840 N.3   533  GLN533     -0.1245
    142  CA        46.6270   13.1960   38.8110 C.3   533  GLN533      0.1566
    143  C         46.6690   12.5390   37.4630 C.2   533  GLN533      0.2260
    144  O         47.4530   12.9970   36.6350 O.2   533  GLN533     -0.2867
    145  CB        47.8460   14.1600   38.9090 C.3   533  GLN533      0.0367
    146  CG        47.8270   15.1270   40.0570 C.3   533  GLN533      0.0905
    147  CD        49.2270   15.4630   40.4430 C.2   533  GLN533      0.2608
    148  OE1       49.8880   14.6250   41.1110 O.2   533  GLN533     -0.2717
    149  NE2       49.7060   16.6850   39.9980 N.am  533  GLN533     -0.0878
    150  N         47.2930   14.6630   34.2930 N.3   536  VAL536     -0.1231
    151  CA        48.6070   15.1670   33.9210 C.3   536  VAL536      0.1692
    152  C         49.4030   14.1100   33.1920 C.2   536  VAL536      0.2592
    153  O         49.8200   13.1170   33.8100 O.2   536  VAL536     -0.2718
    154  CB        49.3350   15.6430   35.1690 C.3   536  VAL536      0.0266
    155  CG1       50.6960   16.2440   34.7980 C.3   536  VAL536      0.0020
    156  CG2       48.4730   16.6300   35.9550 C.3   536  VAL536      0.0020
    157  N         49.6310   14.3390   31.8750 N.am  537  ARG537     -0.1966
    158  CA        50.3070   13.3590   31.0050 C.3   537  ARG537      0.1729
    159  C         51.7000   13.2040   31.4540 C.2   537  ARG537      0.2616
    160  O         52.0960   12.0860   31.7650 O.2   537  ARG537     -0.2715
    161  CB        50.2600   13.6720   29.4690 C.3   537  ARG537      0.0348
    162  CG        49.5870   15.0120   29.0680 C.3   537  ARG537      0.0492
    163  CD        48.5170   14.8480   27.9910 C.3   537  ARG537      0.2205
    164  NE        47.6180   13.6980   28.2080 N.pl3 537  ARG537     -0.0865
    165  CZ        46.3130   13.7850   28.4650 C.cat 537  ARG537      0.5346
    166  NH1       45.7080   14.9700   28.4780 N.pl3 537  ARG537      0.1354
    167  NH2       45.5980   12.6840   28.6830 N.pl3 537  ARG537      0.1354
    168  N         52.4380   14.2840   31.5370 N.am  538  ASP538     -0.1971
    169  CA        53.8200   14.1190   31.9040 C.3   538  ASP538      0.1709
    170  C         53.9670   13.7450   33.4180 C.2   538  ASP538      0.2293
    171  O         53.8670   14.6000   34.3370 O.2   538  ASP538     -0.2864
    172  CB        54.5820   15.3820   31.4660 C.3   538  ASP538      0.1436
    173  CG        56.0650   15.4070   31.8130 C.2   538  ASP538      0.3671
    174  OD1       56.5590   14.3970   32.4050 O.co2 538  ASP538     -0.2456
    175  OD2       56.7310   16.4510   31.5300 O.co2 538  ASP538     -0.2456
    176  N         56.3580   13.2230   35.1960 N.3   540  SER540     -0.1202
    177  CA        57.4360   13.9640   35.8630 C.3   540  SER540      0.2020
    178  C         56.9220   15.2260   36.5710 C.2   540  SER540      0.2618
    179  O         57.4690   15.5930   37.6220 O.2   540  SER540     -0.2717
    180  CB        58.6000   14.2720   34.9120 C.3   540  SER540      0.2103
    181  OG        58.3750   15.3330   33.9930 O.3   540  SER540     -0.2182
    182  N         55.8530   15.8600   36.0140 N.am  541  LYS541     -0.1979
    183  CA        55.2730   17.0560   36.6120 C.3   541  LYS541      0.1596
    184  C         54.0560   16.8080   37.5320 C.2   541  LYS541      0.2287
    185  O         53.4350   17.7630   38.0040 O.2   541  LYS541     -0.2864
    186  CB        55.1230   18.2010   35.6240 C.3   541  LYS541      0.0298
    187  CG        54.4920   17.8030   34.2920 C.3   541  LYS541      0.0038
    188  CD        55.0250   18.6750   33.0990 C.3   541  LYS541      0.0206
    189  CE        54.2300   19.9460   32.8370 C.3   541  LYS541      0.1093
    190  NZ        54.9190   21.1990   33.2870 N.3   541  LYS541     -0.1314
    191  N         52.5120   15.3600   41.2960 N.3   543  LYS543     -0.1245
    192  CA        52.8730   15.3590   42.7080 C.3   543  LYS543      0.1561
    193  C         53.3190   13.9510   43.1260 C.2   543  LYS543      0.2260
    194  O         54.2460   13.8330   43.9230 O.2   543  LYS543     -0.2867
    195  CB        51.7080   15.8800   43.5650 C.3   543  LYS543      0.0271
    196  CG        51.5040   17.3980   43.4670 C.3   543  LYS543      0.0035
    197  CD        52.6090   18.1950   44.2540 C.3   543  LYS543      0.0206
    198  CE        52.4920   19.7080   44.2550 C.3   543  LYS543      0.1093
    199  NZ        53.4790   20.3500   43.3160 N.3   543  LYS543     -0.1314
    200  N         62.1940   16.9820   49.7790 N.3   629  GLN629     -0.1245
    201  CA        62.0700   18.3060   50.3850 C.3   629  GLN629      0.1566
    202  C         62.0560   18.2480   51.9110 C.2   629  GLN629      0.2260
    203  O         62.0980   19.2950   52.5560 O.2   629  GLN629     -0.2867
    204  CB        60.7880   18.9800   49.8540 C.3   629  GLN629      0.0367
    205  CG        60.9120   20.4670   49.6430 C.3   629  GLN629      0.0905
    206  CD        59.8450   21.0160   48.7410 C.2   629  GLN629      0.2608
    207  OE1       59.7490   20.6490   47.5650 O.2   629  GLN629     -0.2717
    208  NE2       59.0390   21.9470   49.2570 N.am  629  GLN629     -0.0878
    209  N         65.6710   20.0470   36.3170 N.3   647  HIS647     -0.1241
    210  CA        66.4870   20.6120   35.2490 C.3   647  HIS647      0.1621
    211  C         67.3220   21.8380   35.8100 C.2   647  HIS647      0.2264
    212  O         66.7940   22.6430   36.5920 O.2   647  HIS647     -0.2867
    213  CB        65.7140   20.9340   33.9410 C.3   647  HIS647      0.0745
    214  CG        66.6470   21.5290   32.8920 C.ar  647  HIS647      0.0817
    215  ND1       67.5680   20.7300   32.2230 N.ar  647  HIS647     -0.2268
    216  CD2       66.8940   22.8310   32.5670 C.ar  647  HIS647      0.1154
    217  CE1       68.2970   21.5580   31.4850 C.ar  647  HIS647      0.1986
    218  NE2       67.9460   22.8330   31.6800 N.ar  647  HIS647     -0.2212
@<TRIPOS>BOND
     1   163   164    1
     2   163   162    1
     3   164   165    2
     4   165   166    1
     5   165   167    1
     6    85    83   ar
     7    84    83   ar
     8    83    82    1
     9   162   161    1
    10    95    96    1
    11    95    94    1
    12   161   158    1
    13    96    97    2
    14    94    88   am
    15    82    79    1
    16   158   159    1
    17   158   157    1
    18    88    89    2
    19    88    87    1
    20    79    80    1
    21    79    78    1
    22   159   168   am
    23   159   160    2
    24   172   173    1
    25   172   169    1
    26   217   218   ar
    27   217   215   ar
    28   175   173   ar
    29   168   169    1
    30   218   216   ar
    31    86    80   am
    32    86    87    1
    33   173   174   ar
    34    80    81    2
    35   157   152   am
    36   169   170    1
    37    90    87    1
    38    90    91    1
    39   215   214   ar
    40    91    92    1
    41     9     8    1
    42    78    72   am
    43   216   214   ar
    44     1     2    1
    45   189   188    1
    46   189   190    1
    47   214   213    1
    48     6     7    1
    49     6     5    1
    50    17    16    2
    51   188   187    1
    52   152   153    2
    53   152   151    1
    54    47    46    1
    55   170   171    2
    56     7     8    1
    57    72    73    2
    58    72    71    1
    59    16    18   am
    60    16    15    1
    61   151   150    1
    62   151   154    1
    63     5     2    1
    64   213   210    1
    65   181   180    1
    66    92    93    1
    67     2     3    1
    68    46    45    1
    69   187   186    1
    70    70    71    1
    71    45    44    1
    72    71    74    1
    73    15    14    1
    74   155   154    1
    75    74    75    1
    76   180   177    1
    77   154   156    1
    78   176   177    1
    79   210   211    1
    80   210   209    1
    81     3     4    2
    82    44    43    1
    83   186   183    1
    84   211   212    2
    85   177   178    1
    86   182   178   am
    87   182   183    1
    88    76    75    2
    89    43    40    1
    90    14    11    1
    91    75    77   am
    92    10    11    1
    93    48    49    1
    94    48    41   am
    95   178   179    2
    96   183   184    1
    97   144   143    2
    98    40    41    1
    99    40    39    1
   100    49    50    1
   101    11    12    1
   102    41    42    2
   103   143   142    1
   104   184   185    2
   105    29    27    1
   106    55    54    2
   107    50    51    2
   108    50    52   am
   109    12    13    2
   110    52    53    1
   111   142   145    1
   112   142   141    1
   113   145   146    1
   114    54    53    1
   115    54    58   am
   116    27    28    1
   117    27    26    2
   118    57    56    1
   119    59    60    1
   120    59    62    1
   121    59    58    1
   122    67    66    2
   123    63    62    1
   124    60    61    2
   125    53    56    1
   126    64    65    1
   127    26    25    1
   128   149   147   am
   129   146   147    1
   130    66    65    1
   131   147   148    2
   132    65    68    1
   133   191   192    1
   134    38    37    1
   135    37    36    1
   136    25    24    1
   137    19    20    1
   138    20    23    1
   139    20    21    1
   140    68    69    1
   141    23    24    1
   142   192   193    1
   143   192   195    1
   144    36    35    1
   145   193   194    2
   146    35    34    1
   147    21    22    2
   148   199   198    1
   149   196   195    1
   150   196   197    1
   151   197   198    1
   152    34    31    1
   153   133   134    1
   154   133   130    1
   155    31    30    1
   156    31    32    1
   157   131   132    2
   158   131   130    1
   159   136   134   ar
   160   136   138   ar
   161   134   135   ar
   162   130   129    1
   163    32    33    2
   164   103   102    1
   165   138   139   ar
   166   135   137   ar
   167   139   137   ar
   168   139   140    1
   169   207   206    2
   170   102   104    1
   171   102    99    1
   172   111   112    1
   173   111   110    1
   174   206   208   am
   175   206   205    1
   176    99    98    1
   177    99   100    1
   178   112   113    2
   179   123   124    2
   180   123   122    1
   181   110   109    1
   182   205   204    1
   183   200   201    1
   184   113   115    1
   185   113   114    1
   186   204   201    1
   187   100   101    2
   188   122   121    1
   189   122   125    1
   190   201   202    1
   191   119   118    2
   192   109   106    1
   193   120   117    1
   194   121   118   am
   195   106   105    1
   196   106   107    1
   197   118   117    1
   198   125   126    1
   199   117   116    1
   200   202   203    2
   201   107   108    2
   202   126   127    1
   203   127   128    1
