@<TRIPOS>MOLECULE
tmp/4a8gA00.pdb
 188 174 0 0 0
SMALL
GASTEIGER

@<TRIPOS>ATOM
      1  N          2.5920    7.6060    3.0720 N.3     9  THR9       -0.1218
      2  CA         3.4030    8.8140    2.9890 C.3     9  THR9        0.1862
      3  C          4.1880    8.8180    1.6760 C.2     9  THR9        0.2287
      4  O          4.3320    7.8080    1.0330 O.2     9  THR9       -0.2866
      5  CB         4.2840    9.0180    4.2680 C.3     9  THR9        0.1770
      6  OG1        4.8520   10.3390    4.2820 O.3     9  THR9       -0.2211
      7  CG2        5.4020    7.9710    4.3940 C.3     9  THR9        0.0375
      8  N         16.5410    2.6380    3.0740 N.3    22  PHE22      -0.1227
      9  CA        15.6440    2.8040    4.2160 C.3    22  PHE22       0.1736
     10  C         15.2410    1.4530    4.8360 C.2    22  PHE22       0.2595
     11  O         15.1570    1.3290    6.0860 O.2    22  PHE22      -0.2718
     12  CB        14.3970    3.6180    3.8150 C.3    22  PHE22       0.0547
     13  CG        13.3830    3.7960    4.9160 C.ar   22  PHE22      -0.0202
     14  CD1       13.6550    4.6000    6.0160 C.ar   22  PHE22      -0.0042
     15  CD2       12.1350    3.1760    4.8410 C.ar   22  PHE22      -0.0042
     16  CE1       12.7130    4.7810    7.0340 C.ar   22  PHE22      -0.0003
     17  CE2       11.1900    3.3530    5.8570 C.ar   22  PHE22      -0.0003
     18  CZ        11.4890    4.1650    6.9550 C.ar   22  PHE22      -0.0000
     19  N         15.0320    0.4470    3.9750 N.am   23  ILE23      -0.1980
     20  CA        14.6400   -0.8950    4.4400 C.3    23  ILE23       0.1595
     21  C         15.8590   -1.7810    4.5760 C.2    23  ILE23       0.2287
     22  O         16.2400   -2.1330    5.6650 O.2    23  ILE23      -0.2864
     23  CB        13.5840   -1.5690    3.5390 C.3    23  ILE23       0.0276
     24  CG1       12.2430   -0.8330    3.6360 C.3    23  ILE23       0.0022
     25  CG2       13.4620   -3.0280    3.9120 C.3    23  ILE23       0.0022
     26  CD1       11.8460   -0.4150    5.0460 C.3    23  ILE23       0.0001
     27  N         18.7210   -0.2770    6.9590 N.3    26  GLY26      -0.1210
     28  CA        18.2090    0.3210    8.1830 C.3    26  GLY26       0.1956
     29  C         19.1150    0.1990    9.4150 C.2    26  GLY26       0.2611
     30  O         19.2740    1.1920   10.1550 O.2    26  GLY26      -0.2717
     31  N         19.7140   -0.9800    9.6360 N.am   27  ASP27      -0.1973
     32  CA        20.5890   -1.2480   10.7820 C.3    27  ASP27       0.1709
     33  C         21.7580   -0.3390   10.8460 C.2    27  ASP27       0.2293
     34  O         22.2240    0.0150   11.9240 O.2    27  ASP27      -0.2864
     35  CB        21.1800   -2.6440   10.6900 C.3    27  ASP27       0.1436
     36  CG        20.1530   -3.7400   10.8650 C.2    27  ASP27       0.3671
     37  OD1       18.9450   -3.4710   10.9320 O.co2  27  ASP27      -0.2456
     38  OD2       20.5900   -4.9170   10.9230 O.co2  27  ASP27      -0.2456
     39  N         19.9830    4.0240   10.3520 N.3    30  PHE30      -0.1241
     40  CA        19.1420    4.6810   11.3480 C.3    30  PHE30       0.1605
     41  C         19.9560    5.3130   12.4590 C.2    30  PHE30       0.2264
     42  O         19.7230    6.4660   12.7730 O.2    30  PHE30      -0.2867
     43  CB        18.0360    3.7700   11.8830 C.3    30  PHE30       0.0534
     44  CG        16.9860    3.4110   10.8530 C.ar   30  PHE30      -0.0203
     45  CD1       16.7460    4.2350    9.7220 C.ar   30  PHE30      -0.0042
     46  CD2       16.1780    2.2800   11.0370 C.ar   30  PHE30      -0.0042
     47  CE1       15.7740    3.9080    8.7940 C.ar   30  PHE30      -0.0003
     48  CE2       15.2020    1.9600   10.1010 C.ar   30  PHE30      -0.0003
     49  CZ        15.0080    2.7700    8.9780 C.ar   30  PHE30      -0.0000
     50  N         21.3520   -0.4560   16.6760 N.3    41  VAL41      -0.1245
     51  CA        20.5860   -1.6050   16.1700 C.3    41  VAL41       0.1561
     52  C         21.5470   -2.7520   16.2620 C.2    41  VAL41       0.2260
     53  O         22.6530   -2.6880   15.7030 O.2    41  VAL41      -0.2867
     54  CB        20.2110   -1.4360   14.6950 C.3    41  VAL41       0.0252
     55  CG1       19.4660   -2.6710   14.1850 C.3    41  VAL41       0.0019
     56  CG2       19.3820   -0.1700   14.4710 C.3    41  VAL41       0.0019
     57  N         16.6140   -8.4760   15.5430 N.3    54  LYS54      -0.1245
     58  CA        17.4100   -7.2690   15.7170 C.3    54  LYS54       0.1561
     59  C         16.9020   -6.6380   17.0030 C.2    54  LYS54       0.2260
     60  O         15.7090   -6.7620   17.3230 O.2    54  LYS54      -0.2867
     61  CB        17.2370   -6.3090   14.5220 C.3    54  LYS54       0.0271
     62  CG        17.7530   -6.9420   13.2060 C.3    54  LYS54       0.0035
     63  CD        17.2830   -6.2370   11.9360 C.3    54  LYS54       0.0206
     64  CE        17.9050   -6.8750   10.6620 C.3    54  LYS54       0.1093
     65  NZ        19.2460   -7.5320   10.9730 N.3    54  LYS54      -0.1314
     66  N         16.5840   -2.9650   18.7470 N.3    56  ILE56      -0.1245
     67  CA        16.6140   -1.5370   18.4310 C.3    56  ILE56       0.1561
     68  C         16.5560   -0.7660   19.7550 C.2    56  ILE56       0.2260
     69  O         15.5600   -0.8730   20.4900 O.2    56  ILE56      -0.2867
     70  CB        15.4050   -1.1300   17.5570 C.3    56  ILE56       0.0252
     71  CG1       15.4450   -1.7920   16.1680 C.3    56  ILE56       0.0019
     72  CG2       15.4180    0.3630   17.3040 C.3    56  ILE56       0.0019
     73  CD1       14.9130   -3.2090   16.1510 C.3    56  ILE56       0.0001
     74  N         12.8330   -6.5530   17.0650 N.3    69  ASP69      -0.1239
     75  CA        12.1130   -6.7120   15.8220 C.3    69  ASP69       0.1674
     76  C         12.6070   -7.9690   15.1400 C.2    69  ASP69       0.2266
     77  O         13.8070   -8.2940   15.2250 O.2    69  ASP69      -0.2867
     78  CB        12.3370   -5.5290   14.8770 C.3    69  ASP69       0.1410
     79  CG        11.6060   -4.2570   15.3070 C.2    69  ASP69       0.3668
     80  OD1       10.7910   -4.2290   16.2350 O.co2  69  ASP69      -0.2456
     81  OD2       11.8790   -3.2400   14.6930 O.co2  69  ASP69      -0.2456
     82  N         12.4190   -9.8610   11.3070 N.3    71  VAL71      -0.1245
     83  CA        12.1220   -9.8480    9.8890 C.3    71  VAL71       0.1561
     84  C         11.1290  -10.9720    9.5840 C.2    71  VAL71       0.2260
     85  O         11.3340  -12.1320    9.9910 O.2    71  VAL71      -0.2867
     86  CB        13.4010  -10.0560    9.0670 C.3    71  VAL71       0.0252
     87  CG1       13.0540  -10.1980    7.5980 C.3    71  VAL71       0.0019
     88  CG2       14.3870   -8.9090    9.3110 C.3    71  VAL71       0.0019
     89  N          8.3320   -5.1570    2.7790 N.3    81  TYR81      -0.1241
     90  CA         9.0450   -5.5940    3.9760 C.3    81  TYR81       0.1605
     91  C          8.0440   -5.7810    5.1150 C.2    81  TYR81       0.2264
     92  O          7.4230   -4.7990    5.5510 O.2    81  TYR81      -0.2867
     93  CB        10.0480   -4.5050    4.3710 C.3    81  TYR81       0.0534
     94  CG        10.9550   -4.8560    5.5330 C.ar   81  TYR81      -0.0201
     95  CD1       11.8710   -5.8910    5.4460 C.ar   81  TYR81      -0.0009
     96  CD2       10.8950   -4.1500    6.7030 C.ar   81  TYR81      -0.0009
     97  CE1       12.7110   -6.1970    6.5060 C.ar   81  TYR81       0.0417
     98  CE2       11.7100   -4.4560    7.7690 C.ar   81  TYR81       0.0417
     99  CZ        12.6210   -5.4660    7.6610 C.ar   81  TYR81       0.1957
    100  OH        13.4100   -5.7430    8.7380 O.3    81  TYR81      -0.2866
    101  N          7.8390   -7.1770    9.0340 N.3    83  TYR83      -0.1241
    102  CA         8.6000   -7.3770   10.2760 C.3    83  TYR83       0.1605
    103  C          7.6280   -7.2660   11.4780 C.2    83  TYR83       0.2264
    104  O          6.5830   -6.6180   11.3700 O.2    83  TYR83      -0.2867
    105  CB         9.7760   -6.3590   10.3970 C.3    83  TYR83       0.0534
    106  CG         9.3340   -4.9490   10.7470 C.ar   83  TYR83      -0.0201
    107  CD1        8.8230   -4.0800    9.7580 C.ar   83  TYR83      -0.0009
    108  CD2        9.4080   -4.4920   12.0620 C.ar   83  TYR83      -0.0009
    109  CE1        8.4230   -2.7870   10.0720 C.ar   83  TYR83       0.0417
    110  CE2        9.0060   -3.2310   12.3920 C.ar   83  TYR83       0.0417
    111  CZ         8.5000   -2.3770   11.3850 C.ar   83  TYR83       0.1957
    112  OH         8.0630   -1.1320   11.7410 O.3    83  TYR83      -0.2866
    113  N          5.3630   -2.9260    5.1680 N.3   102  ILE102     -0.1245
    114  CA         5.7400   -1.7240    4.3720 C.3   102  ILE102      0.1561
    115  C          5.8950   -2.0600    2.8890 C.2   102  ILE102      0.2260
    116  O          6.6530   -2.9750    2.5670 O.2   102  ILE102     -0.2867
    117  CB         7.0700   -1.1120    4.8340 C.3   102  ILE102      0.0252
    118  CG1        7.0350   -0.8280    6.3360 C.3   102  ILE102      0.0019
    119  CG2        7.4020    0.1660    4.0320 C.3   102  ILE102      0.0019
    120  CD1        8.4050   -0.6680    6.9270 C.3   102  ILE102      0.0001
    121  N          4.9740    5.1910    0.2270 N.3   114  LEU114     -0.1245
    122  CA         5.1550    4.1150    1.1720 C.3   114  LEU114      0.1561
    123  C          3.8460    3.8660    1.8150 C.2   114  LEU114      0.2260
    124  O          3.2010    4.8140    2.2630 O.2   114  LEU114     -0.2867
    125  CB         6.1600    4.4500    2.2410 C.3   114  LEU114      0.0270
    126  CG         7.5840    4.7520    1.8090 C.3   114  LEU114      0.0019
    127  CD1        7.7190    6.2150    1.3910 C.3   114  LEU114      0.0001
    128  CD2        8.4910    4.4450    3.0060 C.3   114  LEU114      0.0001
    129  N          1.9580    1.6470    4.7480 N.3   116  ILE116     -0.1245
    130  CA         2.3810    1.0710    6.0100 C.3   116  ILE116      0.1561
    131  C          1.1220    0.5050    6.6590 C.2   116  ILE116      0.2260
    132  O          0.1230    1.2300    6.8300 O.2   116  ILE116     -0.2867
    133  CB         3.0160    2.1620    6.8980 C.3   116  ILE116      0.0252
    134  CG1        4.2480    2.7650    6.2090 C.3   116  ILE116      0.0019
    135  CG2        3.3740    1.6640    8.3050 C.3   116  ILE116      0.0019
    136  CD1        4.0180    4.1530    5.6360 C.3   116  ILE116      0.0001
    137  N          0.1150   -1.6350   10.2460 N.3   118  ASN118     -0.1240
    138  CA         0.4740   -2.0940   11.6010 C.3   118  ASN118      0.1653
    139  C         -0.7050   -2.8080   12.2310 C.2   118  ASN118      0.2266
    140  O         -1.7390   -2.1670   12.4920 O.2   118  ASN118     -0.2867
    141  CB         0.8420   -0.9360   12.5110 C.3   118  ASN118      0.1155
    142  CG         1.8810   -0.0270   11.9110 C.2   118  ASN118      0.2627
    143  OD1        2.8740   -0.4730   11.3300 O.2   118  ASN118     -0.2716
    144  ND2        1.6560    1.2670   12.0400 N.am  118  ASN118     -0.0877
    145  N          4.1900    5.7830   16.8940 N.3   136  SER136     -0.1202
    146  CA         4.7350    4.8720   15.8890 C.3   136  SER136      0.2020
    147  C          4.9150    5.5570   14.5160 C.2   136  SER136      0.2618
    148  O          6.0060    5.4990   13.9260 O.2   136  SER136     -0.2717
    149  CB         3.8540    3.6180   15.7520 C.3   136  SER136      0.2103
    150  OG         4.4320    2.7130   14.8160 O.3   136  SER136     -0.2182
    151  N          3.8540    6.2120   14.0340 N.am  137  LYS137     -0.1979
    152  CA         3.8740    6.8870   12.7300 C.3   137  LYS137      0.1596
    153  C          4.8860    7.9940   12.7550 C.2   137  LYS137      0.2287
    154  O          5.6310    8.1860   11.8060 O.2   137  LYS137     -0.2864
    155  CB         2.5120    7.4970   12.3290 C.3   137  LYS137      0.0298
    156  CG         2.6450    8.3990   11.0790 C.3   137  LYS137      0.0038
    157  CD         1.3350    9.0310   10.5800 C.3   137  LYS137      0.0206
    158  CE         0.6490    9.9220   11.6120 C.3   137  LYS137      0.1093
    159  NZ        -0.6010   10.5290   11.0590 N.3   137  LYS137     -0.1314
    160  N          8.4210    6.6060   12.5070 N.3   140  GLY140     -0.1210
    161  CA         8.6700    6.1860   11.1150 C.3   140  GLY140      0.1956
    162  C          8.9550    7.3550   10.1670 C.2   140  GLY140      0.2611
    163  O          9.8640    7.2720    9.3190 O.2   140  GLY140     -0.2717
    164  N          8.2060    8.4510   10.3430 N.am  141  GLU141     -0.1979
    165  CA         8.3870    9.6660    9.5030 C.3   141  GLU141      0.1602
    166  C          9.7060   10.3010    9.7820 C.2   141  GLU141      0.2287
    167  O         10.3580   10.7810    8.8680 O.2   141  GLU141     -0.2864
    168  CB         7.3350   10.7500    9.7690 C.3   141  GLU141      0.0415
    169  CG         5.9010   10.2900    9.6150 C.3   141  GLU141      0.1163
    170  CD         5.5200   10.0020    8.1880 C.2   141  GLU141      0.3649
    171  OE1        6.1260   10.5900    7.2510 O.co2 141  GLU141     -0.2457
    172  OE2        4.5960    9.1720    8.0240 O.co2 141  GLU141     -0.2457
    173  N         12.3910    8.8130   10.8730 N.3   143  LEU143     -0.1231
    174  CA        13.3500    7.9130   10.2770 C.3   143  LEU143      0.1693
    175  C         13.3640    8.1620    8.7810 C.2   143  LEU143      0.2591
    176  O         14.4360    8.3900    8.2130 O.2   143  LEU143     -0.2718
    177  CB        12.9950    6.4490   10.5950 C.3   143  LEU143      0.0284
    178  CG        13.2120    6.0890   12.0750 C.3   143  LEU143      0.0019
    179  CD1       13.0260    4.5880   12.2940 C.3   143  LEU143      0.0001
    180  CD2       14.5610    6.5790   12.6400 C.3   143  LEU143      0.0001
    181  N         12.1870    8.1190    8.1380 N.am  144  LEU144     -0.1980
    182  CA        12.1220    8.2840    6.6630 C.3   144  LEU144      0.1596
    183  C         12.7460    9.6080    6.2090 C.2   144  LEU144      0.2287
    184  O         13.5550    9.6520    5.2710 O.2   144  LEU144     -0.2864
    185  CB        10.6670    8.1960    6.1540 C.3   144  LEU144      0.0297
    186  CG        10.4820    8.5750    4.6880 C.3   144  LEU144      0.0022
    187  CD1       11.2930    7.5440    3.8800 C.3   144  LEU144      0.0001
    188  CD2        8.9910    8.5790    4.3100 C.3   144  LEU144      0.0001
@<TRIPOS>BOND
     1   121   122    1
     2     4     3    2
     3   122   123    1
     4   122   125    1
     5   127   126    1
     6     3     2    1
     7   126   125    1
     8   126   128    1
     9   123   124    2
    10   116   115    2
    11    89    90    1
    12   115   114    1
    13     2     1    1
    14     2     5    1
    15     8     9    1
    16    23    24    1
    17    23    25    1
    18    23    20    1
    19    24    26    1
    20    12     9    1
    21    12    13    1
    22   187   186    1
    23    19    20    1
    24    19    10   am
    25    90    93    1
    26    90    91    1
    27   119   117    1
    28     9    10    1
    29     5     6    1
    30     5     7    1
    31   188   186    1
    32    93    94    1
    33   114   117    1
    34   114   113    1
    35    20    21    1
    36    21    22    2
    37   186   185    1
    38   129   130    1
    39   117   118    1
    40    10    11    2
    41    15    13   ar
    42    15    17   ar
    43    13    14   ar
    44    91    92    2
    45   184   183    2
    46    95    94   ar
    47    95    97   ar
    48    94    96   ar
    49   136   134    1
    50    17    18   ar
    51   130   131    1
    52   130   133    1
    53    14    16   ar
    54   185   182    1
    55   134   133    1
    56   183   182    1
    57   118   120    1
    58    97    99   ar
    59   131   132    2
    60   182   181    1
    61    96    98   ar
    62   133   135    1
    63    18    16   ar
    64    27    28    1
    65   171   170   ar
    66    87    86    1
    67    99    98   ar
    68    99   100    1
    69   172   170   ar
    70   181   175   am
    71    28    29    1
    72   170   169    1
    73   176   175    2
    74   175   174    1
    75    47    49   ar
    76    47    45   ar
    77   167   166    2
    78    49    48   ar
    79   101   102    1
    80    86    88    1
    81    86    83    1
    82   163   162    2
    83    29    31   am
    84    29    30    2
    85   165   168    1
    86   165   166    1
    87   165   164    1
    88    84    83    1
    89    84    85    2
    90   169   168    1
    91    31    32    1
    92    45    44   ar
    93   107   109   ar
    94   107   106   ar
    95    83    82    1
    96   109   111   ar
    97    48    46   ar
    98   162   164   am
    99   162   161    1
   100   137   138    1
   101   102   105    1
   102   102   103    1
   103   174   177    1
   104   174   173    1
   105    39    40    1
   106   105   106    1
   107   157   156    1
   108   157   158    1
   109   177   178    1
   110    64    65    1
   111    64    63    1
   112    35    32    1
   113    35    36    1
   114   106   108   ar
   115    32    33    1
   116    33    34    2
   117    44    46   ar
   118    44    43    1
   119    36    38   ar
   120    36    37   ar
   121   159   158    1
   122   156   155    1
   123   161   160    1
   124   143   142    2
   125    40    43    1
   126    40    41    1
   127   104   103    2
   128   111   112    1
   129   111   110   ar
   130   138   139    1
   131   138   141    1
   132   154   153    2
   133   142   144   am
   134   142   141    1
   135    63    62    1
   136   108   110   ar
   137   178   179    1
   138   178   180    1
   139   139   140    2
   140   155   152    1
   141    41    42    2
   142   152   153    1
   143   152   151    1
   144    62    61    1
   145   148   147    2
   146   151   147   am
   147    55    54    1
   148    56    54    1
   149   147   146    1
   150    61    58    1
   151    81    79   ar
   152    54    51    1
   153   150   149    1
   154    78    79    1
   155    78    75    1
   156    76    77    2
   157    76    75    1
   158    79    80   ar
   159    57    58    1
   160    53    52    2
   161    58    59    1
   162   149   146    1
   163    75    74    1
   164   146   145    1
   165    73    71    1
   166    71    70    1
   167    51    52    1
   168    51    50    1
   169    59    60    2
   170    72    70    1
   171    70    67    1
   172    67    66    1
   173    67    68    1
   174    68    69    2
