@<TRIPOS>MOLECULE
tmp/4a8hB00.pdb
 161 153 0 0 0
SMALL
GASTEIGER

@<TRIPOS>ATOM
      1  N         49.6240   26.8330   35.2740 N.3    51  SER51      -0.1202
      2  CA        50.5880   26.0220   34.5410 C.3    51  SER51       0.2020
      3  C         49.9400   25.3020   33.3710 C.2    51  SER51       0.2619
      4  O         48.7590   24.9750   33.4080 O.2    51  SER51      -0.2717
      5  CB        51.2030   24.9650   35.4680 C.3    51  SER51       0.2103
      6  OG        51.7610   25.5660   36.6270 O.3    51  SER51      -0.2182
      7  N         50.7380   25.0350   32.3460 N.am   52  SER52      -0.1937
      8  CA        50.2630   24.3460   31.1610 C.3    52  SER52       0.2055
      9  C         51.4420   23.8770   30.3180 C.2    52  SER52       0.2644
     10  O         52.4130   24.6310   30.1380 O.2    52  SER52      -0.2714
     11  CB        49.4010   25.2850   30.3260 C.3    52  SER52       0.2130
     12  OG        49.0620   24.6780   29.0980 O.3    52  SER52      -0.2179
     13  N         51.3250   22.6690   29.7770 N.am   53  THR53      -0.1936
     14  CA        52.2840   22.1670   28.8150 C.3    53  THR53       0.2028
     15  C         51.6470   22.0040   27.4280 C.2    53  THR53       0.2642
     16  O         52.0980   22.6060   26.4760 O.2    53  THR53      -0.2714
     17  CB        52.8970   20.8370   29.2710 C.3    53  THR53       0.1808
     18  OG1       53.7660   21.0740   30.3770 O.3    53  THR53      -0.2208
     19  CG2       53.6910   20.2160   28.1530 C.3    53  THR53       0.0379
     20  N         50.5780   21.2220   27.3360 N.am   54  ARG54      -0.1963
     21  CA        49.9040   20.9560   26.0650 C.3    54  ARG54       0.1729
     22  C         49.2260   22.1810   25.4740 C.2    54  ARG54       0.2616
     23  O         49.4010   22.4760   24.2870 O.2    54  ARG54      -0.2715
     24  CB        48.8840   19.8220   26.2190 C.3    54  ARG54       0.0348
     25  CG        49.4960   18.4310   26.2650 C.3    54  ARG54       0.0492
     26  CD        48.8790   17.5710   27.3630 C.3    54  ARG54       0.2205
     27  NE        49.3320   18.0420   28.6700 N.pl3  54  ARG54      -0.0865
     28  CZ        50.2430   17.4550   29.4400 C.cat  54  ARG54       0.5346
     29  NH1       50.8190   16.3170   29.0830 N.pl3  54  ARG54       0.1354
     30  NH2       50.5710   18.0240   30.5940 N.pl3  54  ARG54       0.1354
     31  N         48.4420   22.8900   26.2820 N.am   55  THR55      -0.1951
     32  CA        47.6580   24.0170   25.7640 C.3    55  THR55       0.1897
     33  C         48.5820   25.1280   25.3070 C.2    55  THR55       0.2313
     34  O         48.4610   25.6270   24.1820 O.2    55  THR55      -0.2863
     35  CB        46.6700   24.5580   26.8100 C.3    55  THR55       0.1794
     36  OG1       45.8780   23.4760   27.3080 O.3    55  THR55      -0.2208
     37  CG2       45.7540   25.6340   26.2170 C.3    55  THR55       0.0378
     38  N         44.1860   30.9930   29.8020 N.3   103  ARG103     -0.1245
     39  CA        43.8350   30.0220   30.8180 C.3   103  ARG103      0.1563
     40  C         43.6340   30.8280   32.0960 C.2   103  ARG103      0.2260
     41  O         44.5340   31.5780   32.5120 O.2   103  ARG103     -0.2867
     42  CB        44.9450   28.9930   31.0130 C.3   103  ARG103      0.0307
     43  CG        44.7680   28.1270   32.2410 C.3   103  ARG103      0.0489
     44  CD        45.6430   26.8990   32.1910 C.3   103  ARG103      0.2205
     45  NE        45.1640   25.9430   31.1970 N.pl3 103  ARG103     -0.0865
     46  CZ        45.5670   24.6820   31.0880 C.cat 103  ARG103      0.5346
     47  NH1       46.4740   24.1840   31.9170 N.pl3 103  ARG103      0.1354
     48  NH2       45.0400   23.9130   30.1370 N.pl3 103  ARG103      0.1354
     49  N         41.0490   27.0490   29.0980 N.3   125  MET125     -0.1245
     50  CA        40.6190   26.3700   30.3210 C.3   125  MET125      0.1570
     51  C         40.2520   27.3350   31.4500 C.2   125  MET125      0.2261
     52  O         40.9320   28.3150   31.6980 O.2   125  MET125     -0.2867
     53  CB        41.6240   25.3290   30.8220 C.3   125  MET125      0.0387
     54  CG        41.1000   24.5450   32.0320 C.3   125  MET125      0.0595
     55  SD        41.9760   23.0420   32.4700 S.3   125  MET125     -0.1393
     56  CE        42.7880   23.5180   33.9720 C.3   125  MET125      0.0692
     57  N         36.4790   23.5160   29.3930 N.3   130  HIS130     -0.1241
     58  CA        37.7570   23.3630   28.6800 C.3   130  HIS130      0.1621
     59  C         37.4820   23.0560   27.2010 C.2   130  HIS130      0.2264
     60  O         37.6700   21.9330   26.7370 O.2   130  HIS130     -0.2867
     61  CB        38.5770   22.2440   29.3330 C.3   130  HIS130      0.0745
     62  CG        40.0450   22.3010   29.0430 C.ar  130  HIS130      0.0817
     63  ND1       40.5980   23.1780   28.1350 N.ar  130  HIS130     -0.2268
     64  CD2       41.0690   21.5500   29.5160 C.ar  130  HIS130      0.1154
     65  CE1       41.9040   22.9770   28.0790 C.ar  130  HIS130      0.1986
     66  NE2       42.2140   21.9920   28.9040 N.ar  130  HIS130     -0.2212
     67  N         39.9440   21.4210   24.6590 N.3   133  GLN133     -0.1245
     68  CA        40.0920   20.0080   24.9990 C.3   133  GLN133      0.1566
     69  C         38.9640   19.1930   24.3580 C.2   133  GLN133      0.2260
     70  O         39.1830   18.0800   23.8900 O.2   133  GLN133     -0.2867
     71  CB        40.1040   19.8190   26.5280 C.3   133  GLN133      0.0367
     72  CG        40.3680   18.3960   27.0000 C.3   133  GLN133      0.0905
     73  CD        41.8170   17.9680   26.8770 C.2   133  GLN133      0.2608
     74  OE1       42.1180   16.9220   26.3000 O.2   133  GLN133     -0.2717
     75  NE2       42.7200   18.7620   27.4290 N.am  133  GLN133     -0.0878
     76  N         35.4130   17.2900   37.2440 N.3   163  THR163     -0.1203
     77  CA        36.2890   18.4030   36.8840 C.3   163  THR163      0.1994
     78  C         35.7140   19.1430   35.6990 C.2   163  THR163      0.2618
     79  O         34.7420   18.7020   35.0880 O.2   163  THR163     -0.2717
     80  CB        37.6910   17.9330   36.5240 C.3   163  THR163      0.1784
     81  OG1       37.6490   17.2180   35.2810 O.3   163  THR163     -0.2211
     82  CG2       38.2480   17.0370   37.6300 C.3   163  THR163      0.0376
     83  N         36.3190   20.2810   35.3790 N.am  164  GLN164     -0.1965
     84  CA        35.9340   21.0420   34.1960 C.3   164  GLN164      0.1733
     85  C         36.0980   20.2120   32.9260 C.2   164  GLN164      0.2616
     86  O         35.3450   20.3940   31.9730 O.2   164  GLN164     -0.2715
     87  CB        36.7030   22.3690   34.1010 C.3   164  GLN164      0.0408
     88  CG        38.1740   22.2680   33.6960 C.3   164  GLN164      0.0908
     89  CD        39.0890   21.9240   34.8630 C.2   164  GLN164      0.2608
     90  OE1       39.4670   22.7420   35.6270 O.2   164  GLN164     -0.2717
     91  NE2       39.4260   20.7190   34.9860 N.am  164  GLN164     -0.0878
     92  N         37.0640   19.2960   32.9160 N.am  165  VAL165     -0.1977
     93  CA        37.2390   18.3800   31.7840 C.3   165  VAL165      0.1596
     94  C         36.1090   17.3530   31.7330 C.2   165  VAL165      0.2287
     95  O         35.5650   17.0730   30.6590 O.2   165  VAL165     -0.2864
     96  CB        38.6130   17.6780   31.8160 C.3   165  VAL165      0.0276
     97  CG1       38.6530   16.5530   30.8050 C.3   165  VAL165      0.0022
     98  CG2       39.7270   18.7050   31.5410 C.3   165  VAL165      0.0022
     99  N         40.7190   11.7850   34.7430 N.3   227  ASP227     -0.1225
    100  CA        41.4180   13.0330   35.0620 C.3   227  ASP227      0.1805
    101  C         41.9320   12.9010   36.4930 C.2   227  ASP227      0.2597
    102  O         41.5460   11.9740   37.2280 O.2   227  ASP227     -0.2718
    103  CB        40.4460   14.2240   34.9500 C.3   227  ASP227      0.1424
    104  CG        41.1340   15.5920   34.9420 C.2   227  ASP227      0.3668
    105  OD1       42.3810   15.6850   34.9970 O.co2 227  ASP227     -0.2456
    106  OD2       40.3940   16.6000   34.8730 O.co2 227  ASP227     -0.2456
    107  N         42.7930   13.8330   36.8900 N.am  228  VAL228     -0.1980
    108  CA        43.3630   13.8460   38.2390 C.3   228  VAL228      0.1595
    109  C         42.3010   14.0600   39.3100 C.2   228  VAL228      0.2287
    110  O         41.1840   14.4700   39.0170 O.2   228  VAL228     -0.2864
    111  CB        44.4210   14.9510   38.3900 C.3   228  VAL228      0.0276
    112  CG1       45.5560   14.7310   37.4040 C.3   228  VAL228      0.0022
    113  CG2       43.7780   16.3330   38.2050 C.3   228  VAL228      0.0022
    114  N         41.7490   18.2830   42.1490 N.3   231  GLY231     -0.1225
    115  CA        40.8260   19.4210   42.0510 C.3   231  GLY231      0.1811
    116  C         41.3730   20.6860   41.3940 C.2   231  GLY231      0.2280
    117  O         42.0780   20.6270   40.3820 O.2   231  GLY231     -0.2866
    118  N         43.6420   24.0890   41.0200 N.3   233  TYR233     -0.1241
    119  CA        45.0730   24.3080   41.2710 C.3   233  TYR233      0.1605
    120  C         45.3570   25.2550   42.4510 C.2   233  TYR233      0.2264
    121  O         46.3030   25.0400   43.2070 O.2   233  TYR233     -0.2867
    122  CB        45.7890   24.8080   39.9970 C.3   233  TYR233      0.0534
    123  CG        45.8920   23.8160   38.8280 C.ar  233  TYR233     -0.0201
    124  CD1       45.4490   22.5010   38.9310 C.ar  233  TYR233     -0.0009
    125  CD2       46.4360   24.2140   37.6070 C.ar  233  TYR233     -0.0009
    126  CE1       45.5590   21.6050   37.8520 C.ar  233  TYR233      0.0417
    127  CE2       46.5500   23.3250   36.5250 C.ar  233  TYR233      0.0417
    128  CZ        46.1080   22.0200   36.6610 C.ar  233  TYR233      0.1957
    129  OH        46.2060   21.1350   35.6080 O.3   233  TYR233     -0.2866
    130  N         43.0630   13.7300   29.6800 N.3   269  CYS269     -0.1221
    131  CA        43.5100   15.0430   29.2130 C.3   269  CYS269      0.1808
    132  C         45.0030   15.2930   29.4870 C.2   269  CYS269      0.2601
    133  O         45.6600   16.0270   28.7510 O.2   269  CYS269     -0.2717
    134  CB        42.6630   16.1350   29.8510 C.3   269  CYS269      0.0970
    135  SG        42.6530   16.0720   31.6350 S.3   269  CYS269     -0.0800
    136  N         45.5280   14.6510   30.5310 N.am  270  LEU270     -0.1966
    137  CA        46.8820   14.8790   31.0360 C.3   270  LEU270      0.1713
    138  C         46.9410   16.2900   31.6440 C.2   270  LEU270      0.2458
    139  O         46.0890   17.1240   31.3540 O.2   270  LEU270     -0.2730
    140  CB        47.9460   14.6650   29.9350 C.3   270  LEU270      0.0310
    141  CG        47.9050   13.3180   29.1870 C.3   270  LEU270      0.0022
    142  CD1       48.9670   13.2280   28.0880 C.3   270  LEU270      0.0001
    143  CD2       48.0510   12.1330   30.1700 C.3   270  LEU270      0.0001
    144  N         47.9020   16.5490   32.5360 N.am  271  PRO271     -0.2727
    145  CA        48.8830   15.6220   33.0860 C.3   271  PRO271      0.1402
    146  C         48.2320   14.5940   34.0090 C.2   271  PRO271      0.2269
    147  O         47.2020   14.8710   34.6320 O.2   271  PRO271     -0.2865
    148  CB        49.8050   16.5340   33.8860 C.3   271  PRO271      0.0296
    149  CG        48.9200   17.6250   34.3470 C.3   271  PRO271      0.0237
    150  CD        47.9650   17.8610   33.2000 C.3   271  PRO271      0.0939
    151  N         45.5130   18.1100   20.7940 N.3   297  ARG297     -0.1245
    152  CA        45.3730   19.4390   21.3640 C.3   297  ARG297      0.1563
    153  C         45.9210   20.4600   20.3500 C.2   297  ARG297      0.2260
    154  O         45.3320   21.5370   20.1380 O.2   297  ARG297     -0.2867
    155  CB        46.1200   19.5440   22.6890 C.3   297  ARG297      0.0307
    156  CG        45.5790   18.6250   23.7760 C.3   297  ARG297      0.0489
    157  CD        44.1420   18.9670   24.1420 C.3   297  ARG297      0.2205
    158  NE        43.9460   20.4120   24.3110 N.pl3 297  ARG297     -0.0865
    159  CZ        44.3770   21.1280   25.3480 C.cat 297  ARG297      0.5346
    160  NH1       45.0400   20.5580   26.3510 N.pl3 297  ARG297      0.1354
    161  NH2       44.1480   22.4340   25.3810 N.pl3 297  ARG297      0.1354
@<TRIPOS>BOND
     1   154   153    2
     2   153   152    1
     3   151   152    1
     4   152   155    1
     5   155   156    1
     6   156   157    1
     7    70    69    2
     8   157   158    1
     9    34    33    2
    10    23    22    2
    11   158   159    2
    12    69    68    1
    13    67    68    1
    14    68    71    1
    15    33    32    1
    16   159   161    1
    17   159   160    1
    18    22    21    1
    19    22    31   am
    20    32    31    1
    21    32    35    1
    22    21    24    1
    23    21    20    1
    24    37    35    1
    25    24    25    1
    26    25    26    1
    27    74    73    2
    28    16    15    2
    29    71    72    1
    30    60    59    2
    31    35    36    1
    32    73    72    1
    33    73    75   am
    34    59    58    1
    35    20    15   am
    36    26    27    1
    37    15    14    1
    38    65    63   ar
    39    65    66   ar
    40   142   141    1
    41    63    62   ar
    42    19    17    1
    43    27    28    2
    44    58    61    1
    45    58    57    1
    46   133   132    2
    47    14    17    1
    48    14    13    1
    49    66    64   ar
    50    62    61    1
    51    62    64   ar
    52    29    28    1
    53    12    11    1
    54    49    50    1
    55   141   140    1
    56   141   143    1
    57   131   132    1
    58   131   130    1
    59   131   134    1
    60    17    18    1
    61    28    30    1
    62   132   136   am
    63    13     9   am
    64    38    39    1
    65   134   135    1
    66   140   137    1
    67    48    46    1
    68    10     9    2
    69     9     8    1
    70    50    53    1
    71    50    51    1
    72    11     8    1
    73   136   137    1
    74    95    94    2
    75    97    96    1
    76    39    42    1
    77    39    40    1
    78    53    54    1
    79    42    43    1
    80   137   138    1
    81    46    45    2
    82    46    47    1
    83     8     7    1
    84    45    44    1
    85   139   138    2
    86    51    52    2
    87    98    96    1
    88   138   144   am
    89    94    93    1
    90    93    96    1
    91    93    92    1
    92    86    85    2
    93    54    55    1
    94    40    41    2
    95    44    43    1
    96     7     3   am
    97    55    56    1
    98   144   145    1
    99   144   150    1
   100    92    85   am
   101    85    84    1
   102   145   148    1
   103   145   146    1
   104   150   149    1
   105     3     4    2
   106     3     2    1
   107    88    87    1
   108    88    89    1
   109   148   149    1
   110   146   147    2
   111    87    84    1
   112    84    83    1
   113     2     1    1
   114     2     5    1
   115    99   100    1
   116    89    91   am
   117    89    90    2
   118   106   104   ar
   119   104   103    1
   120   104   105   ar
   121   103   100    1
   122   100   101    1
   123    79    78    2
   124    81    80    1
   125    83    78   am
   126     5     6    1
   127   129   128    1
   128    78    77    1
   129   101   107   am
   130   101   102    2
   131    80    77    1
   132    80    82    1
   133   127   128   ar
   134   127   125   ar
   135   128   126   ar
   136    77    76    1
   137   107   108    1
   138   112   111    1
   139   125   123   ar
   140   126   124   ar
   141   113   111    1
   142   108   111    1
   143   108   109    1
   144   123   124   ar
   145   123   122    1
   146   110   109    2
   147   122   119    1
   148   117   116    2
   149   118   119    1
   150   119   120    1
   151   116   115    1
   152   115   114    1
   153   120   121    2
