@<TRIPOS>MOLECULE
tmp/4a8uA00.pdb
 122 111 0 0 0
SMALL
GASTEIGER

@<TRIPOS>ATOM
      1  N         19.7840    3.8920   10.3360 N.3    30  PHE30      -0.1241
      2  CA        18.9470    4.5910   11.3090 C.3    30  PHE30       0.1605
      3  C         19.7370    5.2280   12.4560 C.2    30  PHE30       0.2264
      4  O         19.5230    6.3960   12.7650 O.2    30  PHE30      -0.2867
      5  CB        17.8120    3.7350   11.8650 C.3    30  PHE30       0.0534
      6  CG        16.7500    3.3540   10.8720 C.ar   30  PHE30      -0.0203
      7  CD1       16.5470    4.0240    9.6890 C.ar   30  PHE30      -0.0042
      8  CD2       15.8590    2.3580   11.2030 C.ar   30  PHE30      -0.0042
      9  CE1       15.5560    3.6470    8.8120 C.ar   30  PHE30      -0.0003
     10  CE2       14.8400    1.9960   10.3420 C.ar   30  PHE30      -0.0003
     11  CZ        14.7190    2.6030    9.1210 C.ar   30  PHE30      -0.0000
     12  N         16.9590    6.7890   17.3310 N.3    38  ILE38      -0.1245
     13  CA        17.4370    5.4240   17.4590 C.3    38  ILE38       0.1561
     14  C         18.8650    5.4370   17.9460 C.2    38  ILE38       0.2260
     15  O         19.7330    5.9670   17.2420 O.2    38  ILE38      -0.2867
     16  CB        17.4710    4.7570   16.0890 C.3    38  ILE38       0.0252
     17  CG1       16.1030    4.8520   15.4450 C.3    38  ILE38       0.0019
     18  CG2       17.9080    3.3090   16.2300 C.3    38  ILE38       0.0019
     19  CD1       15.0580    4.0120   16.1290 C.3    38  ILE38       0.0001
     20  N         16.3990   -2.8990   18.6760 N.3    56  ILE56      -0.1245
     21  CA        16.4520   -1.4880   18.3850 C.3    56  ILE56       0.1561
     22  C         16.3100   -0.7560   19.7130 C.2    56  ILE56       0.2260
     23  O         15.2880   -0.8770   20.3870 O.2    56  ILE56      -0.2867
     24  CB        15.3100   -1.0760   17.4370 C.3    56  ILE56       0.0252
     25  CG1       15.4640   -1.7480   16.0580 C.3    56  ILE56       0.0019
     26  CG2       15.3470    0.4280   17.2380 C.3    56  ILE56       0.0019
     27  CD1       14.8620   -3.1270   15.9500 C.3    56  ILE56       0.0001
     28  N         16.2580    2.7770   21.9630 N.3    58  PHE58      -0.1241
     29  CA        15.8840    4.1700   21.8620 C.3    58  PHE58       0.1605
     30  C         16.7470    5.0110   22.7820 C.2    58  PHE58       0.2264
     31  O         17.2540    4.5350   23.7970 O.2    58  PHE58      -0.2867
     32  CB        14.3920    4.3620   22.2030 C.3    58  PHE58       0.0534
     33  CG        13.4860    3.5500   21.3220 C.ar   58  PHE58      -0.0203
     34  CD1       13.4190    3.7970   19.9660 C.ar   58  PHE58      -0.0042
     35  CD2       12.7830    2.4780   21.8360 C.ar   58  PHE58      -0.0042
     36  CE1       12.6250    3.0270   19.1370 C.ar   58  PHE58      -0.0003
     37  CE2       11.9850    1.7040   21.0200 C.ar   58  PHE58      -0.0003
     38  CZ        11.9180    1.9580   19.6600 C.ar   58  PHE58      -0.0000
     39  N         12.8520   -2.1020   21.3870 N.3    67  VAL67      -0.1245
     40  CA        12.0140   -3.1820   20.8590 C.3    67  VAL67       0.1561
     41  C         12.8950   -4.1980   20.1680 C.2    67  VAL67       0.2260
     42  O         14.0120   -3.8950   19.7240 O.2    67  VAL67      -0.2867
     43  CB        10.9300   -2.7000   19.8520 C.3    67  VAL67       0.0252
     44  CG1        9.8800   -1.8790   20.5840 C.3    67  VAL67       0.0019
     45  CG2       11.5330   -1.9650   18.6600 C.3    67  VAL67       0.0019
     46  N         12.5720   -6.4270   16.8290 N.3    69  ASP69      -0.1239
     47  CA        11.8490   -6.5790   15.5720 C.3    69  ASP69       0.1674
     48  C         12.3380   -7.8480   14.8930 C.2    69  ASP69       0.2266
     49  O         13.5310   -8.1070   14.8320 O.2    69  ASP69      -0.2867
     50  CB        12.0650   -5.3690   14.6570 C.3    69  ASP69       0.1410
     51  CG        11.3530   -4.1080   15.1540 C.2    69  ASP69       0.3668
     52  OD1       10.5720   -4.1590   16.1250 O.co2  69  ASP69      -0.2456
     53  OD2       11.6180   -3.0600   14.5240 O.co2  69  ASP69      -0.2456
     54  N          7.6140   -7.0670    8.8800 N.3    83  TYR83      -0.1241
     55  CA         8.3490   -7.3000   10.1040 C.3    83  TYR83       0.1605
     56  C          7.4170   -7.1730   11.2840 C.2    83  TYR83       0.2264
     57  O          6.3910   -6.5110   11.1680 O.2    83  TYR83      -0.2867
     58  CB         9.5430   -6.3350   10.2390 C.3    83  TYR83       0.0534
     59  CG         9.1700   -4.9220   10.5500 C.ar   83  TYR83      -0.0201
     60  CD1        8.7590   -4.0550    9.5430 C.ar   83  TYR83      -0.0009
     61  CD2        9.2030   -4.4410   11.8620 C.ar   83  TYR83      -0.0009
     62  CE1        8.4120   -2.7400    9.8170 C.ar   83  TYR83       0.0417
     63  CE2        8.8480   -3.1350   12.1600 C.ar   83  TYR83       0.0417
     64  CZ         8.4640   -2.2840   11.1200 C.ar   83  TYR83       0.1957
     65  OH         8.1000   -0.9670   11.3890 O.3    83  TYR83      -0.2866
     66  N          7.0930   -6.4230   15.6140 N.3    85  VAL85      -0.1245
     67  CA         7.6050   -6.0500   16.9140 C.3    85  VAL85       0.1561
     68  C          7.1780   -7.1690   17.8610 C.2    85  VAL85       0.2260
     69  O          5.9800   -7.3840   18.0650 O.2    85  VAL85      -0.2867
     70  CB         7.0220   -4.6940   17.3690 C.3    85  VAL85       0.0252
     71  CG1        7.5620   -4.3380   18.7420 C.3    85  VAL85       0.0019
     72  CG2        7.2650   -3.5850   16.3360 C.3    85  VAL85       0.0019
     73  N          3.1950   -6.6080   17.2090 N.3    98  ILE98      -0.1245
     74  CA         2.7030   -5.6870   16.1930 C.3    98  ILE98       0.1561
     75  C          3.2480   -6.1860   14.8490 C.2    98  ILE98       0.2260
     76  O          4.4600   -6.2430   14.6850 O.2    98  ILE98      -0.2867
     77  CB         3.1440   -4.2270   16.4030 C.3    98  ILE98       0.0252
     78  CG1        2.8910   -3.7810   17.8410 C.3    98  ILE98       0.0019
     79  CG2        2.4640   -3.3410   15.3920 C.3    98  ILE98       0.0019
     80  CD1        3.5630   -2.4670   18.1750 C.3    98  ILE98       0.0001
     81  N          3.7310   -5.6760   10.8590 N.3   100  ASN100     -0.1240
     82  CA         3.8130   -4.5400    9.9570 C.3   100  ASN100      0.1653
     83  C          4.1020   -4.9700    8.5550 C.2   100  ASN100      0.2266
     84  O          4.8360   -5.9550    8.3360 O.2   100  ASN100     -0.2867
     85  CB         4.9190   -3.6050   10.4360 C.3   100  ASN100      0.1155
     86  CG         4.7420   -3.2450   11.8750 C.2   100  ASN100      0.2627
     87  OD1        3.8030   -2.5410   12.2200 O.2   100  ASN100     -0.2716
     88  ND2        5.6090   -3.7430   12.7320 N.am  100  ASN100     -0.0877
     89  N         -0.1410   -1.6090    9.9160 N.3   118  ASN118     -0.1240
     90  CA         0.2530   -2.0640   11.2530 C.3   118  ASN118      0.1653
     91  C         -0.9230   -2.8340   11.8340 C.2   118  ASN118      0.2266
     92  O         -2.0430   -2.3080   11.8420 O.2   118  ASN118     -0.2867
     93  CB         0.5880   -0.8910   12.1850 C.3   118  ASN118      0.1155
     94  CG         1.5650    0.1370   11.5800 C.2   118  ASN118      0.2627
     95  OD1        1.2440    1.3450   11.4740 O.2   118  ASN118     -0.2716
     96  ND2        2.7270   -0.3140   11.1480 N.am  118  ASN118     -0.0877
     97  N          3.8210    5.8060   16.6670 N.3   136  SER136     -0.1217
     98  CA         4.3820    4.9390   15.6400 C.3   136  SER136      0.1889
     99  C          4.5500    5.6860   14.3130 C.2   136  SER136      0.2288
    100  O          5.5910    5.6200   13.6680 O.2   136  SER136     -0.2866
    101  CB         3.4890    3.7030   15.4680 C.3   136  SER136      0.2089
    102  OG         3.9620    2.8660   14.4280 O.3   136  SER136     -0.2183
    103  N          7.3560    8.3160   14.5570 N.3   139  MET139     -0.1230
    104  CA         8.6680    7.6760   14.4700 C.3   139  MET139      0.1702
    105  C          8.9750    7.2850   13.0200 C.2   139  MET139      0.2592
    106  O         10.0690    7.5470   12.5090 O.2   139  MET139     -0.2718
    107  CB         8.7380    6.4410   15.3840 C.3   139  MET139      0.0401
    108  CG        10.0140    5.6010   15.2700 C.3   139  MET139      0.0596
    109  SD        11.5690    6.4640   15.6790 S.3   139  MET139     -0.1393
    110  CE        11.5090    6.4920   17.4650 C.3   139  MET139      0.0692
    111  N          8.0210    6.6500   12.3540 N.am  140  GLY140     -0.1957
    112  CA         8.2380    6.2750   10.9660 C.3   140  GLY140      0.1869
    113  C          8.5580    7.4650   10.0810 C.2   140  GLY140      0.2309
    114  O          9.4420    7.3950    9.2130 O.2   140  GLY140     -0.2863
    115  N         12.1140    8.8040   10.7510 N.3   143  LEU143     -0.1245
    116  CA        13.1090    7.9450   10.1360 C.3   143  LEU143      0.1561
    117  C         13.1320    8.1230    8.6130 C.2   143  LEU143      0.2260
    118  O         14.2070    8.2000    8.0050 O.2   143  LEU143     -0.2867
    119  CB        12.8580    6.4930   10.5190 C.3   143  LEU143      0.0270
    120  CG        13.0330    6.1680   11.9970 C.3   143  LEU143      0.0019
    121  CD1       12.6130    4.7290   12.2330 C.3   143  LEU143      0.0001
    122  CD2       14.4530    6.3930   12.4660 C.3   143  LEU143      0.0001
@<TRIPOS>BOND
     1   118   117    2
     2    84    83    2
     3    83    82    1
     4   117   116    1
     5     9    11   ar
     6     9     7   ar
     7    54    55    1
     8    11    10   ar
     9   114   113    2
    10    60    62   ar
    11    60    59   ar
    12     7     6   ar
    13    62    64   ar
    14    89    90    1
    15    82    85    1
    16    82    81    1
    17   113   112    1
    18    55    58    1
    19    55    56    1
    20   116   119    1
    21   116   115    1
    22    58    59    1
    23     1     2    1
    24    10     8   ar
    25    85    86    1
    26   119   120    1
    27    59    61   ar
    28     6     8   ar
    29     6     5    1
    30   112   111    1
    31    64    65    1
    32    64    63   ar
    33    96    94   am
    34    57    56    2
    35    90    91    1
    36    90    93    1
    37     2     5    1
    38     2     3    1
    39    95    94    2
    40    94    93    1
    41    91    92    2
    42    61    63   ar
    43    86    87    2
    44    86    88   am
    45   120   121    1
    46   120   122    1
    47   111   105   am
    48     3     4    2
    49   106   105    2
    50   105   104    1
    51   100    99    2
    52    99    98    1
    53   102   101    1
    54   104   103    1
    55   104   107    1
    56    53    51   ar
    57    50    51    1
    58    50    47    1
    59    76    75    2
    60    49    48    2
    61    75    74    1
    62    48    47    1
    63    51    52   ar
    64   108   107    1
    65   108   109    1
    66    79    77    1
    67    17    16    1
    68    17    19    1
    69   101    98    1
    70    47    46    1
    71    66    67    1
    72    98    97    1
    73   109   110    1
    74    27    25    1
    75    25    24    1
    76    16    18    1
    77    16    13    1
    78    74    77    1
    79    74    73    1
    80    72    70    1
    81    77    78    1
    82    67    70    1
    83    67    68    1
    84    26    24    1
    85    15    14    2
    86    12    13    1
    87    70    71    1
    88    24    21    1
    89    13    14    1
    90    78    80    1
    91    68    69    2
    92    21    20    1
    93    21    22    1
    94    45    43    1
    95    36    38   ar
    96    36    34   ar
    97    38    37   ar
    98    22    23    2
    99    42    41    2
   100    43    44    1
   101    43    40    1
   102    34    33   ar
   103    41    40    1
   104    40    39    1
   105    37    35   ar
   106    33    35   ar
   107    33    32    1
   108    29    28    1
   109    29    32    1
   110    29    30    1
   111    30    31    2
