@<TRIPOS>MOLECULE
tmp/4a8wA00.pdb
 201 186 0 0 0
SMALL
GASTEIGER

@<TRIPOS>ATOM
      1  N         12.1090   -6.6700   55.2310 N.3    23  LYS23      -0.1245
      2  CA        11.9830   -6.0630   53.9090 C.3    23  LYS23       0.1561
      3  C         10.5350   -5.9900   53.4070 C.2    23  LYS23       0.2260
      4  O         10.1120   -4.9350   52.9090 O.2    23  LYS23      -0.2867
      5  CB        12.8530   -6.8160   52.8960 C.3    23  LYS23       0.0271
      6  CG        14.3370   -6.6760   53.1430 C.3    23  LYS23       0.0035
      7  CD        14.9820   -5.7150   52.1460 C.3    23  LYS23       0.0206
      8  CE        15.0930   -6.2690   50.7480 C.3    23  LYS23       0.1093
      9  NZ        16.2260   -7.2230   50.6070 N.3    23  LYS23      -0.1314
     10  N          8.5310   -3.5580   55.6650 N.3    26  GLN26      -0.1231
     11  CA         8.8940   -2.1740   55.3160 C.3    26  GLN26       0.1698
     12  C          8.2170   -1.7560   54.0140 C.2    26  GLN26       0.2592
     13  O          7.7700   -0.6120   53.9260 O.2    26  GLN26      -0.2718
     14  CB        10.4180   -1.9920   55.1860 C.3    26  GLN26       0.0381
     15  CG        11.1420   -1.8880   56.5280 C.3    26  GLN26       0.0905
     16  CD        12.6580   -1.8770   56.4460 C.2    26  GLN26       0.2608
     17  OE1       13.3400   -1.3950   57.3510 O.2    26  GLN26      -0.2717
     18  NE2       13.2320   -2.4440   55.3950 N.am   26  GLN26      -0.0878
     19  N          8.1430   -2.6710   53.0090 N.am   27  ALA27      -0.1980
     20  CA         7.5300   -2.3610   51.7190 C.3    27  ALA27       0.1597
     21  C          6.0510   -2.0620   51.8720 C.2    27  ALA27       0.2287
     22  O          5.5490   -1.1210   51.2660 O.2    27  ALA27      -0.2864
     23  CB         7.7390   -3.5030   50.7470 C.3    27  ALA27       0.0319
     24  N          5.9340    1.4870   53.8120 N.3    30  ARG30      -0.1245
     25  CA         6.7230    2.6130   53.2890 C.3    30  ARG30       0.1563
     26  C          5.8750    3.8450   52.9970 C.2    30  ARG30       0.2260
     27  O          4.9430    3.7890   52.1910 O.2    30  ARG30      -0.2867
     28  CB         7.5940    2.2020   52.0790 C.3    30  ARG30       0.0307
     29  CG         8.6190    3.2560   51.6360 C.3    30  ARG30       0.0489
     30  CD        10.0250    2.6820   51.5850 C.3    30  ARG30       0.2205
     31  NE        10.6650    2.7320   52.9040 N.pl3  30  ARG30      -0.0865
     32  CZ        11.4780    1.7990   53.3970 C.cat  30  ARG30       0.5346
     33  NH1       11.7690    0.7150   52.6840 N.pl3  30  ARG30       0.1354
     34  NH2       12.0000    1.9390   54.6090 N.pl3  30  ARG30       0.1354
     35  N         17.3810  -10.1740   36.3490 N.3   146  ARG146     -0.1245
     36  CA        18.1870   -8.9750   36.5800 C.3   146  ARG146      0.1563
     37  C         18.7680   -8.9900   37.9980 C.2   146  ARG146      0.2260
     38  O         18.0360   -9.2160   38.9570 O.2   146  ARG146     -0.2867
     39  CB        17.3690   -7.6930   36.3100 C.3   146  ARG146      0.0307
     40  CG        18.0890   -6.3630   36.6220 C.3   146  ARG146      0.0489
     41  CD        19.1530   -5.9050   35.6140 C.3   146  ARG146      0.2205
     42  NE        19.7400   -4.6310   36.0500 N.pl3 146  ARG146     -0.0865
     43  CZ        20.8930   -4.5070   36.7070 C.cat 146  ARG146      0.5346
     44  NH1       21.6370   -5.5750   36.9680 N.pl3 146  ARG146      0.1354
     45  NH2       21.3120   -3.3140   37.1030 N.pl3 146  ARG146      0.1354
     46  N         19.9360   -7.8640   41.5440 N.3   148  GLY148     -0.1210
     47  CA        19.4270   -6.8390   42.4480 C.3   148  GLY148      0.1956
     48  C         17.9550   -6.4800   42.3220 C.2   148  GLY148      0.2613
     49  O         17.4650   -5.6720   43.1220 O.2   148  GLY148     -0.2717
     50  N         17.2340   -7.0790   41.3390 N.am  149  SER149     -0.1938
     51  CA        15.7910   -6.8770   41.1580 C.3   149  SER149      0.2055
     52  C         15.0530   -7.5290   42.3400 C.2   149  SER149      0.2643
     53  O         15.5820   -8.4570   42.9620 O.2   149  SER149     -0.2714
     54  CB        15.3200   -7.4800   39.8360 C.3   149  SER149      0.2130
     55  OG        15.4740   -8.8910   39.8130 O.3   149  SER149     -0.2179
     56  N         13.8550   -7.0270   42.6700 N.am  150  SER150     -0.1949
     57  CA        13.0590   -7.5550   43.7820 C.3   150  SER150      0.1924
     58  C         12.1690   -8.7190   43.3510 C.2   150  SER150      0.2314
     59  O         11.7720   -8.8060   42.1870 O.2   150  SER150     -0.2863
     60  CB        12.1890   -6.4500   44.3710 C.3   150  SER150      0.2116
     61  OG        11.5050   -6.8840   45.5340 O.3   150  SER150     -0.2180
     62  N          9.3800   -8.9410   44.8820 N.3   152  CYS152     -0.1235
     63  CA         8.1310   -8.2820   45.2720 C.3   152  CYS152      0.1677
     64  C          7.2370   -9.1980   46.1140 C.2   152  CYS152      0.2270
     65  O          7.7750   -9.9370   46.9460 O.2   152  CYS152     -0.2867
     66  CB         7.4170   -7.6970   44.0600 C.3   152  CYS152      0.0956
     67  SG         8.4300   -6.5230   43.1250 S.3   152  CYS152     -0.0801
     68  N          9.8380   -9.8990   48.8690 N.3   156  PHE156     -0.1241
     69  CA        10.6060   -8.6600   48.6750 C.3   156  PHE156      0.1605
     70  C         12.1050   -8.9080   48.8500 C.2   156  PHE156      0.2264
     71  O         12.7930   -8.1260   49.5000 O.2   156  PHE156     -0.2867
     72  CB        10.0830   -7.5180   49.5860 C.3   156  PHE156      0.0534
     73  CG         8.7460   -6.9990   49.1240 C.ar  156  PHE156     -0.0203
     74  CD1        7.5680   -7.6170   49.5200 C.ar  156  PHE156     -0.0042
     75  CD2        8.6670   -5.9320   48.2480 C.ar  156  PHE156     -0.0042
     76  CE1        6.3370   -7.1650   49.0590 C.ar  156  PHE156     -0.0003
     77  CE2        7.4380   -5.4780   47.7910 C.ar  156  PHE156     -0.0003
     78  CZ         6.2800   -6.0930   48.2000 C.ar  156  PHE156     -0.0000
     79  N         15.9930   -9.3830   47.3810 N.3   158  ASN158     -0.1240
     80  CA        16.8640   -8.8330   46.3280 C.3   158  ASN158      0.1653
     81  C         18.0840   -9.7490   46.1380 C.2   158  ASN158      0.2266
     82  O         18.9720   -9.4340   45.3590 O.2   158  ASN158     -0.2867
     83  CB        17.3170   -7.4120   46.6880 C.3   158  ASN158      0.1155
     84  CG        16.1990   -6.4020   46.6640 C.2   158  ASN158      0.2627
     85  OD1       15.5380   -6.1430   47.6720 O.2   158  ASN158     -0.2716
     86  ND2       15.9520   -5.8180   45.5080 N.am  158  ASN158     -0.0877
     87  N          2.7550   -4.7620   43.0900 N.3   200  TYR200     -0.1241
     88  CA         3.1400   -3.7880   44.1070 C.3   200  TYR200      0.1605
     89  C          3.4520   -2.5030   43.3810 C.2   200  TYR200      0.2264
     90  O          4.3350   -2.4820   42.5220 O.2   200  TYR200     -0.2867
     91  CB         4.3350   -4.3230   44.9150 C.3   200  TYR200      0.0534
     92  CG         4.8730   -3.3580   45.9440 C.ar  200  TYR200     -0.0201
     93  CD1        4.2950   -3.2600   47.2040 C.ar  200  TYR200     -0.0009
     94  CD2        5.9620   -2.5410   45.6580 C.ar  200  TYR200     -0.0009
     95  CE1        4.7690   -2.3490   48.1430 C.ar  200  TYR200      0.0417
     96  CE2        6.4590   -1.6450   46.5970 C.ar  200  TYR200      0.0417
     97  CZ         5.8620   -1.5540   47.8390 C.ar  200  TYR200      0.1957
     98  OH         6.3680   -0.6730   48.7560 O.3   200  TYR200     -0.2866
     99  N          4.9420    0.8930   42.5690 N.3   202  VAL202     -0.1245
    100  CA         6.0980    1.7590   42.8040 C.3   202  VAL202      0.1561
    101  C          5.9460    2.9590   41.8480 C.2   202  VAL202      0.2260
    102  O          5.5850    2.7800   40.6850 O.2   202  VAL202     -0.2867
    103  CB         7.4670    1.0100   42.6580 C.3   202  VAL202      0.0252
    104  CG1        7.5070    0.0960   41.4260 C.3   202  VAL202      0.0019
    105  CG2        8.6490    1.9630   42.6620 C.3   202  VAL202      0.0019
    106  N          7.6800    5.6890   39.6450 N.3   204  ARG204     -0.1241
    107  CA         8.9640    6.0070   39.0090 C.3   204  ARG204      0.1606
    108  C          8.9870    7.4080   38.4410 C.2   204  ARG204      0.2264
    109  O          7.9930    7.8770   37.8950 O.2   204  ARG204     -0.2867
    110  CB         9.3000    4.9860   37.9110 C.3   204  ARG204      0.0562
    111  CG         9.6320    3.6150   38.4930 C.2   204  ARG204      0.0159
    112  CD        10.3610    2.6060   37.6000 C.2   204  ARG204      0.1886
    113  NE        10.9640    3.1460   36.3770 N.pl3 204  ARG204     -0.0578
    114  CZ        12.0000    2.5940   35.7500 C.cat 204  ARG204      0.5393
    115  NH1       12.5840    1.5090   36.2460 N.pl3 204  ARG204      0.1358
    116  NH2       12.4770    3.1380   34.6380 N.pl3 204  ARG204      0.1358
    117  N          4.3630    2.3730   38.1610 N.3   272  ALA272     -0.1231
    118  CA         5.1110    1.2180   37.7140 C.3   272  ALA272      0.1694
    119  C          4.7490    0.1290   38.6810 C.2   272  ALA272      0.2592
    120  O          4.4410    0.4010   39.8440 O.2   272  ALA272     -0.2718
    121  CB         6.6000    1.4890   37.7750 C.3   272  ALA272      0.0304
    122  N          4.7370   -1.0980   38.2280 N.am  273  MET273     -0.1965
    123  CA         4.3260   -2.1690   39.1150 C.3   273  MET273      0.1736
    124  C          5.3100   -3.2900   39.1070 C.2   273  MET273      0.2617
    125  O          5.9320   -3.5650   38.0810 O.2   273  MET273     -0.2715
    126  CB         2.9650   -2.6720   38.6740 C.3   273  MET273      0.0427
    127  CG         1.9820   -1.5630   38.5090 C.3   273  MET273      0.0599
    128  SD         0.3300   -2.1230   38.8380 S.3   273  MET273     -0.1393
    129  CE        -0.2120   -2.3930   37.3140 C.3   273  MET273      0.0692
    130  N          5.4530   -3.9210   40.2500 N.am  274  GLY274     -0.1940
    131  CA         6.3290   -5.0640   40.4030 C.3   274  GLY274      0.2014
    132  C          5.4730   -6.2860   40.5960 C.2   274  GLY274      0.2639
    133  O          4.6270   -6.3160   41.4950 O.2   274  GLY274     -0.2714
    134  N          5.6810   -7.2820   39.7540 N.am  275  GLY275     -0.1954
    135  CA         4.9040   -8.5100   39.8210 C.3   275  GLY275      0.1869
    136  C          5.3380   -9.4980   40.8750 C.2   275  GLY275      0.2309
    137  O          6.5020   -9.4970   41.2830 O.2   275  GLY275     -0.2863
    138  N          5.5420  -14.6040   37.8860 N.3   280  ASN280     -0.1240
    139  CA         6.3000  -14.1440   36.7250 C.3   280  ASN280      0.1653
    140  C          7.2990  -15.1410   36.1380 C.2   280  ASN280      0.2266
    141  O          7.4490  -15.1730   34.9170 O.2   280  ASN280     -0.2867
    142  CB         6.9750  -12.8150   37.0060 C.3   280  ASN280      0.1155
    143  CG         6.1370  -11.6300   36.6220 C.2   280  ASN280      0.2627
    144  OD1        5.1260  -11.7340   35.9120 O.2   280  ASN280     -0.2716
    145  ND2        6.5590  -10.4660   37.0640 N.am  280  ASN280     -0.0877
    146  N          2.9430   -3.0130   34.0960 N.3   393  SER393     -0.1202
    147  CA         4.3600   -2.8900   33.7270 C.3   393  SER393      0.2020
    148  C          5.2950   -4.0250   34.1900 C.2   393  SER393      0.2619
    149  O          6.2760   -4.3230   33.5060 O.2   393  SER393     -0.2717
    150  CB         4.9140   -1.5300   34.1300 C.3   393  SER393      0.2103
    151  OG         4.8120   -1.3480   35.5320 O.3   393  SER393     -0.2182
    152  N          4.9770   -4.6650   35.3110 N.am  394  GLY394     -0.1942
    153  CA         5.8060   -5.7420   35.8310 C.3   394  GLY394      0.2014
    154  C          5.3630   -7.1420   35.4920 C.2   394  GLY394      0.2638
    155  O          5.8290   -8.0900   36.1190 O.2   394  GLY394     -0.2714
    156  N          4.4560   -7.2910   34.5140 N.am  395  GLN395     -0.1977
    157  CA         3.9960   -8.6080   34.0690 C.3   395  GLN395      0.1601
    158  C          5.1630   -9.1940   33.2410 C.2   395  GLN395      0.2287
    159  O          5.8920   -8.4350   32.5850 O.2   395  GLN395     -0.2864
    160  CB         2.6860   -8.4840   33.2630 C.3   395  GLN395      0.0394
    161  CG         1.9380   -9.8060   33.0820 C.3   395  GLN395      0.0908
    162  CD         2.2120  -10.4480   31.7580 C.2   395  GLN395      0.2608
    163  OE1        2.8950   -9.8910   30.9000 O.2   395  GLN395     -0.2717
    164  NE2        1.6680  -11.6310   31.5510 N.am  395  GLN395     -0.0878
    165  N          5.0310   -8.0680   29.2670 N.3   398  THR398     -0.1218
    166  CA         4.4480   -6.7760   28.8460 C.3   398  THR398      0.1862
    167  C          4.8860   -6.2640   27.4810 C.2   398  THR398      0.2287
    168  O          4.0860   -5.6570   26.7680 O.2   398  THR398     -0.2866
    169  CB         4.6390   -5.6750   29.8830 C.3   398  THR398      0.1770
    170  OG1        6.0280   -5.4830   30.1160 O.3   398  THR398     -0.2211
    171  CG2        3.9920   -5.9930   31.1410 C.3   398  THR398      0.0375
    172  N         17.5930    7.8630   38.3460 N.3   530  TYR530     -0.1241
    173  CA        18.0610    7.4390   39.6550 C.3   530  TYR530      0.1605
    174  C         19.3590    8.1080   40.0300 C.2   530  TYR530      0.2264
    175  O         20.0920    8.5730   39.1590 O.2   530  TYR530     -0.2867
    176  CB        18.2660    5.9170   39.6480 C.3   530  TYR530      0.0534
    177  CG        17.0060    5.1210   39.3780 C.ar  530  TYR530     -0.0201
    178  CD1       16.0970    4.8490   40.3970 C.ar  530  TYR530     -0.0009
    179  CD2       16.7310    4.6170   38.1040 C.ar  530  TYR530     -0.0009
    180  CE1       14.9390    4.1080   40.1590 C.ar  530  TYR530      0.0417
    181  CE2       15.5840    3.8530   37.8590 C.ar  530  TYR530      0.0417
    182  CZ        14.6870    3.6080   38.8910 C.ar  530  TYR530      0.1957
    183  OH        13.5520    2.8600   38.6840 O.3   530  TYR530     -0.2866
    184  N         20.9840    0.8230   39.7420 N.3   543  LYS543     -0.1245
    185  CA        20.1930    1.2430   38.6000 C.3   543  LYS543      0.1561
    186  C         21.1030    1.8580   37.5570 C.2   543  LYS543      0.2260
    187  O         20.7750    1.8100   36.3780 O.2   543  LYS543     -0.2867
    188  CB        19.1290    2.2390   39.0390 C.3   543  LYS543      0.0271
    189  CG        18.1240    1.6680   40.0490 C.3   543  LYS543      0.0035
    190  CD        17.2060    0.6360   39.4250 C.3   543  LYS543      0.0206
    191  CE        16.2550    0.0360   40.4040 C.3   543  LYS543      0.1093
    192  NZ        15.3070   -0.8650   39.6960 N.3   543  LYS543     -0.1314
    193  N         15.5620   -2.9400   28.9310 N.3   629  GLN629     -0.1245
    194  CA        14.1580   -3.2030   29.2320 C.3   629  GLN629      0.1566
    195  C         13.1790   -2.4570   28.3270 C.2   629  GLN629      0.2260
    196  O         11.9660   -2.6480   28.4630 O.2   629  GLN629     -0.2867
    197  CB        13.8640   -2.8960   30.7100 C.3   629  GLN629      0.0367
    198  CG        13.6250   -4.1570   31.5350 C.3   629  GLN629      0.0905
    199  CD        14.9300   -4.8910   31.8080 C.2   629  GLN629      0.2608
    200  OE1       15.7810   -4.4350   32.5870 O.2   629  GLN629     -0.2717
    201  NE2       15.1480   -6.0140   31.1270 N.am  629  GLN629     -0.0878
@<TRIPOS>BOND
     1   168   167    2
     2   167   166    1
     3   195   196    2
     4   195   194    1
     5   166   165    1
     6   166   169    1
     7   193   194    1
     8   194   197    1
     9   169   170    1
    10   169   171    1
    11   197   198    1
    12   163   162    2
    13   201   199   am
    14   198   199    1
    15   164   162   am
    16   162   161    1
    17   199   200    2
    18   159   158    2
    19   161   160    1
    20   158   157    1
    21   160   157    1
    22   149   148    2
    23   147   146    1
    24   147   150    1
    25   147   148    1
    26   157   156    1
    27   150   151    1
    28   148   152   am
    29   156   154   am
    30   116   114    1
    31   141   140    2
    32   152   153    1
    33   154   153    1
    34   154   155    2
    35    41    42    1
    36    41    40    1
    37   114   115    1
    38   114   113    2
    39   144   143    2
    40    42    43    2
    41   140   139    1
    42    39    36    1
    43    39    40    1
    44    35    36    1
    45   113   112    1
    46   187   186    2
    47    36    37    1
    48   143   142    1
    49   143   145   am
    50    43    44    1
    51    43    45    1
    52   139   142    1
    53   139   138    1
    54   129   128    1
    55   186   185    1
    56   112   111    2
    57   118   121    1
    58   118   117    1
    59   118   119    1
    60   181   179   ar
    61   181   182   ar
    62   109   108    2
    63   110   111    1
    64   110   107    1
    65    37    38    2
    66   125   124    2
    67   179   177   ar
    68   122   119   am
    69   122   123    1
    70   172   173    1
    71   108   107    1
    72   127   126    1
    73   127   128    1
    74   185   188    1
    75   185   184    1
    76   126   123    1
    77   119   120    2
    78   183   182    1
    79   182   180   ar
    80   107   106    1
    81   188   189    1
    82   124   123    1
    83   124   130   am
    84   175   174    2
    85   177   176    1
    86   177   178   ar
    87   190   189    1
    88   190   191    1
    89   176   173    1
    90   173   174    1
    91   192   191    1
    92   134   135    1
    93   134   132   am
    94    55    54    1
    95   135   136    1
    96    54    51    1
    97   180   178   ar
    98   130   131    1
    99   131   132    1
   100   132   133    2
   101   102   101    2
   102   136   137    2
   103    51    50    1
   104    51    52    1
   105    50    48   am
   106   104   103    1
   107    46    47    1
   108   101   100    1
   109    59    58    2
   110    48    47    1
   111    48    49    2
   112    52    56   am
   113    52    53    2
   114    90    89    2
   115    99   100    1
   116   103   105    1
   117   103   100    1
   118    56    57    1
   119    87    88    1
   120    67    66    1
   121    58    57    1
   122    89    88    1
   123    57    60    1
   124    66    63    1
   125    88    91    1
   126    60    61    1
   127    62    63    1
   128    91    92    1
   129    63    64    1
   130    82    81    2
   131    86    84   am
   132    94    92   ar
   133    94    96   ar
   134    92    93   ar
   135    64    65    2
   136    81    80    1
   137    80    83    1
   138    80    79    1
   139    96    97   ar
   140    84    83    1
   141    84    85    2
   142    93    95   ar
   143    77    78   ar
   144    77    75   ar
   145    97    95   ar
   146    97    98    1
   147    78    76   ar
   148    75    73   ar
   149    69    70    1
   150    69    68    1
   151    69    72    1
   152    70    71    2
   153    76    74   ar
   154    73    74   ar
   155    73    72    1
   156     9     8    1
   157    23    20    1
   158     8     7    1
   159    22    21    2
   160    30    29    1
   161    30    31    1
   162    29    28    1
   163    20    21    1
   164    20    19    1
   165    28    25    1
   166     7     6    1
   167    27    26    2
   168    33    32    1
   169     5     6    1
   170     5     2    1
   171    31    32    2
   172     4     3    2
   173    26    25    1
   174    19    12   am
   175    25    24    1
   176    32    34    1
   177     3     2    1
   178     2     1    1
   179    13    12    2
   180    12    11    1
   181    14    11    1
   182    14    15    1
   183    11    10    1
   184    18    16   am
   185    16    15    1
   186    16    17    2
