@<TRIPOS>MOLECULE
tmp/4a91A00.pdb
 84 79 0 0 0
SMALL
GASTEIGER

@<TRIPOS>ATOM
      1  N         17.8040   51.9950   12.2000 N.3     7  ARG7       -0.1245
      2  CA        16.3980   51.5910   12.1120 C.3     7  ARG7        0.1563
      3  C         15.8070   51.1390   13.4320 C.2     7  ARG7        0.2260
      4  O         16.5290   50.7510   14.3510 O.2     7  ARG7       -0.2867
      5  CB        16.2160   50.4730   11.0790 C.3     7  ARG7        0.0307
      6  CG        16.4850   49.0430   11.6030 C.3     7  ARG7        0.0489
      7  CD        17.9460   48.8220   12.0670 C.3     7  ARG7        0.2205
      8  NE        18.1530   47.3920   12.3010 N.pl3   7  ARG7       -0.0865
      9  CZ        17.8530   46.7610   13.4350 C.cat   7  ARG7        0.5346
     10  NH1       17.3590   47.4360   14.4730 N.pl3   7  ARG7        0.1354
     11  NH2       18.0440   45.4460   13.5300 N.pl3   7  ARG7        0.1354
     12  N         13.0110   48.2990   14.5610 N.3     9  ALA9       -0.1231
     13  CA        12.3960   47.1250   13.9540 C.3     9  ALA9        0.1679
     14  C         11.5220   46.3210   14.9230 C.2     9  ALA9        0.2434
     15  O         11.8590   45.1850   15.2760 O.2     9  ALA9       -0.2733
     16  CB        13.4830   46.2370   13.3540 C.3     9  ALA9        0.0304
     17  N         10.3800   46.8950   15.3400 N.am   10  PRO10      -0.2718
     18  CA         9.5610   46.2290   16.3620 C.3    10  PRO10       0.1535
     19  C          8.8150   45.0000   15.8630 C.2    10  PRO10       0.2599
     20  O          8.4510   44.9250   14.6890 O.2    10  PRO10      -0.2715
     21  CB         8.5440   47.3060   16.7380 C.3    10  PRO10       0.0310
     22  CG         8.3970   48.1210   15.4920 C.3    10  PRO10       0.0237
     23  CD         9.8090   48.1950   14.9410 C.3    10  PRO10       0.0939
     24  N          8.5890   44.0500   16.7710 N.am   11  SER11      -0.1950
     25  CA         7.6850   42.9360   16.5210 C.3    11  SER11       0.1924
     26  C          6.2740   43.3240   16.9650 C.2    11  SER11       0.2314
     27  O          6.0870   43.8100   18.0820 O.2    11  SER11      -0.2863
     28  CB         8.1350   41.7050   17.3040 C.3    11  SER11       0.2116
     29  OG         9.4320   41.2850   16.9090 O.3    11  SER11      -0.2180
     30  N          8.3810   43.8000   11.9980 N.3    43  GLU43      -0.1245
     31  CA         8.8800   42.4320   11.9280 C.3    43  GLU43       0.1567
     32  C          7.7440   41.4320   12.1420 C.2    43  GLU43       0.2260
     33  O          7.7340   40.6500   13.0940 O.2    43  GLU43      -0.2867
     34  CB        10.0810   42.2440   12.8610 C.3    43  GLU43       0.0388
     35  CG        11.2460   43.1570   12.4490 C.3    43  GLU43       0.1160
     36  CD        12.6300   42.5750   12.7640 C.2    43  GLU43       0.3649
     37  OE1       12.7570   41.8220   13.7510 O.co2  43  GLU43      -0.2457
     38  OE2       13.5870   42.8780   12.0180 O.co2  43  GLU43      -0.2457
     39  N         14.2920   34.6790   13.0850 N.3   170  TYR170     -0.1241
     40  CA        14.7240   36.0470   13.3270 C.3   170  TYR170      0.1605
     41  C         16.1830   36.3050   12.9120 C.2   170  TYR170      0.2264
     42  O         16.4660   37.3070   12.2600 O.2   170  TYR170     -0.2867
     43  CB        14.4810   36.4280   14.7960 C.3   170  TYR170      0.0534
     44  CG        15.2870   37.6280   15.2550 C.ar  170  TYR170     -0.0201
     45  CD1       15.0260   38.9000   14.7640 C.ar  170  TYR170     -0.0009
     46  CD2       16.3190   37.4780   16.1640 C.ar  170  TYR170     -0.0009
     47  CE1       15.7910   39.9980   15.1700 C.ar  170  TYR170      0.0417
     48  CE2       17.0720   38.5610   16.5840 C.ar  170  TYR170      0.0417
     49  CZ        16.8100   39.8160   16.0830 C.ar  170  TYR170      0.1957
     50  OH        17.5870   40.8880   16.5100 O.3   170  TYR170     -0.2866
     51  N         16.6330   39.2450   10.1260 N.3   174  VAL174     -0.1245
     52  CA        17.2000   40.5350   10.5180 C.3   174  VAL174      0.1561
     53  C         18.4580   40.8700    9.6890 C.2   174  VAL174      0.2260
     54  O         18.6800   42.0320    9.3180 O.2   174  VAL174     -0.2867
     55  CB        17.4630   40.6080   12.0520 C.3   174  VAL174      0.0252
     56  CG1       18.6860   39.7620   12.4590 C.3   174  VAL174      0.0019
     57  CG2       17.5950   42.0630   12.5080 C.3   174  VAL174      0.0019
     58  N         19.8420   49.0910   19.4400 N.3   188  ARG188     -0.1245
     59  CA        18.6990   48.2980   19.8830 C.3   188  ARG188      0.1563
     60  C         18.7620   47.9660   21.3700 C.2   188  ARG188      0.2260
     61  O         19.7100   48.3560   22.0610 O.2   188  ARG188     -0.2867
     62  CB        18.5540   47.0320   19.0450 C.3   188  ARG188      0.0307
     63  CG        19.6760   46.0310   19.2180 C.3   188  ARG188      0.0489
     64  CD        19.5540   44.9200   18.1740 C.3   188  ARG188      0.2205
     65  NE        20.7110   44.0320   18.2060 N.pl3 188  ARG188     -0.0865
     66  CZ        20.9500   43.0830   17.3100 C.cat 188  ARG188      0.5346
     67  NH1       20.0980   42.8890   16.3090 N.pl3 188  ARG188      0.1354
     68  NH2       22.0470   42.3360   17.4070 N.pl3 188  ARG188      0.1354
     69  N         18.3310   43.4380   25.5650 N.3   191  ASP191     -0.1225
     70  CA        17.9160   42.0390   25.4780 C.3   191  ASP191      0.1805
     71  C         18.3910   41.3460   24.1970 C.2   191  ASP191      0.2597
     72  O         18.3370   40.1180   24.0910 O.2   191  ASP191     -0.2718
     73  CB        16.3910   41.9010   25.6330 C.3   191  ASP191      0.1424
     74  CG        15.6170   42.8820   24.7630 C.2   191  ASP191      0.3668
     75  OD1       15.8710   44.1090   24.8620 O.co2 191  ASP191     -0.2456
     76  OD2       14.7400   42.4290   23.9890 O.co2 191  ASP191     -0.2456
     77  N         18.8550   42.1290   23.2280 N.am  192  LEU192     -0.1979
     78  CA        19.3220   41.5860   21.9550 C.3   192  LEU192      0.1596
     79  C         20.8400   41.4470   21.8450 C.2   192  LEU192      0.2287
     80  O         21.3710   41.1710   20.7680 O.2   192  LEU192     -0.2864
     81  CB        18.7570   42.4180   20.7930 C.3   192  LEU192      0.0297
     82  CG        17.2260   42.3840   20.7800 C.3   192  LEU192      0.0022
     83  CD1       16.6340   43.5110   19.9640 C.3   192  LEU192      0.0001
     84  CD2       16.7340   41.0250   20.2770 C.3   192  LEU192      0.0001
@<TRIPOS>BOND
     1    54    53    2
     2    53    52    1
     3    51    52    1
     4    52    55    1
     5     5     6    1
     6     5     2    1
     7     6     7    1
     8    31    30    1
     9    31    32    1
    10    31    34    1
    11    38    36   ar
    12    55    56    1
    13    55    57    1
    14     7     8    1
    15     2     1    1
    16     2     3    1
    17    32    33    2
    18    42    41    2
    19     8     9    2
    20    35    36    1
    21    35    34    1
    22    36    37   ar
    23    41    40    1
    24    39    40    1
    25    40    43    1
    26    16    13    1
    27     3     4    2
    28     9    11    1
    29     9    10    1
    30    13    12    1
    31    13    14    1
    32    20    19    2
    33    45    47   ar
    34    45    44   ar
    35    43    44    1
    36    14    15    2
    37    14    17   am
    38    23    17    1
    39    23    22    1
    40    47    49   ar
    41    44    46   ar
    42    17    18    1
    43    22    21    1
    44    19    18    1
    45    19    24   am
    46    49    50    1
    47    49    48   ar
    48    46    48   ar
    49    67    66    1
    50    18    21    1
    51    25    24    1
    52    25    26    1
    53    25    28    1
    54    29    28    1
    55    26    27    2
    56    66    68    1
    57    66    65    2
    58    64    65    1
    59    64    63    1
    60    62    63    1
    61    62    59    1
    62    58    59    1
    63    59    60    1
    64    83    82    1
    65    84    82    1
    66    80    79    2
    67    82    81    1
    68    81    78    1
    69    60    61    2
    70    79    78    1
    71    78    77    1
    72    77    71   am
    73    76    74   ar
    74    72    71    2
    75    71    70    1
    76    74    75   ar
    77    74    73    1
    78    70    69    1
    79    70    73    1
