@<TRIPOS>MOLECULE
tmp/4a92B00.pdb
 230 224 0 0 0
SMALL
GASTEIGER

@<TRIPOS>ATOM
      1  N         12.6200   74.6560  104.9380 N.3    55  GLN55      -0.1231
      2  CA        12.3970   73.8160  103.7650 C.3    55  GLN55       0.1698
      3  C         12.0560   74.5560  102.4770 C.2    55  GLN55       0.2593
      4  O         11.5060   75.6580  102.4910 O.2    55  GLN55      -0.2718
      5  CB        11.2630   72.7960  104.0780 C.3    55  GLN55       0.0381
      6  CG        11.6250   71.6910  105.0850 C.3    55  GLN55       0.0905
      7  CD        12.4870   70.5840  104.4940 C.2    55  GLN55       0.2608
      8  OE1       12.6580   70.4660  103.2640 O.2    55  GLN55      -0.2717
      9  NE2       13.0320   69.7260  105.3570 N.am   55  GLN55      -0.0878
     10  N         12.3550   73.9120  101.3580 N.am   56  SER56      -0.1938
     11  CA        11.9780   74.3950  100.0470 C.3    56  SER56       0.2055
     12  C         11.3380   73.2590   99.2790 C.2    56  SER56       0.2643
     13  O         11.7130   72.0980   99.4520 O.2    56  SER56      -0.2714
     14  CB        13.1590   74.9670   99.2810 C.3    56  SER56       0.2130
     15  OG        12.6560   75.6810   98.1600 O.3    56  SER56      -0.2179
     16  N         10.3120   73.5820   98.4970 N.am   57  PHE57      -0.1973
     17  CA         9.5790   72.6170   97.7090 C.3    57  PHE57       0.1639
     18  C          8.8420   73.3610   96.5900 C.2    57  PHE57       0.2290
     19  O          9.1780   74.5140   96.2930 O.2    57  PHE57      -0.2864
     20  CB         8.6520   71.7240   98.5900 C.3    57  PHE57       0.0560
     21  CG         7.8260   72.4860   99.5850 C.ar   57  PHE57      -0.0200
     22  CD1        8.3950   72.9720  100.7570 C.ar   57  PHE57      -0.0042
     23  CD2        6.4800   72.7390   99.3460 C.ar   57  PHE57      -0.0042
     24  CE1        7.6550   73.7480  101.6380 C.ar   57  PHE57      -0.0003
     25  CE2        5.7330   73.5080  100.2320 C.ar   57  PHE57      -0.0003
     26  CZ         6.3290   74.0140  101.3670 C.ar   57  PHE57      -0.0000
     27  N          1.1190   69.0170  102.3500 N.3    70  TYR70      -0.1227
     28  CA         0.9420   69.2890  103.7790 C.3    70  TYR70       0.1736
     29  C          2.2580   69.0950  104.5280 C.2    70  TYR70       0.2595
     30  O          2.5690   69.8780  105.4090 O.2    70  TYR70      -0.2718
     31  CB        -0.1830   68.4120  104.3850 C.3    70  TYR70       0.0548
     32  CG        -0.4140   68.6970  105.8510 C.ar   70  TYR70      -0.0200
     33  CD1       -1.0590   69.8570  106.2600 C.ar   70  TYR70      -0.0009
     34  CD2        0.0840   67.8460  106.8340 C.ar   70  TYR70      -0.0009
     35  CE1       -1.2010   70.1700  107.6070 C.ar   70  TYR70       0.0417
     36  CE2       -0.0630   68.1430  108.1910 C.ar   70  TYR70       0.0417
     37  CZ        -0.7050   69.3090  108.5710 C.ar   70  TYR70       0.1957
     38  OH        -0.8790   69.6040  109.8960 O.3    70  TYR70      -0.2866
     39  N          3.0090   68.0980  104.1450 N.am   71  HIS71      -0.1961
     40  CA         4.2550   67.8450  104.7740 C.3    71  HIS71       0.1787
     41  C          5.2500   68.9380  104.5810 C.2    71  HIS71       0.2620
     42  O          6.0820   69.1440  105.4230 O.2    71  HIS71      -0.2715
     43  CB         4.7850   66.4720  104.4480 C.3    71  HIS71       0.0785
     44  CG         5.4670   66.3710  103.1340 C.ar   71  HIS71       0.0821
     45  ND1        4.8960   65.7520  102.0560 N.ar   71  HIS71      -0.2267
     46  CD2        6.7010   66.7370  102.7460 C.ar   71  HIS71       0.1154
     47  CE1        5.7330   65.7870  101.0470 C.ar   71  HIS71       0.1986
     48  NE2        6.8320   66.3870  101.4380 N.ar   71  HIS71      -0.2212
     49  N          5.2530   69.5610  103.4260 N.am   72  GLY72      -0.1954
     50  CA         5.9580   70.7970  103.2500 C.3    72  GLY72       0.1869
     51  C          5.4300   72.0450  103.9160 C.2    72  GLY72       0.2309
     52  O          6.1590   72.7530  104.5450 O.2    72  GLY72      -0.2863
     53  N         -5.0230   66.5360  105.1130 N.3    92  VAL92      -0.1231
     54  CA        -3.8930   65.7790  105.6530 C.3    92  VAL92       0.1692
     55  C         -3.8450   64.3290  105.0960 C.2    92  VAL92       0.2592
     56  O         -2.7560   63.8430  104.8050 O.2    92  VAL92      -0.2718
     57  CB        -3.8540   65.8440  107.1930 C.3    92  VAL92       0.0266
     58  CG1       -2.5900   65.1930  107.7520 C.3    92  VAL92       0.0020
     59  CG2       -3.9730   67.2810  107.6780 C.3    92  VAL92       0.0020
     60  N         -5.0090   63.6780  104.8890 N.am   93  ASP93      -0.1960
     61  CA        -5.0750   62.3080  104.3760 C.3    93  ASP93       0.1840
     62  C         -4.4930   62.1550  102.9690 C.2    93  ASP93       0.2622
     63  O         -3.8790   61.1320  102.6520 O.2    93  ASP93      -0.2715
     64  CB        -6.5030   61.7500  104.4520 C.3    93  ASP93       0.1450
     65  CG        -7.1450   61.8300  105.8340 C.2    93  ASP93       0.3671
     66  OD1       -6.5620   61.2620  106.8070 O.co2  93  ASP93      -0.2456
     67  OD2       -8.2380   62.4410  105.9460 O.co2  93  ASP93      -0.2456
     68  N         -4.6820   63.1740  102.1300 N.am   94  GLN94      -0.1963
     69  CA        -4.1300   63.2320  100.7740 C.3    94  GLN94       0.1733
     70  C         -2.7720   63.9710  100.7530 C.2    94  GLN94       0.2616
     71  O         -2.1000   63.9230   99.7320 O.2    94  GLN94      -0.2715
     72  CB        -5.1050   63.9270   99.8160 C.3    94  GLN94       0.0408
     73  CG        -6.3750   63.1370   99.4770 C.3    94  GLN94       0.0908
     74  CD        -6.1520   61.7680   98.8500 C.2    94  GLN94       0.2608
     75  OE1       -5.7730   61.6290   97.6780 O.2    94  GLN94      -0.2717
     76  NE2       -6.4400   60.7170   99.6150 N.am   94  GLN94      -0.0878
     77  N         -2.3740   64.6470  101.8600 N.am   95  ASP95      -0.1971
     78  CA        -1.1250   65.4170  101.9990 C.3    95  ASP95       0.1709
     79  C         -1.1850   66.6670  101.1080 C.2    95  ASP95       0.2293
     80  O         -0.1700   67.1650  100.6210 O.2    95  ASP95      -0.2864
     81  CB         0.1140   64.5420  101.6730 C.3    95  ASP95       0.1436
     82  CG         1.4810   65.1240  102.0130 C.2    95  ASP95       0.3671
     83  OD1        1.5500   66.0090  102.8980 O.co2  95  ASP95      -0.2456
     84  OD2        2.4920   64.6680  101.4110 O.co2  95  ASP95      -0.2456
     85  N         -0.2080   56.3240   91.3060 N.3   137  ARG137     -0.1245
     86  CA         1.1480   55.8150   91.0950 C.3   137  ARG137      0.1563
     87  C          1.6120   55.8410   89.6710 C.2   137  ARG137      0.2260
     88  O          0.8260   55.6540   88.7470 O.2   137  ARG137     -0.2867
     89  CB         1.3040   54.3890   91.6510 C.3   137  ARG137      0.0307
     90  CG         1.1740   54.2720   93.1630 C.3   137  ARG137      0.0489
     91  CD         2.3920   54.7860   93.8900 C.3   137  ARG137      0.2205
     92  NE         2.2720   54.6020   95.3350 N.pl3 137  ARG137     -0.0865
     93  CZ         2.7520   53.5520   95.9920 C.cat 137  ARG137      0.5346
     94  NH1        3.3760   52.5780   95.3380 N.pl3 137  ARG137      0.1354
     95  NH2        2.6110   53.4650   97.3080 N.pl3 137  ARG137      0.1354
     96  N         17.0480   58.9820   95.4380 N.3   146  VAL146     -0.1245
     97  CA        16.1050   59.7450   96.2540 C.3   146  VAL146      0.1561
     98  C         16.4400   61.2280   96.3810 C.2   146  VAL146      0.2260
     99  O         15.5490   62.0690   96.2510 O.2   146  VAL146     -0.2867
    100  CB        15.7960   59.0990   97.6360 C.3   146  VAL146      0.0252
    101  CG1       15.0010   57.8170   97.4730 C.3   146  VAL146      0.0019
    102  CG2       17.0340   58.8850   98.5220 C.3   146  VAL146      0.0019
    103  N         15.1810   63.8600   93.8110 N.3   149  LEU149     -0.1231
    104  CA        13.7910   64.2960   93.8740 C.3   149  LEU149      0.1693
    105  C         13.4180   65.0990   95.1190 C.2   149  LEU149      0.2592
    106  O         12.3000   65.6120   95.1810 O.2   149  LEU149     -0.2718
    107  CB        12.8240   63.1230   93.6620 C.3   149  LEU149      0.0284
    108  CG        12.9580   62.3370   92.3770 C.3   149  LEU149      0.0019
    109  CD1       12.2930   60.9900   92.5190 C.3   149  LEU149      0.0001
    110  CD2       12.3920   63.1060   91.2160 C.3   149  LEU149      0.0001
    111  N         14.3290   65.2340   96.1020 N.am  150  LYS150     -0.1966
    112  CA        14.0440   66.0520   97.2830 C.3   150  LYS150      0.1728
    113  C         13.8160   67.4930   96.8350 C.2   150  LYS150      0.2616
    114  O         14.5130   67.9800   95.9310 O.2   150  LYS150     -0.2715
    115  CB        15.1650   65.9680   98.3320 C.3   150  LYS150      0.0311
    116  CG        15.0140   64.7680   99.2650 C.3   150  LYS150      0.0038
    117  CD        16.3830   64.2440   99.7030 C.3   150  LYS150      0.0206
    118  CE        16.3340   63.0060  100.5770 C.3   150  LYS150      0.1093
    119  NZ        17.6570   62.3160  100.6430 N.3   150  LYS150     -0.1314
    120  N         12.7890   68.1140   97.4240 N.am  151  GLY151     -0.1955
    121  CA        12.3830   69.4820   97.1310 C.3   151  GLY151      0.1869
    122  C         11.4990   69.6200   95.9040 C.2   151  GLY151      0.2309
    123  O         11.2460   70.7380   95.4650 O.2   151  GLY151     -0.2863
    124  N          8.4050   67.8470   95.7270 N.3   153  SER153     -0.1217
    125  CA         7.0390   67.5570   96.1450 C.3   153  SER153      0.1889
    126  C          6.2190   68.8190   95.8870 C.2   153  SER153      0.2288
    127  O          6.7520   69.9210   96.0210 O.2   153  SER153     -0.2866
    128  CB         6.9830   67.2140   97.6240 C.3   153  SER153      0.2089
    129  OG         7.4150   68.3200   98.4020 O.3   153  SER153     -0.2183
    130  N          3.0620   65.7820   92.6400 N.3   168  PHE168     -0.1227
    131  CA         4.0700   64.9140   93.2410 C.3   168  PHE168      0.1736
    132  C          4.0440   65.0580   94.7640 C.2   168  PHE168      0.2595
    133  O          4.1300   66.1640   95.2960 O.2   168  PHE168     -0.2718
    134  CB         5.4530   65.2230   92.6510 C.3   168  PHE168      0.0547
    135  CG         6.6090   64.3850   93.1490 C.ar  168  PHE168     -0.0202
    136  CD1        6.4580   63.0190   93.3810 C.ar  168  PHE168     -0.0042
    137  CD2        7.8670   64.9460   93.3240 C.ar  168  PHE168     -0.0042
    138  CE1        7.5400   62.2460   93.8260 C.ar  168  PHE168     -0.0003
    139  CE2        8.9470   64.1680   93.7550 C.ar  168  PHE168     -0.0003
    140  CZ         8.7800   62.8230   93.9920 C.ar  168  PHE168     -0.0000
    141  N          3.8650   63.9270   95.4510 N.am  169  ARG169     -0.1966
    142  CA         3.6900   63.8370   96.8970 C.3   169  ARG169      0.1729
    143  C          4.8280   63.0560   97.6000 C.2   169  ARG169      0.2616
    144  O          5.4430   63.5740   98.5430 O.2   169  ARG169     -0.2715
    145  CB         2.2810   63.2520   97.1490 C.3   169  ARG169      0.0348
    146  CG         1.9750   62.6300   98.4930 C.3   169  ARG169      0.0492
    147  CD         0.4960   62.3630   98.6080 C.3   169  ARG169      0.2205
    148  NE         0.0990   61.1350   97.9230 N.pl3 169  ARG169     -0.0865
    149  CZ        -1.1570   60.7320   97.7470 C.cat 169  ARG169      0.5346
    150  NH1       -2.1700   61.4850   98.1540 N.pl3 169  ARG169      0.1354
    151  NH2       -1.4100   59.5890   97.1340 N.pl3 169  ARG169      0.1354
    152  N          5.1060   61.8200   97.1400 N.am  170  ALA170     -0.1963
    153  CA         6.1430   60.9840   97.7420 C.3   170  ALA170      0.1728
    154  C          6.8630   60.1140   96.7200 C.2   170  ALA170      0.2616
    155  O          6.3290   59.8450   95.6330 O.2   170  ALA170     -0.2715
    156  CB         5.5430   60.1210   98.8500 C.3   170  ALA170      0.0334
    157  N          8.0780   59.6600   97.0800 N.am  171  ALA171     -0.1963
    158  CA         8.8910   58.7810   96.2370 C.3   171  ALA171      0.1728
    159  C          8.7830   57.3260   96.6940 C.2   171  ALA171      0.2616
    160  O          8.9530   57.0280   97.8740 O.2   171  ALA171     -0.2715
    161  CB        10.3480   59.2240   96.2520 C.3   171  ALA171      0.0334
    162  N          8.5140   56.4170   95.7520 N.am  172  VAL172     -0.1963
    163  CA         8.4820   54.9810   96.0400 C.3   172  VAL172      0.1727
    164  C          9.9320   54.5290   95.8850 C.2   172  VAL172      0.2616
    165  O         10.4600   54.4970   94.7670 O.2   172  VAL172     -0.2715
    166  CB         7.5080   54.1920   95.1390 C.3   172  VAL172      0.0290
    167  CG1        7.4920   52.7210   95.5280 C.3   172  VAL172      0.0023
    168  CG2        6.1010   54.7840   95.1930 C.3   172  VAL172      0.0023
    169  N         10.5960   54.2680   97.0130 N.am  173  CYS173     -0.1968
    170  CA        12.0140   53.9260   96.9940 C.3   173  CYS173      0.1712
    171  C         12.4510   52.7130   97.8120 C.2   173  CYS173      0.2296
    172  O         11.8740   52.4100   98.8580 O.2   173  CYS173     -0.2864
    173  CB        12.8510   55.1530   97.3330 C.3   173  CYS173      0.0983
    174  SG        12.5090   55.8470   98.9700 S.3   173  CYS173     -0.0798
    175  N          4.6620   58.6150   93.8970 N.3   182  ASP182     -0.1239
    176  CA         3.2990   58.6400   94.4090 C.3   182  ASP182      0.1674
    177  C          2.7960   60.0820   94.2610 C.2   182  ASP182      0.2266
    178  O          3.5170   61.0320   94.5990 O.2   182  ASP182     -0.2867
    179  CB         3.2270   58.0930   95.8510 C.3   182  ASP182      0.1410
    180  CG         1.8990   58.2970   96.5710 C.2   182  ASP182      0.3668
    181  OD1        0.8790   57.6930   96.1390 O.co2 182  ASP182     -0.2456
    182  OD2        1.8870   59.0150   97.5940 O.co2 182  ASP182     -0.2456
    183  N          0.9370   64.2130  112.0080 N.3   499  MET499     -0.1245
    184  CA         1.8060   63.2970  111.2790 C.3   499  MET499      0.1570
    185  C          2.7090   62.6210  112.2510 C.2   499  MET499      0.2261
    186  O          3.1080   63.2450  113.2380 O.2   499  MET499     -0.2867
    187  CB         2.6210   64.0260  110.2060 C.3   499  MET499      0.0387
    188  CG         1.8020   64.4140  109.0160 C.3   499  MET499      0.0595
    189  SD         2.7920   64.9590  107.6010 S.3   499  MET499     -0.1393
    190  CE         3.3120   66.5970  108.2070 C.3   499  MET499      0.0692
    191  N         -1.6480   60.8860  110.4190 N.3   538  VAL538     -0.1231
    192  CA        -1.1660   60.0810  109.3000 C.3   538  VAL538      0.1692
    193  C          0.2840   59.6170  109.4370 C.2   538  VAL538      0.2592
    194  O          1.1000   60.2190  110.1340 O.2   538  VAL538     -0.2718
    195  CB        -1.5330   60.6460  107.8940 C.3   538  VAL538      0.0266
    196  CG1       -3.0330   60.9040  107.7830 C.3   538  VAL538      0.0020
    197  CG2       -0.7630   61.9250  107.5960 C.3   538  VAL538      0.0020
    198  N          0.5950   58.5620  108.7010 N.am  539  CYS539     -0.1956
    199  CA         1.8620   57.8660  108.7440 C.3   539  CYS539      0.1843
    200  C          2.0980   57.1210  107.4410 C.2   539  CYS539      0.2625
    201  O          1.1410   56.7340  106.7640 O.2   539  CYS539     -0.2714
    202  CB         1.7890   56.8870  109.9070 C.3   539  CYS539      0.0997
    203  SG         3.2870   55.9090  110.1580 S.3   539  CYS539     -0.0797
    204  N          3.3760   56.8020  107.1620 N.am  540  GLN540     -0.1963
    205  CA         3.7690   55.9890  106.0110 C.3   540  GLN540      0.1733
    206  C          3.3380   54.5520  106.2830 C.2   540  GLN540      0.2616
    207  O          3.5490   54.0250  107.3880 O.2   540  GLN540     -0.2715
    208  CB         5.2890   56.0240  105.8130 C.3   540  GLN540      0.0408
    209  CG         5.8650   57.3700  105.3660 C.3   540  GLN540      0.0908
    210  CD         7.3620   57.3530  105.5190 C.2   540  GLN540      0.2608
    211  OE1        7.8910   57.5960  106.6090 O.2   540  GLN540     -0.2717
    212  NE2        8.0740   56.9940  104.4540 N.am  540  GLN540     -0.0878
    213  N          2.7140   53.9150  105.2940 N.am  541  ASP541     -0.1957
    214  CA         2.2770   52.5300  105.4820 C.3   541  ASP541      0.1840
    215  C          3.4900   51.5690  105.4380 C.2   541  ASP541      0.2622
    216  O          3.8860   51.0980  104.3580 O.2   541  ASP541     -0.2715
    217  CB         1.1400   52.1750  104.4970 C.3   541  ASP541      0.1450
    218  CG         0.7010   50.7160  104.4220 C.2   541  ASP541      0.3671
    219  OD1        1.0080   49.9390  105.3740 O.co2 541  ASP541     -0.2456
    220  OD2        0.0280   50.3480  103.4240 O.co2 541  ASP541     -0.2456
    221  N          4.1140   51.3420  106.6170 N.am  542  HIS542     -0.1973
    222  CA         5.2450   50.4210  106.7380 C.3   542  HIS542      0.1656
    223  C          4.8600   49.1460  107.4870 C.2   542  HIS542      0.2291
    224  O          5.7400   48.3580  107.8490 O.2   542  HIS542     -0.2864
    225  CB         6.4970   51.0860  107.3330 C.3   542  HIS542      0.0771
    226  CG         7.1140   52.1180  106.4420 C.ar  542  HIS542      0.0820
    227  ND1        7.8760   53.1540  106.9610 N.ar  542  HIS542     -0.2267
    228  CD2        7.0360   52.2690  105.0970 C.ar  542  HIS542      0.1154
    229  CE1        8.2390   53.8930  105.9230 C.ar  542  HIS542      0.1986
    230  NE2        7.7470   53.4070  104.7820 N.ar  542  HIS542     -0.2212
@<TRIPOS>BOND
     1    88    87    2
     2    87    86    1
     3    86    85    1
     4    86    89    1
     5   110   108    1
     6    89    90    1
     7   108   109    1
     8   108   107    1
     9   130   131    1
    10   134   135    1
    11   134   131    1
    12   135   137   ar
    13   135   136   ar
    14    90    91    1
    15   131   132    1
    16   137   139   ar
    17   136   138   ar
    18   107   104    1
    19   139   140   ar
    20   103   104    1
    21   138   140   ar
    22   104   105    1
    23    91    92    1
    24   175   176    1
    25   177   176    1
    26   177   178    2
    27   176   179    1
    28   132   133    2
    29   132   141   am
    30   165   164    2
    31   105   106    2
    32   105   111   am
    33   166   168    1
    34   166   167    1
    35   166   163    1
    36    92    93    2
    37    94    93    1
    38    96    97    1
    39   141   142    1
    40   123   122    2
    41   155   154    2
    42   124   125    1
    43   162   163    1
    44   162   159   am
    45   179   180    1
    46   164   163    1
    47   164   169   am
    48   126   127    2
    49   126   125    1
    50   122   121    1
    51   114   113    2
    52    93    95    1
    53   111   112    1
    54   181   180   ar
    55   125   128    1
    56   158   161    1
    57   158   159    1
    58   158   157    1
    59    99    98    2
    60    97    98    1
    61    97   100    1
    62    19    18    2
    63   180   182   ar
    64    18    17    1
    65   159   160    2
    66   154   157   am
    67   154   153    1
    68   113   112    1
    69   113   120   am
    70   142   145    1
    71   142   143    1
    72   170   169    1
    73   170   173    1
    74   170   171    1
    75   121   120    1
    76   151   149    1
    77   152   143   am
    78   152   153    1
    79   145   146    1
    80   112   115    1
    81   173   174    1
    82   101   100    1
    83   143   144    2
    84   128   129    1
    85   100   102    1
    86    75    74    2
    87    17    16    1
    88    17    20    1
    89   153   156    1
    90   149   148    2
    91   149   150    1
    92   171   172    2
    93   148   147    1
    94    15    14    1
    95   115   116    1
    96   146   147    1
    97    16    12   am
    98    20    21    1
    99    74    73    1
   100    74    76   am
   101   116   117    1
   102    12    13    2
   103    12    11    1
   104    14    11    1
   105    23    21   ar
   106    23    25   ar
   107    73    72    1
   108    21    22   ar
   109   117   118    1
   110    71    70    2
   111    72    69    1
   112    11    10    1
   113    25    26   ar
   114   118   119    1
   115    80    79    2
   116    70    69    1
   117    70    77   am
   118    22    24   ar
   119    69    68    1
   120    47    48   ar
   121    47    45   ar
   122    79    78    1
   123    10     3   am
   124    26    24   ar
   125    84    82   ar
   126    48    46   ar
   127    81    78    1
   128    81    82    1
   129    77    78    1
   130    82    83   ar
   131    45    44   ar
   132    68    62   am
   133    27    28    1
   134     3     4    2
   135     3     2    1
   136    63    62    2
   137    46    44   ar
   138    62    61    1
   139    44    43    1
   140    50    49    1
   141    50    51    1
   142     8     7    2
   143   220   218   ar
   144    49    41   am
   145     2     5    1
   146     2     1    1
   147    28    31    1
   148    28    29    1
   149    51    52    2
   150     5     6    1
   151    39    29   am
   152    39    40    1
   153   216   215    2
   154    61    64    1
   155    61    60    1
   156    31    32    1
   157   218   217    1
   158   218   219   ar
   159    43    40    1
   160    64    65    1
   161   212   210   am
   162     7     6    1
   163     7     9   am
   164   217   214    1
   165    29    30    2
   166    41    40    1
   167    41    42    2
   168   230   228   ar
   169   230   229   ar
   170    56    55    2
   171    60    55   am
   172    55    54    1
   173   228   226   ar
   174    53    54    1
   175   213   214    1
   176   213   206   am
   177   209   210    1
   178   209   208    1
   179   215   214    1
   180   215   221   am
   181   210   211    2
   182    54    57    1
   183   208   205    1
   184    65    67   ar
   185    65    66   ar
   186    32    33   ar
   187    32    34   ar
   188   229   227   ar
   189   205   206    1
   190   205   204    1
   191    33    35   ar
   192   206   207    2
   193   226   227   ar
   194   226   225    1
   195   221   222    1
   196   222   225    1
   197   222   223    1
   198   201   200    2
   199    34    36   ar
   200   204   200   am
   201    57    59    1
   202    57    58    1
   203   200   199    1
   204   223   224    2
   205   197   195    1
   206   189   190    1
   207   189   188    1
   208    35    37   ar
   209   196   195    1
   210   195   192    1
   211    36    37   ar
   212    37    38    1
   213   198   199    1
   214   198   193   am
   215   199   202    1
   216   188   187    1
   217   192   193    1
   218   192   191    1
   219   193   194    2
   220   202   203    1
   221   187   184    1
   222   184   183    1
   223   184   185    1
   224   185   186    2
