@<TRIPOS>MOLECULE
tmp/4a95A00.pdb
 169 162 0 0 0
SMALL
GASTEIGER

@<TRIPOS>ATOM
      1  N         30.9160   49.5320   68.0220 N.3    70  VAL70      -0.1231
      2  CA        30.6130   49.3500   66.5930 C.3    70  VAL70       0.1692
      3  C         29.5980   50.3080   65.9810 C.2    70  VAL70       0.2592
      4  O         28.5140   50.5190   66.5440 O.2    70  VAL70      -0.2718
      5  CB        30.0280   47.8930   66.2640 C.3    70  VAL70       0.0266
      6  CG1       30.0460   47.6880   64.7980 C.3    70  VAL70       0.0020
      7  CG2       30.8020   46.7240   66.9360 C.3    70  VAL70       0.0020
      8  N         29.9030   50.8120   64.7640 N.am   71  GLU71      -0.1966
      9  CA        28.9910   51.6300   63.9980 C.3    71  GLU71       0.1733
     10  C         28.7430   50.9350   62.6970 C.2    71  GLU71       0.2616
     11  O         29.6030   50.2000   62.2000 O.2    71  GLU71      -0.2715
     12  CB        29.6070   53.0300   63.7480 C.3    71  GLU71       0.0429
     13  CG        29.9790   53.7220   65.0120 C.3    71  GLU71       0.1163
     14  CD        30.6380   55.0900   64.8140 C.2    71  GLU71       0.3649
     15  OE1       30.8700   55.5580   63.6600 O.co2  71  GLU71      -0.2457
     16  OE2       30.9050   55.7110   65.8470 O.co2  71  GLU71      -0.2457
     17  N         27.5880   51.1670   62.1050 N.am   72  ASP72      -0.1957
     18  CA        27.3130   50.5650   60.8230 C.3    72  ASP72       0.1840
     19  C         28.2030   51.2780   59.7820 C.2    72  ASP72       0.2622
     20  O         28.6910   52.3790   60.0520 O.2    72  ASP72      -0.2715
     21  CB        25.8140   50.7170   60.5690 C.3    72  ASP72       0.1450
     22  CG        25.4280   52.1690   60.2220 C.2    72  ASP72       0.3671
     23  OD1       25.5350   53.0630   61.0630 O.co2  72  ASP72      -0.2456
     24  OD2       25.0380   52.3900   59.0610 O.co2  72  ASP72      -0.2456
     25  N         28.4280   50.6180   58.6310 N.am   73  ASP73      -0.1971
     26  CA        29.2370   51.1270   57.4940 C.3    73  ASP73       0.1709
     27  C         28.9520   52.5540   57.1200 C.2    73  ASP73       0.2293
     28  O         29.8780   53.3020   56.8370 O.2    73  ASP73      -0.2864
     29  CB        29.0900   50.2410   56.2530 C.3    73  ASP73       0.1436
     30  CG        30.0140   49.0050   56.2990 C.2    73  ASP73       0.3671
     31  OD1       30.0190   48.3140   57.3540 O.co2  73  ASP73      -0.2456
     32  OD2       30.7250   48.7260   55.2830 O.co2  73  ASP73      -0.2456
     33  N         24.3830   54.6560   62.8290 N.3    77  PHE77      -0.1241
     34  CA        24.0720   54.0770   64.1590 C.3    77  PHE77       0.1605
     35  C         25.3880   53.7110   64.8650 C.2    77  PHE77       0.2264
     36  O         26.3690   53.3760   64.2400 O.2    77  PHE77      -0.2867
     37  CB        23.3480   52.7540   63.9410 C.3    77  PHE77       0.0534
     38  CG        21.9920   52.8970   63.2640 C.ar   77  PHE77      -0.0203
     39  CD1       20.9850   53.6130   63.9000 C.ar   77  PHE77      -0.0042
     40  CD2       21.7360   52.2830   62.0410 C.ar   77  PHE77      -0.0042
     41  CE1       19.7140   53.7370   63.3330 C.ar   77  PHE77      -0.0003
     42  CE2       20.4460   52.3820   61.4200 C.ar   77  PHE77      -0.0003
     43  CZ        19.4340   53.1440   62.0640 C.ar   77  PHE77      -0.0000
     44  N         25.9280   50.8530   68.1270 N.3    79  PHE79      -0.1241
     45  CA        25.2500   50.0250   69.1300 C.3    79  PHE79       0.1605
     46  C         25.3710   50.6410   70.5330 C.2    79  PHE79       0.2264
     47  O         26.4130   51.2950   70.8740 O.2    79  PHE79      -0.2867
     48  CB        25.9440   48.6490   69.1930 C.3    79  PHE79       0.0534
     49  CG        25.6500   47.7410   68.0310 C.ar   79  PHE79      -0.0203
     50  CD1       24.3260   47.4800   67.6000 C.ar   79  PHE79      -0.0042
     51  CD2       26.6900   47.0330   67.4050 C.ar   79  PHE79      -0.0042
     52  CE1       24.0670   46.5840   66.5500 C.ar   79  PHE79      -0.0003
     53  CE2       26.4720   46.0860   66.3230 C.ar   79  PHE79      -0.0003
     54  CZ        25.1350   45.8750   65.8750 C.ar   79  PHE79      -0.0000
     55  N         31.4150   41.7060   62.2850 N.3   173  GLY173     -0.1225
     56  CA        30.9670   42.1650   60.9770 C.3   173  GLY173      0.1811
     57  C         32.0630   42.2630   60.0010 C.2   173  GLY173      0.2280
     58  O         31.8180   42.3500   58.8330 O.2   173  GLY173     -0.2866
     59  N         22.1100   39.9240   58.0990 N.3   185  TYR185     -0.1227
     60  CA        21.1380   40.6260   58.8580 C.3   185  TYR185      0.1736
     61  C         19.8660   40.8250   58.0200 C.2   185  TYR185      0.2595
     62  O         20.0850   41.2710   56.8540 O.2   185  TYR185     -0.2718
     63  CB        21.8420   42.0390   59.1390 C.3   185  TYR185      0.0548
     64  CG        22.9090   41.9560   60.2910 C.ar  185  TYR185     -0.0200
     65  CD1       22.5420   42.1160   61.6300 C.ar  185  TYR185     -0.0009
     66  CD2       24.2440   41.6860   60.0410 C.ar  185  TYR185     -0.0009
     67  CE1       23.5240   41.9930   62.7170 C.ar  185  TYR185      0.0417
     68  CE2       25.2070   41.5790   61.0930 C.ar  185  TYR185      0.0417
     69  CZ        24.8290   41.6920   62.4200 C.ar  185  TYR185      0.1957
     70  OH        25.7060   41.5520   63.4740 O.3   185  TYR185     -0.2866
     71  N         18.6560   40.6180   58.5450 N.am  186  TYR186     -0.1962
     72  CA        17.3870   41.1040   57.9180 C.3   186  TYR186      0.1771
     73  C         16.6230   41.8580   58.9600 C.2   186  TYR186      0.2619
     74  O         16.6700   41.5370   60.1460 O.2   186  TYR186     -0.2715
     75  CB        16.5660   39.9050   57.3990 C.3   186  TYR186      0.0574
     76  CG        17.0790   39.3270   56.1400 C.ar  186  TYR186     -0.0198
     77  CD1       18.2690   38.5740   56.1370 C.ar  186  TYR186     -0.0009
     78  CD2       16.3530   39.4650   54.9450 C.ar  186  TYR186     -0.0009
     79  CE1       18.7730   38.0560   54.9230 C.ar  186  TYR186      0.0417
     80  CE2       16.8670   38.9450   53.7560 C.ar  186  TYR186      0.0417
     81  CZ        18.0520   38.2260   53.7740 C.ar  186  TYR186      0.1957
     82  OH        18.5650   37.6830   52.5720 O.3   186  TYR186     -0.2866
     83  N         15.8510   42.8450   58.5240 N.am  187  HIS187     -0.1973
     84  CA        15.1640   43.7520   59.4080 C.3   187  HIS187      0.1656
     85  C         13.6880   43.7930   59.1170 C.2   187  HIS187      0.2291
     86  O         13.2760   43.9530   57.9440 O.2   187  HIS187     -0.2864
     87  CB        15.7130   45.1950   59.1560 C.3   187  HIS187      0.0771
     88  CG        17.2160   45.2730   59.1780 C.ar  187  HIS187      0.0820
     89  ND1       17.9900   45.7210   58.1120 N.ar  187  HIS187     -0.2267
     90  CD2       18.0900   44.9040   60.1420 C.ar  187  HIS187      0.1154
     91  CE1       19.2700   45.6370   58.4300 C.ar  187  HIS187      0.1986
     92  NE2       19.3610   45.1410   59.6570 N.ar  187  HIS187     -0.2212
     93  N         11.7340   55.0120   61.2640 N.3   195  LEU195     -0.1245
     94  CA        12.7630   54.5030   60.3870 C.3   195  LEU195      0.1561
     95  C         12.9640   55.3210   59.1080 C.2   195  LEU195      0.2260
     96  O         14.0440   55.4010   58.6480 O.2   195  LEU195     -0.2867
     97  CB        12.4750   53.0350   59.9590 C.3   195  LEU195      0.0270
     98  CG        12.5370   52.1060   61.1650 C.3   195  LEU195      0.0019
     99  CD1       12.0990   50.6980   60.6660 C.3   195  LEU195      0.0001
    100  CD2       13.9600   52.0920   61.6720 C.3   195  LEU195      0.0001
    101  N         16.9860   55.8160   57.4940 N.3   200  PHE200     -0.1241
    102  CA        17.1700   54.3840   57.2510 C.3   200  PHE200      0.1605
    103  C         16.3420   53.7470   56.1340 C.2   200  PHE200      0.2264
    104  O         16.9200   53.0830   55.2710 O.2   200  PHE200     -0.2867
    105  CB        17.0190   53.5910   58.5420 C.3   200  PHE200      0.0534
    106  CG        17.4000   52.1440   58.3480 C.ar  200  PHE200     -0.0203
    107  CD1       18.7740   51.7460   58.2720 C.ar  200  PHE200     -0.0042
    108  CD2       16.4140   51.1940   58.1810 C.ar  200  PHE200     -0.0042
    109  CE1       19.1540   50.3740   58.0700 C.ar  200  PHE200     -0.0003
    110  CE2       16.7740   49.8090   57.9330 C.ar  200  PHE200     -0.0003
    111  CZ        18.1570   49.4000   57.8860 C.ar  200  PHE200     -0.0000
    112  N         20.3920   51.2980   69.4090 N.3   293  SER293     -0.1217
    113  CA        21.5590   51.9280   68.8500 C.3   293  SER293      0.1889
    114  C         21.3530   53.3970   69.0490 C.2   293  SER293      0.2288
    115  O         20.2170   53.8790   68.9910 O.2   293  SER293     -0.2866
    116  CB        21.7100   51.7080   67.3690 C.3   293  SER293      0.2089
    117  OG        22.0550   50.3870   67.0850 O.3   293  SER293     -0.2183
    118  N         17.4090   54.2480   68.6260 N.3   304  LEU304     -0.1245
    119  CA        16.4780   53.3580   67.8840 C.3   304  LEU304      0.1561
    120  C         16.4050   52.0870   68.7280 C.2   304  LEU304      0.2260
    121  O         17.4260   51.5260   69.0380 O.2   304  LEU304     -0.2867
    122  CB        17.0660   52.9950   66.5440 C.3   304  LEU304      0.0270
    123  CG        16.1090   52.0510   65.7440 C.3   304  LEU304      0.0019
    124  CD1       15.0570   52.9140   65.0980 C.3   304  LEU304      0.0001
    125  CD2       16.8070   51.3910   64.7060 C.3   304  LEU304      0.0001
    126  N         15.6350   48.2450   69.2880 N.3   306  ALA306     -0.1245
    127  CA        15.6550   47.1820   68.3300 C.3   306  ALA306      0.1562
    128  C         15.6010   45.8870   69.1190 C.2   306  ALA306      0.2260
    129  O         16.3070   45.7630   70.1260 O.2   306  ALA306     -0.2867
    130  CB        16.9730   47.2610   67.4750 C.3   306  ALA306      0.0290
    131  N         16.2680   41.8090   68.7660 N.3   308  TYR308     -0.1241
    132  CA        17.0940   40.8840   68.0290 C.3   308  TYR308      0.1605
    133  C         16.6350   39.4830   68.3920 C.2   308  TYR308      0.2264
    134  O         16.6650   39.0650   69.5390 O.2   308  TYR308     -0.2867
    135  CB        18.6270   41.0070   68.3820 C.3   308  TYR308      0.0534
    136  CG        19.2280   42.2110   67.7660 C.ar  308  TYR308     -0.0201
    137  CD1       19.0080   43.4450   68.3240 C.ar  308  TYR308     -0.0009
    138  CD2       19.9860   42.0940   66.6080 C.ar  308  TYR308     -0.0009
    139  CE1       19.5350   44.6520   67.7160 C.ar  308  TYR308      0.0417
    140  CE2       20.5230   43.2750   66.0000 C.ar  308  TYR308      0.0417
    141  CZ        20.2640   44.5070   66.5660 C.ar  308  TYR308      0.1957
    142  OH        20.7890   45.6940   66.0140 O.3   308  TYR308     -0.2866
    143  N         11.9960   48.1180   65.5460 N.3   337  VAL337     -0.1245
    144  CA        12.4270   47.1680   64.4710 C.3   337  VAL337      0.1561
    145  C         12.7000   45.8020   65.1470 C.2   337  VAL337      0.2260
    146  O         13.0330   45.7340   66.3420 O.2   337  VAL337     -0.2867
    147  CB        13.6700   47.7230   63.7260 C.3   337  VAL337      0.0252
    148  CG1       14.8930   47.7040   64.6630 C.3   337  VAL337      0.0019
    149  CG2       13.9420   47.0000   62.2980 C.3   337  VAL337      0.0019
    150  N         15.0350   42.4220   64.3130 N.3   339  ASN339     -0.1240
    151  CA        16.2000   42.0270   63.5070 C.3   339  ASN339      0.1653
    152  C         16.4480   40.5500   63.6890 C.2   339  ASN339      0.2266
    153  O         16.1990   40.0450   64.7460 O.2   339  ASN339     -0.2867
    154  CB        17.4900   42.7640   63.8860 C.3   339  ASN339      0.1155
    155  CG        17.3840   44.2890   63.5790 C.2   339  ASN339      0.2627
    156  OD1       16.8330   44.6720   62.5370 O.2   339  ASN339     -0.2716
    157  ND2       17.8590   45.1110   64.4990 N.am  339  ASN339     -0.0877
    158  N         22.4370   45.5590   55.0580 N.3   359  ASP359     -0.1225
    159  CA        23.5800   45.9340   54.2920 C.3   359  ASP359      0.1805
    160  C         24.7560   45.0080   54.5750 C.2   359  ASP359      0.2598
    161  O         25.6170   44.8070   53.7090 O.2   359  ASP359     -0.2718
    162  CB        23.9120   47.4100   54.6110 C.3   359  ASP359      0.1424
    163  CG        22.9710   48.3740   53.8840 C.2   359  ASP359      0.3668
    164  OD1       22.7040   48.1340   52.6820 O.co2 359  ASP359     -0.2456
    165  OD2       22.4920   49.3440   54.5140 O.co2 359  ASP359     -0.2456
    166  N         24.8000   44.4240   55.7640 N.am  360  GLY360     -0.1957
    167  CA        25.9910   43.6370   56.0540 C.3   360  GLY360      0.1869
    168  C         25.7020   42.2830   56.6040 C.2   360  GLY360      0.2309
    169  O         24.5200   41.7970   56.6100 O.2   360  GLY360     -0.2863
@<TRIPOS>BOND
     1    82    81    1
     2   164   163   ar
     3   161   160    2
     4    80    81   ar
     5    80    78   ar
     6    81    79   ar
     7   163   165   ar
     8   163   162    1
     9   159   160    1
    10   159   162    1
    11   159   158    1
    12   160   166   am
    13    79    77   ar
    14    78    76   ar
    15   104   103    2
    16    32    30   ar
    17   166   167    1
    18   167   168    1
    19   103   102    1
    20    77    76   ar
    21    76    75    1
    22    29    30    1
    23    29    26    1
    24    30    31   ar
    25   168   169    2
    26    28    27    2
    27    62    61    2
    28    27    26    1
    29   102   101    1
    30   102   105    1
    31    75    72    1
    32    26    25    1
    33   111   110   ar
    34   111   109   ar
    35    72    71    1
    36    72    73    1
    37   110   108   ar
    38    86    85    2
    39    61    71   am
    40    61    60    1
    41   109   107   ar
    42    59    60    1
    43    89    91   ar
    44    89    88   ar
    45   108   106   ar
    46   107   106   ar
    47   106   105    1
    48    91    92   ar
    49    83    73   am
    50    83    84    1
    51    25    19   am
    52    96    95    2
    53    58    57    2
    54    60    63    1
    55    73    74    2
    56    24    22   ar
    57    95    94    1
    58    85    84    1
    59    63    64    1
    60    87    88    1
    61    87    84    1
    62    88    90   ar
    63    92    90   ar
    64    19    20    2
    65    19    18    1
    66    97    94    1
    67    97    98    1
    68    57    56    1
    69    66    64   ar
    70    66    68   ar
    71    22    21    1
    72    22    23   ar
    73    64    65   ar
    74    94    93    1
    75    21    18    1
    76    99    98    1
    77    18    17    1
    78    56    55    1
    79    68    69   ar
    80    98   100    1
    81    42    40   ar
    82    42    43   ar
    83    65    67   ar
    84    40    38   ar
    85    43    41   ar
    86    17    10   am
    87    11    10    2
    88   149   147    1
    89    69    67   ar
    90    69    70    1
    91   156   155    2
    92    10     9    1
    93    33    34    1
    94    38    39   ar
    95    38    37    1
    96    41    39   ar
    97   151   152    1
    98   151   154    1
    99   151   150    1
   100   155   154    1
   101   155   157   am
   102    15    14   ar
   103   152   153    2
   104   147   144    1
   105   147   148    1
   106    12     9    1
   107    12    13    1
   108    37    34    1
   109     9     8    1
   110    34    35    1
   111    36    35    2
   112   144   145    1
   113   144   143    1
   114   125   123    1
   115     8     3   am
   116     6     5    1
   117    14    13    1
   118    14    16   ar
   119   124   123    1
   120   145   146    2
   121   123   122    1
   122    54    53   ar
   123    54    52   ar
   124     3     4    2
   125     3     2    1
   126   140   141   ar
   127   140   138   ar
   128   142   141    1
   129     5     2    1
   130     5     7    1
   131    53    51   ar
   132   122   119    1
   133    52    50   ar
   134   141   139   ar
   135     2     1    1
   136   138   136   ar
   137   117   116    1
   138   116   113    1
   139    51    49   ar
   140   130   127    1
   141    50    49   ar
   142   139   137   ar
   143   136   137   ar
   144   136   135    1
   145   119   118    1
   146   119   120    1
   147   132   135    1
   148   132   133    1
   149   132   131    1
   150    49    48    1
   151    44    45    1
   152   127   128    1
   153   127   126    1
   154   133   134    2
   155   120   121    2
   156   113   114    1
   157   113   112    1
   158   115   114    2
   159   128   129    2
   160    45    48    1
   161    45    46    1
   162    46    47    2
