@<TRIPOS>MOLECULE
tmp/4a97F01.pdb
 88 80 0 0 0
SMALL
GASTEIGER

@<TRIPOS>ATOM
      1  N       -100.2030 -132.2700  -16.4270 N.3     7  SER7       -0.1217
      2  CA       -98.8910 -132.8310  -16.7170 C.3     7  SER7        0.1889
      3  C        -98.2640 -131.9990  -17.8150 C.2     7  SER7        0.2288
      4  O        -98.9020 -131.7630  -18.8470 O.2     7  SER7       -0.2866
      5  CB       -98.9740 -134.2810  -17.1620 C.3     7  SER7        0.2089
      6  OG       -99.4600 -135.1130  -16.1350 O.3     7  SER7       -0.2183
      7  N        -95.0580 -131.7520  -20.3950 N.3     9  PHE9       -0.1241
      8  CA       -93.9500 -132.4760  -20.9760 C.3     9  PHE9        0.1605
      9  C        -93.0200 -131.4690  -21.6640 C.2     9  PHE9        0.2264
     10  O        -93.4260 -130.8440  -22.6510 O.2     9  PHE9       -0.2867
     11  CB       -94.4340 -133.4990  -22.0020 C.3     9  PHE9        0.0534
     12  CG       -95.2970 -134.5990  -21.4310 C.ar    9  PHE9       -0.0203
     13  CD1      -96.6270 -134.3950  -21.1300 C.ar    9  PHE9       -0.0042
     14  CD2      -94.7720 -135.8380  -21.1780 C.ar    9  PHE9       -0.0042
     15  CE1      -97.4080 -135.4230  -20.6220 C.ar    9  PHE9       -0.0003
     16  CE2      -95.5570 -136.8420  -20.6540 C.ar    9  PHE9       -0.0003
     17  CZ       -96.8620 -136.6220  -20.3800 C.ar    9  PHE9       -0.0000
     18  N        -90.0840 -130.2490  -24.0350 N.3    11  ASN11      -0.1240
     19  CA       -89.2890 -130.7340  -25.1750 C.3    11  ASN11       0.1653
     20  C        -87.9250 -130.0720  -25.2970 C.2    11  ASN11       0.2266
     21  O        -86.9140 -130.7390  -25.3960 O.2    11  ASN11      -0.2867
     22  CB       -90.0220 -130.6170  -26.5190 C.3    11  ASN11       0.1155
     23  CG       -91.1260 -131.6610  -26.6750 C.2    11  ASN11       0.2627
     24  OD1      -90.9690 -132.8080  -26.2610 O.2    11  ASN11      -0.2716
     25  ND2      -92.2210 -131.2850  -27.3250 N.am   11  ASN11      -0.0877
     26  N        -95.5220 -129.7180  -24.0740 N.3    28  TYR28      -0.1241
     27  CA       -96.9530 -129.9920  -24.1130 C.3    28  TYR28       0.1605
     28  C        -97.5890 -129.7800  -22.7390 C.2    28  TYR28       0.2264
     29  O        -96.9640 -130.1070  -21.7200 O.2    28  TYR28      -0.2867
     30  CB       -97.1890 -131.4420  -24.5450 C.3    28  TYR28       0.0534
     31  CG       -96.7380 -131.8330  -25.9600 C.ar   28  TYR28      -0.0201
     32  CD1      -95.4310 -132.1870  -26.2490 C.ar   28  TYR28      -0.0009
     33  CD2      -97.6540 -131.8510  -27.0070 C.ar   28  TYR28      -0.0009
     34  CE1      -95.0770 -132.5380  -27.5230 C.ar   28  TYR28       0.0417
     35  CE2      -97.2990 -132.1950  -28.2690 C.ar   28  TYR28       0.0417
     36  CZ       -96.0250 -132.5400  -28.5160 C.ar   28  TYR28       0.1957
     37  OH       -95.7060 -132.8870  -29.7930 O.3    28  TYR28      -0.2866
     38  N       -101.0100 -130.8930  -20.5930 N.3    30  VAL30      -0.1245
     39  CA      -102.2010 -131.7150  -20.5480 C.3    30  VAL30       0.1561
     40  C       -102.9550 -131.2710  -19.3070 C.2    30  VAL30       0.2260
     41  O       -102.3690 -131.2310  -18.2190 O.2    30  VAL30      -0.2867
     42  CB      -101.8650 -133.2220  -20.4420 C.3    30  VAL30       0.0252
     43  CG1     -102.7850 -134.0420  -21.3490 C.3    30  VAL30       0.0019
     44  CG2     -100.4400 -133.4840  -20.8310 C.3    30  VAL30       0.0019
     45  N       -106.0730 -130.0570  -28.6080 N.3    81  ARG81      -0.1245
     46  CA      -106.8390 -131.2870  -28.6490 C.3    81  ARG81       0.1563
     47  C       -107.7360 -131.3620  -27.4670 C.2    81  ARG81       0.2260
     48  O       -107.3070 -131.2140  -26.3230 O.2    81  ARG81      -0.2867
     49  CB      -105.8760 -132.4580  -28.5860 C.3    81  ARG81       0.0307
     50  CG      -106.4540 -133.8070  -28.8570 C.3    81  ARG81       0.0489
     51  CD      -105.3570 -134.8350  -28.6630 C.3    81  ARG81       0.2205
     52  NE      -105.3770 -135.5290  -27.3910 N.pl3  81  ARG81      -0.0865
     53  CZ      -104.4470 -136.3960  -27.0120 C.cat  81  ARG81       0.5346
     54  NH1     -103.4230 -136.6710  -27.7990 N.pl3  81  ARG81       0.1354
     55  NH2     -104.5520 -137.0000  -25.8460 N.pl3  81  ARG81       0.1354
     56  N       -110.1030 -134.1070  -25.5410 N.3    83  MET83      -0.1245
     57  CA      -110.4610 -135.5010  -25.4210 C.3    83  MET83       0.1570
     58  C       -111.6240 -135.6170  -24.4720 C.2    83  MET83       0.2261
     59  O       -111.4510 -135.4540  -23.2670 O.2    83  MET83      -0.2867
     60  CB      -109.2750 -136.2760  -24.9040 C.3    83  MET83       0.0387
     61  CG      -109.2900 -137.7000  -25.3110 C.3    83  MET83       0.0595
     62  SD      -107.6410 -138.2610  -24.9220 S.3    83  MET83      -0.1393
     63  CE      -107.8000 -140.0030  -25.3130 C.3    83  MET83       0.0692
     64  N       -109.9300 -133.9650  -21.2200 N.3    91  ILE91      -0.1245
     65  CA      -108.4820 -133.7630  -21.3130 C.3    91  ILE91       0.1561
     66  C       -108.1530 -132.7160  -22.3900 C.2    91  ILE91       0.2260
     67  O       -108.5480 -132.8380  -23.5580 O.2    91  ILE91      -0.2867
     68  CB      -107.7300 -135.0830  -21.5930 C.3    91  ILE91       0.0252
     69  CG1     -107.9920 -136.0580  -20.4460 C.3    91  ILE91       0.0019
     70  CG2     -106.2540 -134.8310  -21.7160 C.3    91  ILE91       0.0019
     71  CD1     -107.4790 -137.4560  -20.6480 C.3    91  ILE91       0.0001
     72  N       -105.1000 -131.0690  -24.2850 N.3    93  ASN93      -0.1240
     73  CA      -103.7250 -131.3500  -24.6750 C.3    93  ASN93       0.1653
     74  C       -103.4070 -130.3830  -25.7910 C.2    93  ASN93       0.2266
     75  O       -104.1990 -130.2420  -26.7360 O.2    93  ASN93      -0.2867
     76  CB      -103.5860 -132.8160  -25.1400 C.3    93  ASN93       0.1155
     77  CG      -102.1550 -133.2100  -25.5110 C.2    93  ASN93       0.2627
     78  OD1     -101.9450 -134.2230  -26.1840 O.2    93  ASN93      -0.2716
     79  ND2     -101.1720 -132.4290  -25.0610 N.am   93  ASN93      -0.0877
     80  N        -87.9790 -134.9030  -20.7870 N.3   140  GLU140     -0.1245
     81  CA       -87.6000 -135.9890  -21.6950 C.3   140  GLU140      0.1567
     82  C        -86.2670 -135.7580  -22.3880 C.2   140  GLU140      0.2260
     83  O        -86.1240 -135.9540  -23.5990 O.2   140  GLU140     -0.2867
     84  CB       -88.7290 -136.2160  -22.7010 C.3   140  GLU140      0.0388
     85  CG       -89.9340 -136.8880  -22.0360 C.3   140  GLU140      0.1160
     86  CD       -91.2520 -136.5950  -22.7190 C.2   140  GLU140      0.3649
     87  OE1      -91.3410 -135.5660  -23.4270 O.co2 140  GLU140     -0.2457
     88  OE2      -92.1990 -137.3890  -22.5230 O.co2 140  GLU140     -0.2457
@<TRIPOS>BOND
     1    37    36    1
     2    50    51    1
     3    50    49    1
     4    51    52    1
     5    46    45    1
     6    46    49    1
     7    46    47    1
     8    36    35   ar
     9    36    34   ar
    10    35    33   ar
    11    54    53    1
    12    34    32   ar
    13    47    48    2
    14    52    53    2
    15    25    23   am
    16    53    55    1
    17    33    31   ar
    18    75    74    2
    19    23    22    1
    20    23    24    2
    21    22    19    1
    22    32    31   ar
    23    78    77    2
    24    31    30    1
    25    74    73    1
    26    56    57    1
    27    77    76    1
    28    77    79   am
    29    57    60    1
    30    57    58    1
    31    21    20    2
    32    63    62    1
    33    61    62    1
    34    61    60    1
    35    20    19    1
    36    19    18    1
    37    76    73    1
    38    73    72    1
    39    30    27    1
    40    58    59    2
    41    27    26    1
    42    27    28    1
    43    83    82    2
    44    67    66    2
    45    87    86   ar
    46    28    29    2
    47    86    88   ar
    48    86    85    1
    49    84    85    1
    50    84    81    1
    51    10     9    2
    52    66    65    1
    53    82    81    1
    54    11    12    1
    55    11     8    1
    56    70    68    1
    57    81    80    1
    58     9     8    1
    59    68    65    1
    60    68    69    1
    61    12    14   ar
    62    12    13   ar
    63    43    42    1
    64    65    64    1
    65    14    16   ar
    66    13    15   ar
    67     8     7    1
    68    44    42    1
    69    16    17   ar
    70    71    69    1
    71    15    17   ar
    72    38    39    1
    73    39    42    1
    74    39    40    1
    75    40    41    2
    76     4     3    2
    77     3     2    1
    78     5     2    1
    79     5     6    1
    80     2     1    1
