@<TRIPOS>MOLECULE
tmp/4a97F00.pdb
 98 96 0 0 0
SMALL
GASTEIGER

@<TRIPOS>ATOM
      1  N       -103.3560 -119.6010  -17.2000 N.3    67  GLU67      -0.1245
      2  CA      -102.3300 -118.6170  -17.5700 C.3    67  GLU67       0.1567
      3  C       -100.9160 -119.0310  -17.1970 C.2    67  GLU67       0.2260
      4  O       -100.7210 -119.5970  -16.1190 O.2    67  GLU67      -0.2867
      5  CB      -102.5960 -117.2390  -16.9510 C.3    67  GLU67       0.0388
      6  CG      -101.4870 -116.2900  -17.3520 C.3    67  GLU67       0.1160
      7  CD      -101.7570 -114.8470  -17.0720 C.2    67  GLU67       0.3649
      8  OE1     -102.0940 -114.5360  -15.9100 O.co2  67  GLU67      -0.2457
      9  OE2     -101.6410 -114.0450  -18.0430 O.co2  67  GLU67      -0.2457
     10  N        -97.9550 -117.7270  -15.7670 N.3    69  ILE69      -0.1245
     11  CA       -97.7760 -116.5010  -14.9960 C.3    69  ILE69       0.1561
     12  C        -96.6480 -115.6260  -15.4790 C.2    69  ILE69       0.2260
     13  O        -96.8290 -114.4240  -15.6340 O.2    69  ILE69      -0.2867
     14  CB       -97.5560 -116.7970  -13.4890 C.3    69  ILE69       0.0252
     15  CG1      -98.8530 -117.3110  -12.8830 C.3    69  ILE69       0.0019
     16  CG2      -97.0370 -115.5940  -12.7570 C.3    69  ILE69       0.0019
     17  CD1     -100.0400 -116.3930  -13.1470 C.3    69  ILE69       0.0001
     18  N       -101.1880 -120.9430  -13.4800 N.3   121  GLU121     -0.1231
     19  CA      -102.2650 -120.5070  -12.5820 C.3   121  GLU121      0.1684
     20  C       -103.4840 -120.3170  -13.4860 C.2   121  GLU121      0.2434
     21  O       -103.3230 -119.8260  -14.5860 O.2   121  GLU121     -0.2733
     22  CB      -101.8490 -119.1960  -11.9380 C.3   121  GLU121      0.0402
     23  CG      -102.5730 -118.7710  -10.7270 C.3   121  GLU121      0.1161
     24  CD      -102.0580 -117.4390  -10.2270 C.2   121  GLU121      0.3649
     25  OE1     -100.9380 -117.3720   -9.6860 O.co2 121  GLU121     -0.2457
     26  OE2     -102.7590 -116.4390  -10.4410 O.co2 121  GLU121     -0.2457
     27  N       -104.6870 -120.7420  -13.0650 N.am  122  PRO122     -0.2718
     28  CA      -105.8970 -120.5770  -13.8820 C.3   122  PRO122      0.1535
     29  C       -106.0920 -119.0990  -14.0840 C.2   122  PRO122      0.2599
     30  O       -105.7960 -118.3570  -13.1430 O.2   122  PRO122     -0.2715
     31  CB      -107.0240 -121.0780  -12.9750 C.3   122  PRO122      0.0310
     32  CG      -106.3700 -121.8390  -11.8770 C.3   122  PRO122      0.0237
     33  CD      -105.0060 -121.2110  -11.7070 C.3   122  PRO122      0.0939
     34  N       -106.5160 -118.6350  -15.2500 N.am  123  PHE123     -0.1960
     35  CA      -106.6050 -117.1860  -15.4140 C.3   123  PHE123      0.1771
     36  C       -107.7710 -116.5370  -14.6520 C.2   123  PHE123      0.2620
     37  O       -107.5360 -115.5900  -13.9340 O.2   123  PHE123     -0.2715
     38  CB      -106.6090 -116.8000  -16.8910 C.3   123  PHE123      0.0574
     39  CG      -106.5860 -115.3270  -17.1250 C.ar  123  PHE123     -0.0200
     40  CD1     -105.4390 -114.6000  -16.9000 C.ar  123  PHE123     -0.0042
     41  CD2     -107.7070 -114.6720  -17.6160 C.ar  123  PHE123     -0.0042
     42  CE1     -105.4240 -113.2450  -17.1160 C.ar  123  PHE123     -0.0003
     43  CE2     -107.6870 -113.3080  -17.8510 C.ar  123  PHE123     -0.0003
     44  CZ      -106.5520 -112.6010  -17.5950 C.ar  123  PHE123     -0.0000
     45  N       -108.9810 -117.1060  -14.6920 N.am  124  SER124     -0.1950
     46  CA      -110.1670 -116.4380  -14.1060 C.3   124  SER124      0.1924
     47  C       -110.7770 -117.0940  -12.8880 C.2   124  SER124      0.2314
     48  O       -111.6600 -116.5070  -12.2780 O.2   124  SER124     -0.2863
     49  CB      -111.2850 -116.2150  -15.1270 C.3   124  SER124      0.2116
     50  OG      -110.7800 -116.2120  -16.4440 O.3   124  SER124     -0.2180
     51  N       -104.0440 -113.0290   -3.9010 N.3   165  TYR165     -0.1241
     52  CA      -104.0610 -111.6540   -4.4200 C.3   165  TYR165      0.1605
     53  C       -104.8060 -110.7140   -3.4790 C.2   165  TYR165      0.2264
     54  O       -106.0400 -110.6230   -3.5290 O.2   165  TYR165     -0.2867
     55  CB      -104.6690 -111.5870   -5.8190 C.3   165  TYR165      0.0534
     56  CG      -103.8370 -112.2900   -6.8870 C.ar  165  TYR165     -0.0201
     57  CD1     -102.4970 -111.9900   -7.0610 C.ar  165  TYR165     -0.0009
     58  CD2     -104.4040 -113.2210   -7.7310 C.ar  165  TYR165     -0.0009
     59  CE1     -101.7410 -112.6120   -8.0230 C.ar  165  TYR165      0.0417
     60  CE2     -103.6650 -113.8490   -8.6870 C.ar  165  TYR165      0.0417
     61  CZ      -102.3280 -113.5410   -8.8510 C.ar  165  TYR165      0.1957
     62  OH      -101.5850 -114.1700   -9.8510 O.3   165  TYR165     -0.2866
     63  N       -104.9090 -107.4740   -3.3720 N.3   167  HIS167     -0.1226
     64  CA      -105.4350 -106.2310   -3.9420 C.3   167  HIS167      0.1752
     65  C       -106.8690 -106.4620   -4.4270 C.2   167  HIS167      0.2595
     66  O       -107.3000 -107.6100   -4.5840 O.2   167  HIS167     -0.2718
     67  CB      -104.5400 -105.6720   -5.0420 C.3   167  HIS167      0.0759
     68  CG      -103.3000 -105.0090   -4.5390 C.ar  167  HIS167      0.0818
     69  ND1     -103.3320 -103.9100   -3.7070 N.ar  167  HIS167     -0.2268
     70  CD2     -101.9900 -105.2780   -4.7540 C.ar  167  HIS167      0.1154
     71  CE1     -102.0960 -103.5330   -3.4300 C.ar  167  HIS167      0.1986
     72  NE2     -101.2620 -104.3460   -4.0520 N.ar  167  HIS167     -0.2212
     73  N       -107.6180 -105.3810   -4.6030 N.am  168  LEU168     -0.1980
     74  CA      -109.0440 -105.4090   -4.2970 C.3   168  LEU168      0.1596
     75  C       -109.8240 -106.6840   -4.6500 C.2   168  LEU168      0.2287
     76  O       -110.6680 -106.7110   -5.5490 O.2   168  LEU168     -0.2864
     77  CB      -109.7440 -104.1140   -4.7230 C.3   168  LEU168      0.0297
     78  CG      -109.8650 -102.9950   -3.6520 C.3   168  LEU168      0.0022
     79  CD1     -110.2140 -103.4400   -2.2000 C.3   168  LEU168      0.0001
     80  CD2     -108.6470 -102.0750   -3.6840 C.3   168  LEU168      0.0001
     81  N       -114.2470 -107.0870   -4.4450 N.3   171  VAL171     -0.1245
     82  CA      -115.0780 -107.5550   -5.5400 C.3   171  VAL171      0.1561
     83  C       -115.6280 -108.9770   -5.2720 C.2   171  VAL171      0.2260
     84  O       -116.8450 -109.1850   -5.2460 O.2   171  VAL171     -0.2867
     85  CB      -114.2420 -107.4540   -6.8460 C.3   171  VAL171      0.0252
     86  CG1     -114.8080 -108.2980   -7.9430 C.3   171  VAL171      0.0019
     87  CG2     -114.1660 -106.0070   -7.2770 C.3   171  VAL171      0.0019
     88  N       -105.6890 -118.1110   -5.7070 N.3   178  PHE178     -0.1241
     89  CA      -105.6150 -118.9670   -6.8920 C.3   178  PHE178      0.1605
     90  C       -104.6290 -120.1040   -6.6830 C.2   178  PHE178      0.2264
     91  O       -103.6570 -119.9220   -5.9580 O.2   178  PHE178     -0.2867
     92  CB      -105.2620 -118.1080   -8.1040 C.3   178  PHE178      0.0534
     93  CG      -106.3720 -117.1910   -8.5230 C.ar  178  PHE178     -0.0203
     94  CD1     -106.8070 -116.1900   -7.6740 C.ar  178  PHE178     -0.0042
     95  CD2     -106.9490 -117.3060   -9.7780 C.ar  178  PHE178     -0.0042
     96  CE1     -107.8130 -115.3690   -8.0430 C.ar  178  PHE178     -0.0003
     97  CE2     -107.9590 -116.4780  -10.1520 C.ar  178  PHE178     -0.0003
     98  CZ      -108.3920 -115.5070   -9.2850 C.ar  178  PHE178     -0.0000
@<TRIPOS>BOND
     1     9     7   ar
     2    43    41   ar
     3    43    44   ar
     4    41    39   ar
     5    44    42   ar
     6     2     1    1
     7     2     3    1
     8     2     5    1
     9     6     7    1
    10     6     5    1
    11     3     4    2
    12    39    40   ar
    13    39    38    1
    14    42    40   ar
    15     7     8   ar
    16    38    35    1
    17    50    49    1
    18    10    11    1
    19    13    12    2
    20    12    11    1
    21    35    34    1
    22    35    36    1
    23    34    29   am
    24    49    46    1
    25    11    14    1
    26    45    36   am
    27    45    46    1
    28    36    37    2
    29    21    20    2
    30    46    47    1
    31    29    28    1
    32    29    30    2
    33    28    27    1
    34    28    31    1
    35    14    15    1
    36    14    16    1
    37    20    27   am
    38    20    19    1
    39    18    19    1
    40    17    15    1
    41    27    33    1
    42    31    32    1
    43    47    48    2
    44    19    22    1
    45    22    23    1
    46    32    33    1
    47    23    24    1
    48    26    24   ar
    49    24    25   ar
    50    97    95   ar
    51    97    98   ar
    52    62    61    1
    53    95    93   ar
    54    98    96   ar
    55    61    60   ar
    56    61    59   ar
    57    60    58   ar
    58    93    92    1
    59    93    94   ar
    60    92    89    1
    61    96    94   ar
    62    59    57   ar
    63    86    85    1
    64    58    56   ar
    65    87    85    1
    66    57    56   ar
    67    89    90    1
    68    89    88    1
    69    56    55    1
    70    85    82    1
    71    90    91    2
    72    55    52    1
    73    76    75    2
    74    82    83    1
    75    82    81    1
    76    83    84    2
    77    67    68    1
    78    67    64    1
    79    70    68   ar
    80    70    72   ar
    81    77    74    1
    82    77    78    1
    83    75    74    1
    84    73    65   am
    85    73    74    1
    86    66    65    2
    87    68    69   ar
    88    65    64    1
    89    52    51    1
    90    52    53    1
    91    72    71   ar
    92    64    63    1
    93    69    71   ar
    94    80    78    1
    95    78    79    1
    96    54    53    2
