@<TRIPOS>MOLECULE
tmp/4a98H00.pdb
 99 97 0 0 0
SMALL
GASTEIGER

@<TRIPOS>ATOM
      1  N       -102.1840 -122.5390  -56.8270 N.3    67  GLU67      -0.1245
      2  CA      -101.0350 -122.5060  -55.9290 C.3    67  GLU67       0.1567
      3  C        -99.7460 -122.0410  -56.6030 C.2    67  GLU67       0.2260
      4  O        -99.4770 -122.3930  -57.7540 O.2    67  GLU67      -0.2867
      5  CB      -100.8050 -123.8960  -55.3140 C.3    67  GLU67       0.0388
      6  CG       -99.9520 -123.8670  -54.0550 C.3    67  GLU67       0.1160
      7  CD       -99.4380 -125.2060  -53.5720 C.2    67  GLU67       0.3649
      8  OE1      -98.6790 -125.8610  -54.3230 O.co2  67  GLU67      -0.2457
      9  OE2      -99.7620 -125.5820  -52.4230 O.co2  67  GLU67      -0.2457
     10  N        -96.1320 -122.6770  -56.8740 N.3    69  ILE69      -0.1245
     11  CA       -95.2640 -123.8490  -56.7180 C.3    69  ILE69       0.1561
     12  C        -93.9570 -123.5030  -55.9710 C.2    69  ILE69       0.2260
     13  O        -93.5690 -124.2380  -55.0590 O.2    69  ILE69      -0.2867
     14  CB       -94.9870 -124.4950  -58.1160 C.3    69  ILE69       0.0252
     15  CG1      -96.2850 -125.0380  -58.7840 C.3    69  ILE69       0.0019
     16  CG2      -93.8680 -125.5520  -58.0910 C.3    69  ILE69       0.0019
     17  CD1      -97.0670 -126.2010  -58.0450 C.3    69  ILE69       0.0001
     18  N        -99.7950 -122.9440  -60.7760 N.3   121  GLU121     -0.1231
     19  CA      -100.3930 -124.2250  -61.1600 C.3   121  GLU121      0.1684
     20  C       -101.6510 -124.5100  -60.3180 C.2   121  GLU121      0.2434
     21  O       -101.6110 -124.2600  -59.1080 O.2   121  GLU121     -0.2733
     22  CB       -99.3500 -125.3430  -60.9510 C.3   121  GLU121      0.0402
     23  CG       -99.6340 -126.6610  -61.6450 C.3   121  GLU121      0.1161
     24  CD       -98.6680 -127.7600  -61.2540 C.2   121  GLU121      0.3649
     25  OE1      -97.4940 -127.7050  -61.6870 O.co2 121  GLU121     -0.2457
     26  OE2      -99.0830 -128.6720  -60.5040 O.co2 121  GLU121     -0.2457
     27  N       -102.7610 -125.0490  -60.8990 N.am  122  PRO122     -0.2718
     28  CA      -103.9390 -125.3720  -60.0710 C.3   122  PRO122      0.1535
     29  C       -103.6160 -126.5150  -59.1110 C.2   122  PRO122      0.2598
     30  O       -102.9600 -127.4830  -59.5010 O.2   122  PRO122     -0.2715
     31  CB      -105.0140 -125.7630  -61.0970 C.3   122  PRO122      0.0310
     32  CG      -104.4740 -125.3560  -62.4220 C.3   122  PRO122      0.0237
     33  CD      -102.9930 -125.4270  -62.3050 C.3   122  PRO122      0.0939
     34  N       -104.0310 -126.3730  -57.8470 N.am  123  PHE123     -0.1974
     35  CA      -103.7300 -127.3290  -56.7870 C.3   123  PHE123      0.1639
     36  C       -104.4680 -128.6650  -56.9220 C.2   123  PHE123      0.2290
     37  O       -103.8980 -129.6940  -56.5500 O.2   123  PHE123     -0.2864
     38  CB      -104.0360 -126.7140  -55.4110 C.3   123  PHE123      0.0560
     39  CG      -103.5140 -127.5120  -54.2400 C.ar  123  PHE123     -0.0200
     40  CD1     -102.1560 -127.5380  -53.9440 C.ar  123  PHE123     -0.0042
     41  CD2     -104.3790 -128.2390  -53.4330 C.ar  123  PHE123     -0.0042
     42  CE1     -101.6720 -128.2850  -52.8670 C.ar  123  PHE123     -0.0003
     43  CE2     -103.8940 -128.9810  -52.3530 C.ar  123  PHE123     -0.0003
     44  CZ      -102.5450 -128.9990  -52.0770 C.ar  123  PHE123     -0.0000
     45  N        -96.4040 -135.6460  -63.6020 N.3   165  TYR165     -0.1241
     46  CA       -95.8260 -136.1700  -62.3690 C.3   165  TYR165      0.1605
     47  C        -95.6450 -137.6860  -62.4430 C.2   165  TYR165      0.2264
     48  O        -96.5220 -138.3920  -62.9500 O.2   165  TYR165     -0.2867
     49  CB       -96.6930 -135.7910  -61.1600 C.3   165  TYR165      0.0534
     50  CG       -96.7400 -134.3080  -60.8700 C.ar  165  TYR165     -0.0201
     51  CD1      -95.6680 -133.6610  -60.2600 C.ar  165  TYR165     -0.0009
     52  CD2      -97.8710 -133.5570  -61.1690 C.ar  165  TYR165     -0.0009
     53  CE1      -95.7100 -132.2960  -59.9840 C.ar  165  TYR165      0.0417
     54  CE2      -97.9270 -132.1930  -60.8920 C.ar  165  TYR165      0.0417
     55  CZ       -96.8440 -131.5670  -60.2980 C.ar  165  TYR165      0.1957
     56  OH       -96.8890 -130.2250  -60.0190 O.3   165  TYR165     -0.2866
     57  N        -95.1810 -139.8860  -59.6820 N.3   167  HIS167     -0.1241
     58  CA       -95.9850 -140.3640  -58.5400 C.3   167  HIS167      0.1621
     59  C        -95.8200 -141.8590  -58.1850 C.2   167  HIS167      0.2264
     60  O        -95.7010 -142.1590  -56.9960 O.2   167  HIS167     -0.2867
     61  CB       -97.4860 -140.0180  -58.6740 C.3   167  HIS167      0.0745
     62  CG       -98.2340 -140.7050  -59.7760 C.ar  167  HIS167      0.0817
     63  ND1      -98.3760 -140.1220  -61.0220 N.ar  167  HIS167     -0.2268
     64  CD2      -98.9110 -141.8780  -59.7630 C.ar  167  HIS167      0.1154
     65  CE1      -99.1060 -140.9670  -61.7330 C.ar  167  HIS167      0.1986
     66  NE2      -99.4490 -142.0390  -61.0190 N.ar  167  HIS167     -0.2212
     67  N       -100.4170 -145.2070  -57.3930 N.3   170  SER170     -0.1202
     68  CA      -101.4940 -144.3280  -56.8980 C.3   170  SER170      0.2020
     69  C       -102.8990 -144.7590  -57.4180 C.2   170  SER170      0.2619
     70  O       -103.0850 -145.9260  -57.7780 O.2   170  SER170     -0.2717
     71  CB      -101.2090 -142.8660  -57.2370 C.3   170  SER170      0.2103
     72  OG      -100.0630 -142.3970  -56.5980 O.3   170  SER170     -0.2182
     73  N       -103.8860 -143.8310  -57.4090 N.am  171  VAL171     -0.1965
     74  CA      -105.2600 -144.0920  -57.8540 C.3   171  VAL171      0.1727
     75  C       -105.5150 -143.5220  -59.2610 C.2   171  VAL171      0.2616
     76  O       -106.1820 -144.1830  -60.0630 O.2   171  VAL171     -0.2715
     77  CB      -106.2980 -143.5520  -56.8470 C.3   171  VAL171      0.0290
     78  CG1     -107.7270 -143.8130  -57.3110 C.3   171  VAL171      0.0023
     79  CG2     -106.0930 -144.2610  -55.5060 C.3   171  VAL171      0.0023
     80  N       -104.9960 -142.3030  -59.5530 N.am  172  GLN172     -0.1977
     81  CA      -105.1520 -141.6320  -60.8480 C.3   172  GLN172      0.1601
     82  C       -104.2340 -142.2800  -61.9130 C.2   172  GLN172      0.2287
     83  O       -103.0120 -142.3080  -61.7180 O.2   172  GLN172     -0.2864
     84  CB      -104.8660 -140.1290  -60.7170 C.3   172  GLN172      0.0394
     85  CG      -105.7400 -139.4770  -59.6360 C.3   172  GLN172      0.0908
     86  CD      -107.2180 -139.4400  -60.0130 C.2   172  GLN172      0.2608
     87  OE1     -107.5980 -138.9930  -61.0910 O.2   172  GLN172     -0.2717
     88  NE2     -108.0440 -140.0020  -59.1460 N.am  172  GLN172     -0.0878
     89  N       -100.6700 -131.4570  -65.4790 N.3   178  PHE178     -0.1241
     90  CA      -101.1600 -130.1640  -64.9820 C.3   178  PHE178      0.1605
     91  C       -100.5440 -128.9910  -65.7420 C.2   178  PHE178      0.2264
     92  O        -99.3280 -128.9770  -65.9490 O.2   178  PHE178     -0.2867
     93  CB      -100.8330 -130.0140  -63.4830 C.3   178  PHE178      0.0534
     94  CG      -101.6400 -130.8620  -62.5300 C.ar  178  PHE178     -0.0203
     95  CD1     -101.2990 -132.1880  -62.2930 C.ar  178  PHE178     -0.0042
     96  CD2     -102.6920 -130.3140  -61.8090 C.ar  178  PHE178     -0.0042
     97  CE1     -102.0310 -132.9640  -61.3940 C.ar  178  PHE178     -0.0003
     98  CE2     -103.4210 -131.0910  -60.9060 C.ar  178  PHE178     -0.0003
     99  CZ      -103.0870 -132.4110  -60.7070 C.ar  178  PHE178     -0.0000
@<TRIPOS>BOND
     1    92    91    2
     2    91    90    1
     3    89    90    1
     4    90    93    1
     5    45    46    1
     6    93    94    1
     7    48    47    2
     8    94    95   ar
     9    94    96   ar
    10    47    46    1
    11    32    33    1
    12    32    31    1
    13    46    49    1
    14    33    27    1
    15    95    97   ar
    16    82    83    2
    17    82    81    1
    18    96    98   ar
    19    65    63   ar
    20    65    66   ar
    21    25    24   ar
    22    23    24    1
    23    23    22    1
    24    97    99   ar
    25    24    26   ar
    26    52    54   ar
    27    52    50   ar
    28    49    50    1
    29    19    22    1
    30    19    18    1
    31    19    20    1
    32    31    28    1
    33    87    86    2
    34    63    62   ar
    35    66    64   ar
    36    98    99   ar
    37    27    20   am
    38    27    28    1
    39    54    55   ar
    40    50    51   ar
    41    81    84    1
    42    81    80    1
    43    84    85    1
    44    20    21    2
    45    55    56    1
    46    55    53   ar
    47    51    53   ar
    48    28    29    1
    49    76    75    2
    50    86    85    1
    51    86    88   am
    52    62    64   ar
    53    62    61    1
    54    57    58    1
    55    80    75   am
    56    30    29    2
    57    75    74    1
    58    29    34   am
    59    15    14    1
    60    15    17    1
    61    61    58    1
    62    58    59    1
    63    59    60    2
    64    14    16    1
    65    14    11    1
    66    74    73    1
    67    74    77    1
    68    34    35    1
    69    70    69    2
    70     4     3    2
    71    69    73   am
    72    69    68    1
    73    67    68    1
    74    78    77    1
    75    71    68    1
    76    71    72    1
    77    36    35    1
    78    36    37    2
    79    10    11    1
    80    77    79    1
    81     1     2    1
    82    35    38    1
    83    11    12    1
    84     3     2    1
    85    12    13    2
    86     2     5    1
    87    38    39    1
    88     5     6    1
    89     8     7   ar
    90    39    40   ar
    91    39    41   ar
    92     6     7    1
    93    40    42   ar
    94     7     9   ar
    95    41    43   ar
    96    42    44   ar
    97    43    44   ar
