@<TRIPOS>MOLECULE
tmp/4a99D02.pdb
 101 95 0 0 0
SMALL
GASTEIGER

@<TRIPOS>ATOM
      1  N         13.2390  -31.0750   19.8220 N.3    52  HIS52      -0.1226
      2  CA        13.2870  -32.1670   20.7540 C.3    52  HIS52       0.1752
      3  C         14.6300  -32.2410   21.3690 C.2    52  HIS52       0.2596
      4  O         15.6340  -32.0250   20.6800 O.2    52  HIS52      -0.2718
      5  CB        13.0230  -33.4860   20.0350 C.3    52  HIS52       0.0759
      6  CG        11.6220  -33.6570   19.5190 C.ar   52  HIS52       0.0818
      7  ND1       11.2490  -34.7390   18.8060 N.ar   52  HIS52      -0.2268
      8  CD2       10.4860  -32.8430   19.6180 C.ar   52  HIS52       0.1154
      9  CE1        9.9580  -34.6340   18.4520 C.ar   52  HIS52       0.1986
     10  NE2        9.4750  -33.4730   18.9580 N.ar   52  HIS52      -0.2212
     11  N         14.6620  -32.6130   22.6520 N.am   53  LYS53      -0.1966
     12  CA        15.8890  -32.9320   23.3740 C.3    53  LYS53       0.1728
     13  C         16.5470  -34.1170   22.7260 C.2    53  LYS53       0.2617
     14  O         15.8740  -35.0490   22.2510 O.2    53  LYS53      -0.2715
     15  CB        15.5830  -33.2190   24.8420 C.3    53  LYS53       0.0311
     16  CG        15.0770  -31.9930   25.6040 C.3    53  LYS53       0.0038
     17  CD        14.8750  -32.3380   27.0750 C.3    53  LYS53       0.0206
     18  CE        15.2300  -31.1610   27.9650 C.3    53  LYS53       0.1093
     19  NZ        15.4260  -31.6120   29.3740 N.3    53  LYS53      -0.1314
     20  N         17.8650  -34.0640   22.6310 N.am   54  GLY54      -0.1940
     21  CA        18.5990  -35.1250   21.8800 C.3    54  GLY54       0.2014
     22  C         18.6800  -34.8980   20.3940 C.2    54  GLY54       0.2639
     23  O         19.4970  -35.5350   19.7220 O.2    54  GLY54      -0.2714
     24  N         17.8470  -33.9970   19.8460 N.am   55  SER55      -0.1949
     25  CA        17.9280  -33.6950   18.3930 C.3    55  SER55       0.1924
     26  C         17.9270  -32.2110   18.0090 C.2    55  SER55       0.2314
     27  O         18.9780  -31.5490   18.0250 O.2    55  SER55      -0.2863
     28  CB        16.8910  -34.5370   17.6010 C.3    55  SER55       0.2116
     29  OG        15.5150  -34.3620   17.9510 O.3    55  SER55      -0.2180
     30  N         10.7210  -29.7460   27.3310 N.3   100  ASP100     -0.1239
     31  CA        10.8790  -30.9490   26.5020 C.3   100  ASP100      0.1674
     32  C         10.7390  -30.6540   25.0170 C.2   100  ASP100      0.2266
     33  O         11.5340  -31.1490   24.1920 O.2   100  ASP100     -0.2867
     34  CB         9.8760  -32.0420   26.8690 C.3   100  ASP100      0.1410
     35  CG        10.1020  -32.6180   28.2400 C.2   100  ASP100      0.3668
     36  OD1       11.1030  -32.2970   28.9580 O.co2 100  ASP100     -0.2456
     37  OD2        9.2360  -33.4280   28.5710 O.co2 100  ASP100     -0.2456
     38  N          9.1010  -35.3190   13.4380 N.3   307  GLN307     -0.1245
     39  CA        10.4940  -35.6240   13.1150 C.3   307  GLN307      0.1566
     40  C         11.0790  -34.7220   12.0290 C.2   307  GLN307      0.2260
     41  O         12.2830  -34.7620   11.7950 O.2   307  GLN307     -0.2867
     42  CB        10.6320  -37.1090   12.6900 C.3   307  GLN307      0.0367
     43  CG        10.2960  -38.1440   13.7600 C.3   307  GLN307      0.0905
     44  CD        11.0190  -37.8860   15.0740 C.2   307  GLN307      0.2608
     45  OE1       12.2490  -37.7640   15.1180 O.2   307  GLN307     -0.2717
     46  NE2       10.2500  -37.7990   16.1590 N.am  307  GLN307     -0.0878
     47  N         13.4020  -31.6870   13.3470 N.3   310  ASN310     -0.1225
     48  CA        14.3940  -32.2260   14.2900 C.3   310  ASN310      0.1785
     49  C         15.5070  -33.0280   13.5660 C.2   310  ASN310      0.2597
     50  O         16.6940  -32.7610   13.8010 O.2   310  ASN310     -0.2718
     51  CB        13.7040  -33.0240   15.3890 C.3   310  ASN310      0.1169
     52  CG        13.1070  -32.1170   16.4310 C.2   310  ASN310      0.2627
     53  OD1       13.8370  -31.4870   17.2410 O.2   310  ASN310     -0.2716
     54  ND2       11.7810  -32.0200   16.4340 N.am  310  ASN310     -0.0877
     55  N         15.1270  -33.9410   12.6620 N.am  311  SER311     -0.1952
     56  CA        16.1470  -34.6750   11.8920 C.3   311  SER311      0.1924
     57  C         16.9140  -33.6960   11.0270 C.2   311  SER311      0.2314
     58  O         18.1440  -33.7780   10.8940 O.2   311  SER311     -0.2863
     59  CB        15.5120  -35.7670   11.0030 C.3   311  SER311      0.2116
     60  OG        14.5890  -35.1990   10.0950 O.3   311  SER311     -0.2180
     61  N         19.5250  -32.0460   13.2020 N.3   314  VAL314     -0.1245
     62  CA        20.5930  -33.0080   13.3650 C.3   314  VAL314      0.1561
     63  C         21.5240  -33.0570   12.1370 C.2   314  VAL314      0.2260
     64  O         22.7380  -33.0540   12.3150 O.2   314  VAL314     -0.2867
     65  CB        20.0250  -34.3960   13.7170 C.3   314  VAL314      0.0252
     66  CG1       21.1440  -35.4330   13.7780 C.3   314  VAL314      0.0019
     67  CG2       19.3200  -34.3270   15.0760 C.3   314  VAL314      0.0019
     68  N         25.5730  -32.6970   12.3360 N.3   318  ILE318     -0.1245
     69  CA        26.5070  -33.7110   11.8690 C.3   318  ILE318      0.1561
     70  C         27.3310  -33.2460   10.6930 C.2   318  ILE318      0.2260
     71  O         28.5600  -33.3830   10.7230 O.2   318  ILE318     -0.2867
     72  CB        25.7520  -34.9870   11.5270 C.3   318  ILE318      0.0252
     73  CG1       25.1860  -35.5320   12.8560 C.3   318  ILE318      0.0019
     74  CG2       26.7010  -36.0100   10.9100 C.3   318  ILE318      0.0019
     75  CD1       24.2210  -36.6550   12.5920 C.3   318  ILE318      0.0001
     76  N         19.5360  -42.5870   10.6450 N.3   345  TYR345     -0.1241
     77  CA        18.5160  -41.9260   11.5030 C.3   345  TYR345      0.1605
     78  C         17.3660  -41.3320   10.7000 C.2   345  TYR345      0.2264
     79  O         16.2390  -41.4100   11.1060 O.2   345  TYR345     -0.2867
     80  CB        19.1290  -40.9300   12.5340 C.3   345  TYR345      0.0534
     81  CG        19.7810  -39.7040   11.9610 C.ar  345  TYR345     -0.0201
     82  CD1       19.0300  -38.6900   11.3920 C.ar  345  TYR345     -0.0009
     83  CD2       21.1630  -39.5650   11.9820 C.ar  345  TYR345     -0.0009
     84  CE1       19.6250  -37.5710   10.8560 C.ar  345  TYR345      0.0417
     85  CE2       21.7810  -38.4260   11.4590 C.ar  345  TYR345      0.0417
     86  CZ        21.0110  -37.4360   10.8930 C.ar  345  TYR345      0.1957
     87  OH        21.6280  -36.3050   10.3850 O.3   345  TYR345     -0.2866
     88  N         14.9690  -44.0920    9.9050 N.3   348  GLU348     -0.1231
     89  CA        14.1830  -44.3320   11.1270 C.3   348  GLU348      0.1699
     90  C         13.0960  -43.2390   11.3620 C.2   348  GLU348      0.2592
     91  O         11.9620  -43.5320   11.6960 O.2   348  GLU348     -0.2718
     92  CB        15.1050  -44.4360   12.3260 C.3   348  GLU348      0.0402
     93  CG        14.7790  -45.6270   13.2170 C.3   348  GLU348      0.1161
     94  CD        15.4590  -45.5700   14.5770 C.2   348  GLU348      0.3649
     95  OE1       16.7030  -45.7020   14.6040 O.co2 348  GLU348     -0.2457
     96  OE2       14.7570  -45.4000   15.6140 O.co2 348  GLU348     -0.2457
     97  N         13.4430  -41.9750   11.1580 N.am  349  ALA349     -0.1980
     98  CA        12.4450  -40.9200   11.2630 C.3   349  ALA349      0.1597
     99  C         11.3560  -41.0650   10.1860 C.2   349  ALA349      0.2287
    100  O         10.1870  -40.8690   10.4950 O.2   349  ALA349     -0.2864
    101  CB        13.0750  -39.5360   11.2220 C.3   349  ALA349      0.0319
@<TRIPOS>BOND
     1    88    89    1
     2    60    59    1
     3    99   100    2
     4    99    98    1
     5    87    86    1
     6    76    77    1
     7    70    71    2
     8    70    69    1
     9    78    79    2
    10    78    77    1
    11    84    86   ar
    12    84    82   ar
    13    86    85   ar
    14    58    57    2
    15    74    72    1
    16    59    56    1
    17    57    56    1
    18    89    90    1
    19    89    92    1
    20    97    98    1
    21    97    90   am
    22   101    98    1
    23    90    91    2
    24    82    81   ar
    25    85    83   ar
    26    77    80    1
    27    72    69    1
    28    72    73    1
    29    41    40    2
    30    69    68    1
    31    56    55    1
    32    81    83   ar
    33    81    80    1
    34    40    39    1
    35    63    64    2
    36    63    62    1
    37    92    93    1
    38    75    73    1
    39    55    49   am
    40    42    39    1
    41    42    43    1
    42    39    38    1
    43    61    62    1
    44    93    94    1
    45    47    48    1
    46    62    65    1
    47    49    50    2
    48    49    48    1
    49    65    66    1
    50    65    67    1
    51    43    44    1
    52    48    51    1
    53    94    95   ar
    54    94    96   ar
    55    44    45    2
    56    44    46   am
    57    51    52    1
    58    52    54   am
    59    52    53    2
    60    28    29    1
    61    28    25    1
    62    26    27    2
    63    26    25    1
    64    25    24    1
    65     9     7   ar
    66     9    10   ar
    67     7     6   ar
    68    10     8   ar
    69     6     8   ar
    70     6     5    1
    71    23    22    2
    72     1     2    1
    73    24    22   am
    74     5     2    1
    75    22    21    1
    76     4     3    2
    77     2     3    1
    78     3    11   am
    79    21    20    1
    80    14    13    2
    81    20    13   am
    82    11    12    1
    83    13    12    1
    84    12    15    1
    85    33    32    2
    86    15    16    1
    87    32    31    1
    88    16    17    1
    89    31    34    1
    90    31    30    1
    91    34    35    1
    92    17    18    1
    93    18    19    1
    94    35    37   ar
    95    35    36   ar
