@<TRIPOS>MOLECULE
tmp/4a9cB00.pdb
 147 140 0 0 0
SMALL
GASTEIGER

@<TRIPOS>ATOM
      1  N          0.7730   37.3170  -53.3540 N.3    49  GLU49      -0.1245
      2  CA         2.1370   37.5420  -53.8520 C.3    49  GLU49       0.1567
      3  C          2.8540   36.1800  -54.0440 C.2    49  GLU49       0.2260
      4  O          4.0130   36.0110  -53.6560 O.2    49  GLU49      -0.2867
      5  CB         2.9300   38.4990  -52.9360 C.3    49  GLU49       0.0388
      6  CG         2.4180   39.9300  -52.9520 C.3    49  GLU49       0.1160
      7  CD         3.1470   40.8800  -52.0200 C.2    49  GLU49       0.3649
      8  OE1        4.3750   41.0570  -52.1870 O.co2  49  GLU49      -0.2457
      9  OE2        2.4820   41.4710  -51.1390 O.co2  49  GLU49      -0.2457
     10  N         -1.5960   42.1980  -58.7140 N.3   109  ASN109     -0.1225
     11  CA        -2.1090   43.4410  -58.1490 C.3   109  ASN109      0.1785
     12  C         -3.0400   43.1250  -56.9530 C.2   109  ASN109      0.2597
     13  O         -2.6530   42.3290  -56.0930 O.2   109  ASN109     -0.2718
     14  CB        -2.8070   44.2820  -59.2420 C.3   109  ASN109      0.1169
     15  CG        -3.0220   45.7540  -58.9310 C.2   109  ASN109      0.2627
     16  OD1       -3.8470   46.4200  -59.5630 O.2   109  ASN109     -0.2716
     17  ND2       -2.3020   46.3040  -57.9590 N.am  109  ASN109     -0.0877
     18  N         -4.2370   43.7470  -56.8820 N.am  110  LYS110     -0.1980
     19  CA        -5.1800   43.5600  -55.7780 C.3   110  LYS110      0.1596
     20  C         -6.5090   42.9980  -56.2630 C.2   110  LYS110      0.2287
     21  O         -6.9110   43.2240  -57.4070 O.2   110  LYS110     -0.2864
     22  CB        -5.4180   44.8850  -55.0200 C.3   110  LYS110      0.0298
     23  CG        -4.1550   45.5620  -54.4790 C.3   110  LYS110      0.0038
     24  CD        -3.5800   44.8760  -53.2380 C.3   110  LYS110      0.0206
     25  CE        -2.1700   45.3210  -52.9260 C.3   110  LYS110      0.1093
     26  NZ        -2.1100   46.7390  -52.4780 N.3   110  LYS110     -0.1314
     27  N         -6.6550   40.0110  -51.2970 N.3   130  HIS130     -0.1241
     28  CA        -5.5200   40.9030  -51.0980 C.3   130  HIS130      0.1621
     29  C         -6.0670   42.3100  -51.2940 C.2   130  HIS130      0.2264
     30  O         -6.3120   42.7260  -52.4310 O.2   130  HIS130     -0.2867
     31  CB        -4.3610   40.5630  -52.0560 C.3   130  HIS130      0.0745
     32  CG        -3.0680   41.2650  -51.7570 C.ar  130  HIS130      0.0817
     33  ND1       -1.9960   41.1920  -52.6290 N.ar  130  HIS130     -0.2268
     34  CD2       -2.7040   42.0120  -50.6860 C.ar  130  HIS130      0.1154
     35  CE1       -1.0260   41.8970  -52.0700 C.ar  130  HIS130      0.1986
     36  NE2       -1.4060   42.4110  -50.9020 N.ar  130  HIS130     -0.2212
     37  N         -6.3910   46.6970  -50.4790 N.3   132  THR132     -0.1203
     38  CA        -5.5910   47.9260  -50.5740 C.3   132  THR132      0.1994
     39  C         -4.6720   48.0700  -49.3490 C.2   132  THR132      0.2619
     40  O         -5.0880   47.7940  -48.2250 O.2   132  THR132     -0.2717
     41  CB        -6.5370   49.1380  -50.7470 C.3   132  THR132      0.1784
     42  OG1       -7.2740   48.9740  -51.9610 O.3   132  THR132     -0.2211
     43  CG2       -5.8060   50.4780  -50.7850 C.3   132  THR132      0.0376
     44  N         -3.4140   48.4680  -49.5910 N.am  133  SER133     -0.1937
     45  CA        -2.3940   48.6610  -48.5620 C.3   133  SER133      0.2055
     46  C         -2.3970   50.1110  -48.0530 C.2   133  SER133      0.2644
     47  O         -2.9960   50.9820  -48.6870 O.2   133  SER133     -0.2714
     48  CB        -1.0210   48.2950  -49.1170 C.3   133  SER133      0.2130
     49  OG        -1.0010   46.9720  -49.6260 O.3   133  SER133     -0.2179
     50  N         -1.7340   50.3480  -46.9190 N.am  134  GLY134     -0.1939
     51  CA        -1.6230   51.6710  -46.3120 C.3   134  GLY134      0.2014
     52  C         -2.4450   51.8520  -45.0530 C.2   134  GLY134      0.2639
     53  O         -3.5620   51.3390  -44.9640 O.2   134  GLY134     -0.2714
     54  N         -1.8980   52.6050  -44.0800 N.am  135  ASN135     -0.1958
     55  CA        -2.5340   52.8930  -42.7890 C.3   135  ASN135      0.1819
     56  C         -3.7860   53.7670  -42.9230 C.2   135  ASN135      0.2621
     57  O         -4.7360   53.5780  -42.1630 O.2   135  ASN135     -0.2715
     58  CB        -1.5440   53.5920  -41.8420 C.3   135  ASN135      0.1195
     59  CG        -0.3470   52.7740  -41.4160 C.2   135  ASN135      0.2630
     60  OD1       -0.3440   51.5380  -41.4350 O.2   135  ASN135     -0.2716
     61  ND2        0.7050   53.4600  -40.9970 N.am  135  ASN135     -0.0877
     62  N         -3.7720   54.7340  -43.8630 N.am  136  GLU136     -0.1963
     63  CA        -4.8590   55.6980  -44.0820 C.3   136  GLU136      0.1733
     64  C         -5.8630   55.2360  -45.1600 C.2   136  GLU136      0.2616
     65  O         -6.7370   56.0180  -45.5460 O.2   136  GLU136     -0.2715
     66  CB        -4.2790   57.0790  -44.4810 C.3   136  GLU136      0.0429
     67  CG        -3.1660   57.6240  -43.5890 C.3   136  GLU136      0.1163
     68  CD        -3.5110   57.9470  -42.1470 C.2   136  GLU136      0.3649
     69  OE1       -4.6250   58.4600  -41.8900 O.co2 136  GLU136     -0.2457
     70  OE2       -2.6410   57.7270  -41.2740 O.co2 136  GLU136     -0.2457
     71  N         -5.7550   53.9810  -45.6350 N.am  137  LYS137     -0.1977
     72  CA        -6.6290   53.4810  -46.7010 C.3   137  LYS137      0.1596
     73  C         -7.6620   52.4530  -46.1820 C.2   137  LYS137      0.2287
     74  O         -7.9150   51.4360  -46.8360 O.2   137  LYS137     -0.2864
     75  CB        -5.7900   52.8970  -47.8610 C.3   137  LYS137      0.0298
     76  CG        -4.7150   53.8410  -48.4210 C.3   137  LYS137      0.0038
     77  CD        -5.2760   55.0030  -49.2380 C.3   137  LYS137      0.0206
     78  CE        -4.2220   56.0520  -49.4870 C.3   137  LYS137      0.1093
     79  NZ        -4.7600   57.2010  -50.2600 N.3   137  LYS137     -0.1314
     80  N        -10.9090   52.5310  -48.5340 N.3   140  ARG140     -0.1245
     81  CA       -10.6780   51.8180  -49.7920 C.3   140  ARG140      0.1563
     82  C        -10.7880   50.3070  -49.5810 C.2   140  ARG140      0.2260
     83  O        -11.3810   49.6300  -50.4210 O.2   140  ARG140     -0.2867
     84  CB        -9.3250   52.1880  -50.4130 C.3   140  ARG140      0.0307
     85  CG        -9.4780   53.0300  -51.6730 C.3   140  ARG140      0.0489
     86  CD        -8.2950   52.8820  -52.6110 C.3   140  ARG140      0.2205
     87  NE        -7.3230   53.9660  -52.4550 N.pl3 140  ARG140     -0.0865
     88  CZ        -7.3240   55.0870  -53.1710 C.cat 140  ARG140      0.5346
     89  NH1       -8.2500   55.2900  -54.1010 N.pl3 140  ARG140      0.1354
     90  NH2       -6.4000   56.0150  -52.9610 N.pl3 140  ARG140      0.1354
     91  N         -5.1890   43.3290  -45.1100 N.3   170  ASN170     -0.1240
     92  CA        -4.3120   44.5020  -45.0490 C.3   170  ASN170      0.1653
     93  C         -4.7610   45.6050  -44.0630 C.2   170  ASN170      0.2266
     94  O         -4.2920   46.7400  -44.1850 O.2   170  ASN170     -0.2867
     95  CB        -4.1380   45.1020  -46.4610 C.3   170  ASN170      0.1155
     96  CG        -2.7090   45.2510  -46.9110 C.2   170  ASN170      0.2627
     97  OD1       -1.8120   45.5920  -46.1350 O.2   170  ASN170     -0.2716
     98  ND2       -2.4720   45.0360  -48.1950 N.am  170  ASN170     -0.0877
     99  N         -4.6870   47.7130  -40.6350 N.3   172  ARG172     -0.1245
    100  CA        -3.5670   48.0520  -39.7540 C.3   172  ARG172      0.1563
    101  C         -4.0010   48.4880  -38.3410 C.2   172  ARG172      0.2260
    102  O         -5.1940   48.5320  -38.0460 O.2   172  ARG172     -0.2867
    103  CB        -2.6870   49.1450  -40.4090 C.3   172  ARG172      0.0307
    104  CG        -2.3860   48.9430  -41.9070 C.3   172  ARG172      0.0489
    105  CD        -1.6430   47.6530  -42.2320 C.3   172  ARG172      0.2205
    106  NE        -1.4200   47.4960  -43.6710 N.pl3 172  ARG172     -0.0865
    107  CZ        -0.3560   47.9620  -44.3180 C.cat 172  ARG172      0.5346
    108  NH1        0.5930   48.6210  -43.6640 N.pl3 172  ARG172      0.1354
    109  NH2       -0.2360   47.7790  -45.6260 N.pl3 172  ARG172      0.1354
    110  N          2.7200   41.1090  -39.8240 N.3   222  TYR222     -0.1241
    111  CA         3.3320   42.0710  -40.7490 C.3   222  TYR222      0.1605
    112  C          3.8570   43.2600  -39.9320 C.2   222  TYR222      0.2264
    113  O          3.1760   43.6530  -38.9970 O.2   222  TYR222     -0.2867
    114  CB         2.2830   42.5170  -41.7940 C.3   222  TYR222      0.0534
    115  CG         2.7030   43.6410  -42.7210 C.ar  222  TYR222     -0.0201
    116  CD1        3.3380   43.3730  -43.9290 C.ar  222  TYR222     -0.0009
    117  CD2        2.4050   44.9680  -42.4210 C.ar  222  TYR222     -0.0009
    118  CE1        3.6770   44.3980  -44.8120 C.ar  222  TYR222      0.0417
    119  CE2        2.7550   46.0030  -43.2880 C.ar  222  TYR222      0.0417
    120  CZ         3.3950   45.7130  -44.4810 C.ar  222  TYR222      0.1957
    121  OH         3.7470   46.7280  -45.3370 O.3   222  TYR222     -0.2866
    122  N          9.7770   53.3700  -46.3630 N.3   243  ARG243     -0.1231
    123  CA         8.6500   52.5020  -46.0180 C.3   243  ARG243      0.1694
    124  C          8.4200   52.5210  -44.5020 C.2   243  ARG243      0.2593
    125  O          9.2300   51.9760  -43.7470 O.2   243  ARG243     -0.2718
    126  CB         8.8730   51.0660  -46.5310 C.3   243  ARG243      0.0321
    127  CG         8.7050   50.9080  -48.0400 C.3   243  ARG243      0.0489
    128  CD         8.6160   49.4500  -48.4590 C.3   243  ARG243      0.2205
    129  NE         7.3500   48.8370  -48.0510 N.pl3 243  ARG243     -0.0865
    130  CZ         6.9630   47.6090  -48.3830 C.cat 243  ARG243      0.5346
    131  NH1        7.7360   46.8450  -49.1460 N.pl3 243  ARG243      0.1354
    132  NH2        5.7960   47.1400  -47.9640 N.pl3 243  ARG243      0.1354
    133  N          7.3250   53.1760  -44.0650 N.am  244  THR244     -0.1939
    134  CA         6.9400   53.3150  -42.6530 C.3   244  THR244      0.2028
    135  C          5.6340   52.5370  -42.4040 C.2   244  THR244      0.2642
    136  O          4.5580   53.0310  -42.7440 O.2   244  THR244     -0.2714
    137  CB         6.8150   54.8050  -42.2690 C.3   244  THR244      0.1808
    138  OG1        5.7820   55.4080  -43.0490 O.3   244  THR244     -0.2208
    139  CG2        8.1140   55.5760  -42.4580 C.3   244  THR244      0.0379
    140  N          5.7320   51.3010  -41.8640 N.am  245  ASN245     -0.1971
    141  CA         4.5640   50.4380  -41.6330 C.3   245  ASN245      0.1688
    142  C          4.6000   49.7790  -40.2470 C.2   245  ASN245      0.2292
    143  O          5.3940   48.8620  -40.0220 O.2   245  ASN245     -0.2864
    144  CB         4.4580   49.3470  -42.7230 C.3   245  ASN245      0.1181
    145  CG         4.9090   49.7610  -44.1070 C.2   245  ASN245      0.2629
    146  OD1        4.4040   50.7240  -44.6950 O.2   245  ASN245     -0.2716
    147  ND2        5.8750   49.0400  -44.6560 N.am  245  ASN245     -0.0877
@<TRIPOS>BOND
     1    16    15    2
     2    14    15    1
     3    14    11    1
     4    15    17   am
     5    10    11    1
     6    11    12    1
     7    21    20    2
     8    12    18   am
     9    12    13    2
    10    18    19    1
    11    20    19    1
    12    19    22    1
    13    22    23    1
    14    23    24    1
    15    89    88    1
    16     3     2    1
    17     3     4    2
    18     2     1    1
    19     2     5    1
    20    24    25    1
    21    88    90    1
    22    88    87    2
    23     6     5    1
    24     6     7    1
    25    25    26    1
    26    33    35   ar
    27    33    32   ar
    28    86    87    1
    29    86    85    1
    30    30    29    2
    31     8     7   ar
    32    35    36   ar
    33    31    32    1
    34    31    28    1
    35     7     9   ar
    36    42    41    1
    37    32    34   ar
    38    85    84    1
    39    27    28    1
    40    29    28    1
    41    36    34   ar
    42    43    41    1
    43    41    38    1
    44    38    37    1
    45    38    39    1
    46    83    82    2
    47    84    81    1
    48    79    78    1
    49    81    82    1
    50    81    80    1
    51    49    48    1
    52    44    39   am
    53    44    45    1
    54    78    77    1
    55    39    40    2
    56    77    76    1
    57   131   130    1
    58    48    45    1
    59    47    46    2
    60    45    46    1
    61   128   129    1
    62   128   127    1
    63    76    75    1
    64   130   129    2
    65   130   132    1
    66    98    96   am
    67    46    50   am
    68   127   126    1
    69    75    72    1
    70    50    51    1
    71    96    95    1
    72    96    97    2
    73    74    73    2
    74    72    73    1
    75    72    71    1
    76   126   123    1
    77    95    92    1
    78   122   123    1
    79    51    52    1
    80   123   124    1
    81    71    64   am
    82   109   107    1
    83    65    64    2
    84   121   120    1
    85    64    63    1
    86    91    92    1
    87    52    53    2
    88    52    54   am
    89    92    93    1
    90   118   120   ar
    91   118   116   ar
    92   146   145    2
    93   147   145   am
    94   124   133   am
    95   124   125    2
    96   120   119   ar
    97    66    63    1
    98    66    67    1
    99   107   106    2
   100   107   108    1
   101    94    93    2
   102   145   144    1
   103    63    62    1
   104    54    55    1
   105   133   134    1
   106   116   115   ar
   107    62    56   am
   108   106   105    1
   109    67    68    1
   110   119   117   ar
   111   138   137    1
   112    56    55    1
   113    56    57    2
   114    55    58    1
   115   136   135    2
   116   144   141    1
   117   115   117   ar
   118   115   114    1
   119   134   135    1
   120   134   137    1
   121   139   137    1
   122   135   140   am
   123   105   104    1
   124    68    69   ar
   125    68    70   ar
   126   104   103    1
   127   140   141    1
   128    58    59    1
   129   114   111    1
   130   141   142    1
   131    60    59    2
   132    59    61   am
   133   111   112    1
   134   111   110    1
   135    99   100    1
   136   103   100    1
   137   142   143    2
   138   112   113    2
   139   100   101    1
   140   101   102    2
