@<TRIPOS>MOLECULE
tmp/4a9eB00.pdb
 117 113 0 0 0
SMALL
GASTEIGER

@<TRIPOS>ATOM
      1  N         41.7190    0.8360   10.1660 N.3    25  TRP25      -0.1228
      2  CA        43.0630    1.4130   10.0400 C.3    25  TRP25       0.1722
      3  C         43.2040    2.5630    9.0070 C.2    25  TRP25       0.2437
      4  O         43.8700    3.5610    9.3040 O.2    25  TRP25      -0.2733
      5  CB        44.1410    0.3240    9.8580 C.3    25  TRP25       0.0563
      6  CG        44.0180   -0.5000    8.6220 C.ar   25  TRP25       0.0003
      7  CD1       43.3350   -1.6760    8.4750 C.ar   25  TRP25       0.0946
      8  CD2       44.6020   -0.2120    7.3530 C.ar   25  TRP25       0.0152
      9  NE1       43.4550   -2.1330    7.1860 N.ar   25  TRP25      -0.2442
     10  CE2       44.2280   -1.2490    6.4750 C.ar   25  TRP25       0.0810
     11  CE3       45.3950    0.8340    6.8670 C.ar   25  TRP25       0.0012
     12  CZ2       44.6250   -1.2730    5.1370 C.ar   25  TRP25       0.0191
     13  CZ3       45.7890    0.8080    5.5380 C.ar   25  TRP25       0.0001
     14  CH2       45.4070   -0.2380    4.6920 C.ar   25  TRP25       0.0015
     15  N         42.5430    2.4680    7.8270 N.am   26  PRO26      -0.2718
     16  CA        42.6670    3.5970    6.8900 C.3    26  PRO26       0.1535
     17  C         41.9600    4.8830    7.3340 C.2    26  PRO26       0.2598
     18  O         42.1870    5.9320    6.7350 O.2    26  PRO26      -0.2715
     19  CB        42.0120    3.0670    5.5960 C.3    26  PRO26       0.0310
     20  CG        41.8170    1.5740    5.8150 C.3    26  PRO26       0.0237
     21  CD        41.6300    1.4440    7.2970 C.3    26  PRO26       0.0939
     22  N         41.1190    4.7930    8.3660 N.am   27  PHE27      -0.1974
     23  CA        40.2640    5.8950    8.8060 C.3    27  PHE27       0.1639
     24  C         40.6910    6.5380   10.1330 C.2    27  PHE27       0.2290
     25  O         40.0320    7.4640   10.6020 O.2    27  PHE27      -0.2864
     26  CB        38.8240    5.3910    8.9500 C.3    27  PHE27       0.0560
     27  CG        38.2610    4.8220    7.6860 C.ar   27  PHE27      -0.0200
     28  CD1       37.7830    5.6590    6.6930 C.ar   27  PHE27      -0.0042
     29  CD2       38.2370    3.4480    7.4730 C.ar   27  PHE27      -0.0042
     30  CE1       37.2680    5.1420    5.5180 C.ar   27  PHE27      -0.0003
     31  CE2       37.7250    2.9240    6.2990 C.ar   27  PHE27      -0.0003
     32  CZ        37.2400    3.7700    5.3190 C.ar   27  PHE27      -0.0000
     33  N         43.5190   11.4330    5.6320 N.3    31  VAL31      -0.1245
     34  CA        44.0260   10.9200    4.3660 C.3    31  VAL31       0.1561
     35  C         45.2920   11.6860    3.9650 C.2    31  VAL31       0.2260
     36  O         45.2830   12.9160    3.8910 O.2    31  VAL31      -0.2867
     37  CB        42.9570   11.0390    3.2460 C.3    31  VAL31       0.0252
     38  CG1       43.5500   10.7140    1.8750 C.3    31  VAL31       0.0019
     39  CG2       41.7620   10.1220    3.5470 C.3    31  VAL31       0.0019
     40  N         49.6150    7.9610    0.1750 N.3    36  LEU36      -0.1245
     41  CA        48.7340    6.9060   -0.3440 C.3    36  LEU36       0.1561
     42  C         48.6540    6.8760   -1.8730 C.2    36  LEU36       0.2260
     43  O         48.1480    5.9090   -2.4470 O.2    36  LEU36      -0.2867
     44  CB        47.3210    7.0490    0.2390 C.3    36  LEU36       0.0270
     45  CG        47.2050    6.8260    1.7470 C.3    36  LEU36       0.0019
     46  CD1       45.8550    7.2900    2.2690 C.3    36  LEU36       0.0001
     47  CD2       47.4480    5.3650    2.0950 C.3    36  LEU36       0.0001
     48  N         46.9610    9.0900   -3.9300 N.3    38  LEU38      -0.1245
     49  CA        45.5760    9.3400   -4.3260 C.3    38  LEU38       0.1561
     50  C         45.4860   10.6380   -5.1320 C.2    38  LEU38       0.2260
     51  O         45.5080   11.7280   -4.5520 O.2    38  LEU38      -0.2867
     52  CB        44.6850    9.4230   -3.0860 C.3    38  LEU38       0.0270
     53  CG        44.6900    8.1890   -2.1820 C.3    38  LEU38       0.0019
     54  CD1       43.8010    8.4230   -0.9750 C.3    38  LEU38       0.0001
     55  CD2       44.2520    6.9440   -2.9440 C.3    38  LEU38       0.0001
     56  N         42.9100   14.1270   -4.7460 N.3    41  TYR41      -0.1241
     57  CA        42.0550   13.8470   -3.5910 C.3    41  TYR41       0.1605
     58  C         41.4470   15.1320   -3.0380 C.2    41  TYR41       0.2264
     59  O         40.2360   15.2160   -2.8590 O.2    41  TYR41      -0.2867
     60  CB        42.7960   13.0990   -2.4730 C.3    41  TYR41       0.0534
     61  CG        41.8700   12.7570   -1.3230 C.ar   41  TYR41      -0.0201
     62  CD1       41.0710   11.6150   -1.3660 C.ar   41  TYR41      -0.0009
     63  CD2       41.7520   13.5990   -0.2160 C.ar   41  TYR41      -0.0009
     64  CE1       40.2070   11.3030   -0.3280 C.ar   41  TYR41       0.0417
     65  CE2       40.8840   13.2980    0.8250 C.ar   41  TYR41       0.0417
     66  CZ        40.1090   12.1510    0.7610 C.ar   41  TYR41       0.1957
     67  OH        39.2420   11.8420    1.7860 O.3    41  TYR41      -0.2866
     68  N         33.1390   11.7110    6.8590 N.3    76  MET76      -0.1245
     69  CA        34.2280   10.7620    6.6520 C.3    76  MET76       0.1570
     70  C         33.8020    9.6230    5.7160 C.2    76  MET76       0.2261
     71  O         34.5020    9.3110    4.7480 O.2    76  MET76      -0.2867
     72  CB        34.7050   10.2020    7.9930 C.3    76  MET76       0.0387
     73  CG        35.7170    9.0810    7.8810 C.3    76  MET76       0.0595
     74  SD        36.1300    8.3870    9.4850 S.3    76  MET76      -0.1393
     75  CE        34.5900    7.5520    9.8750 C.3    76  MET76       0.0692
     76  N         34.7070    8.9570    1.4160 N.3    80  CYS80      -0.1235
     77  CA        35.2090    7.6770    0.9280 C.3    80  CYS80       0.1677
     78  C         34.4140    7.1730   -0.2910 C.2    80  CYS80       0.2270
     79  O         35.0000    6.7520   -1.2870 O.2    80  CYS80      -0.2867
     80  CB        35.1740    6.6500    2.0590 C.3    80  CYS80       0.0956
     81  SG        35.9720    5.1140    1.6680 S.3    80  CYS80      -0.0801
     82  N         35.0190    9.7030   -3.4500 N.3    83  TYR83      -0.1227
     83  CA        36.3370    9.7500   -4.0850 C.3    83  TYR83       0.1736
     84  C         36.7350    8.4340   -4.7530 C.2    83  TYR83       0.2595
     85  O         37.1870    8.4290   -5.8980 O.2    83  TYR83      -0.2718
     86  CB        37.4390   10.1580   -3.0970 C.3    83  TYR83       0.0548
     87  CG        38.7990   10.0980   -3.7560 C.ar   83  TYR83      -0.0200
     88  CD1       39.2080   11.0950   -4.6360 C.ar   83  TYR83      -0.0009
     89  CD2       39.6450    9.0120   -3.5540 C.ar   83  TYR83      -0.0009
     90  CE1       40.4360   11.0270   -5.2700 C.ar   83  TYR83       0.0417
     91  CE2       40.8750    8.9370   -4.1840 C.ar   83  TYR83       0.0417
     92  CZ        41.2640    9.9410   -5.0390 C.ar   83  TYR83       0.1957
     93  OH        42.4830    9.8620   -5.6600 O.3    83  TYR83      -0.2866
     94  N         36.5820    7.3290   -4.0350 N.am   84  ASN84      -0.1974
     95  CA        37.1430    6.0560   -4.4790 C.3    84  ASN84       0.1688
     96  C         36.2950    5.3800   -5.5580 C.2    84  ASN84       0.2292
     97  O         35.1280    5.7280   -5.7610 O.2    84  ASN84      -0.2864
     98  CB        37.3470    5.1330   -3.2760 C.3    84  ASN84       0.1181
     99  CG        38.3240    5.7110   -2.2690 C.2    84  ASN84       0.2629
    100  OD1       39.5420    5.6410   -2.4540 O.2    84  ASN84      -0.2716
    101  ND2       37.7960    6.2980   -1.2040 N.am   84  ASN84      -0.0877
    102  N         36.6210   -0.4990   -5.2310 N.3    88  ASP88      -0.1239
    103  CA        37.7480   -0.4610   -4.2900 C.3    88  ASP88       0.1674
    104  C         37.3770   -1.0980   -2.9550 C.2    88  ASP88       0.2266
    105  O         36.2800   -0.8770   -2.4420 O.2    88  ASP88      -0.2867
    106  CB        38.1920    0.9850   -4.0400 C.3    88  ASP88       0.1410
    107  CG        38.9340    1.5930   -5.2220 C.2    88  ASP88       0.3668
    108  OD1       39.4580    0.8350   -6.0560 O.co2  88  ASP88      -0.2456
    109  OD2       39.0050    2.8390   -5.3060 O.co2  88  ASP88      -0.2456
    110  N         38.3290   -0.2400   -0.0780 N.3    90  ILE90      -0.1245
    111  CA        38.1000    0.8190    0.9100 C.3    90  ILE90       0.1561
    112  C         36.6140    1.1630    1.0390 C.2    90  ILE90       0.2260
    113  O         36.1270    1.4350    2.1410 O.2    90  ILE90      -0.2867
    114  CB        38.9470    2.0900    0.5960 C.3    90  ILE90       0.0252
    115  CG1       38.9860    3.0380    1.8030 C.3    90  ILE90       0.0019
    116  CG2       38.4430    2.8000   -0.6730 C.3    90  ILE90       0.0019
    117  CD1       39.8820    2.5740    2.9360 C.3    90  ILE90       0.0001
@<TRIPOS>BOND
     1   108   107   ar
     2    85    84    2
     3    97    96    2
     4    93    92    1
     5    96    95    1
     6   109   107   ar
     7    90    92   ar
     8    90    88   ar
     9   102   103    1
    10   107   106    1
    11    50    51    2
    12    50    49    1
    13    92    91   ar
    14    84    83    1
    15    84    94   am
    16    56    57    1
    17    88    87   ar
    18    95    94    1
    19    95    98    1
    20    49    48    1
    21    49    52    1
    22   103   106    1
    23   103   104    1
    24    91    89   ar
    25    83    82    1
    26    83    86    1
    27    87    89   ar
    28    87    86    1
    29    57    58    1
    30    57    60    1
    31    98    99    1
    32    52    53    1
    33    58    59    2
    34   104   105    2
    35    55    53    1
    36    60    61    1
    37   100    99    2
    38    43    42    2
    39    99   101   am
    40    53    54    1
    41    42    41    1
    42    62    61   ar
    43    62    64   ar
    44    61    63   ar
    45    79    78    2
    46   116   114    1
    47    41    40    1
    48    41    44    1
    49    64    66   ar
    50    78    77    1
    51    63    65   ar
    52   110   111    1
    53    44    45    1
    54   114   111    1
    55   114   115    1
    56    66    65   ar
    57    66    67    1
    58   111   112    1
    59    77    76    1
    60    77    80    1
    61   112   113    2
    62    81    80    1
    63    45    47    1
    64    45    46    1
    65   115   117    1
    66    38    37    1
    67    37    39    1
    68    37    34    1
    69    36    35    2
    70    35    34    1
    71    34    33    1
    72    14    12   ar
    73    14    13   ar
    74    71    70    2
    75    12    10   ar
    76    32    30   ar
    77    32    31   ar
    78    30    28   ar
    79    13    11   ar
    80    19    20    1
    81    19    16    1
    82    70    69    1
    83    20    21    1
    84    31    29   ar
    85    10     9   ar
    86    10     8   ar
    87    69    68    1
    88    69    72    1
    89    28    27   ar
    90    18    17    2
    91    11     8   ar
    92    16    17    1
    93    16    15    1
    94     9     7   ar
    95    21    15    1
    96    17    22   am
    97     8     6   ar
    98    29    27   ar
    99    27    26    1
   100    15     3   am
   101    73    72    1
   102    73    74    1
   103    22    23    1
   104     7     6   ar
   105     6     5    1
   106    23    26    1
   107    23    24    1
   108     3     4    2
   109     3     2    1
   110    74    75    1
   111     5     2    1
   112     2     1    1
   113    24    25    2
