@<TRIPOS>MOLECULE
tmp/4a9fB00.pdb
 95 90 0 0 0
SMALL
GASTEIGER

@<TRIPOS>ATOM
      1  N         42.1720    2.4950    7.8790 N.3    23  PRO23      -0.2102
      2  CA        42.2960    3.6110    6.9390 C.3    23  PRO23       0.1504
      3  C         41.6540    4.9010    7.4280 C.2    23  PRO23       0.2575
      4  O         41.8990    5.9510    6.8400 O.2    23  PRO23      -0.2718
      5  CB        41.5570    3.1020    5.6940 C.3    23  PRO23       0.0282
      6  CG        41.5160    1.5980    5.8620 C.3    23  PRO23       0.0208
      7  CD        41.3030    1.4430    7.3290 C.3    23  PRO23       0.0893
      8  N         40.8320    4.8100    8.4750 N.am   24  PHE24      -0.1977
      9  CA        39.9960    5.9080    8.9320 C.3    24  PHE24       0.1639
     10  C         40.4400    6.5210   10.2570 C.2    24  PHE24       0.2290
     11  O         39.7870    7.4350   10.7440 O.2    24  PHE24      -0.2864
     12  CB        38.5550    5.4120    9.0620 C.3    24  PHE24       0.0560
     13  CG        38.0170    4.8260    7.7960 C.ar   24  PHE24      -0.0200
     14  CD1       37.5810    5.6580    6.7730 C.ar   24  PHE24      -0.0042
     15  CD2       37.9760    3.4510    7.6080 C.ar   24  PHE24      -0.0042
     16  CE1       37.1010    5.1260    5.5860 C.ar   24  PHE24      -0.0003
     17  CE2       37.4990    2.9180    6.4280 C.ar   24  PHE24      -0.0003
     18  CZ        37.0620    3.7490    5.4140 C.ar   24  PHE24      -0.0000
     19  N         43.3690   11.4020    5.7860 N.3    28  VAL28      -0.1245
     20  CA        43.9180   10.9210    4.5240 C.3    28  VAL28       0.1561
     21  C         45.1880   11.7070    4.1830 C.2    28  VAL28       0.2260
     22  O         45.1590   12.9360    4.0600 O.2    28  VAL28      -0.2867
     23  CB        42.8950   11.0490    3.3690 C.3    28  VAL28       0.0252
     24  CG1       43.5700   10.8250    2.0170 C.3    28  VAL28       0.0019
     25  CG2       41.7490   10.0660    3.5640 C.3    28  VAL28       0.0019
     26  N         49.9120    8.3270    0.5380 N.3    33  LEU33      -0.1245
     27  CA        49.1110    7.3020   -0.1390 C.3    33  LEU33       0.1561
     28  C         49.1120    7.4310   -1.6650 C.2    33  LEU33       0.2260
     29  O         48.5450    6.5850   -2.3560 O.2    33  LEU33      -0.2867
     30  CB        47.6670    7.3120    0.3900 C.3    33  LEU33       0.0270
     31  CG        47.5300    6.9350    1.8690 C.3    33  LEU33       0.0019
     32  CD1       46.1380    7.2500    2.4010 C.3    33  LEU33       0.0001
     33  CD2       47.8640    5.4680    2.0780 C.3    33  LEU33       0.0001
     34  N         47.7620    9.9520   -3.7010 N.3    35  LEU35      -0.1245
     35  CA        46.4370   10.3330   -4.1830 C.3    35  LEU35       0.1561
     36  C         46.4150   11.8360   -4.4900 C.2    35  LEU35       0.2260
     37  O         45.8260   12.6150   -3.7420 O.2    35  LEU35      -0.2867
     38  CB        45.3790    9.9710   -3.1310 C.3    35  LEU35       0.0270
     39  CG        45.3280    8.5020   -2.6930 C.3    35  LEU35       0.0019
     40  CD1       44.3640    8.3150   -1.5260 C.3    35  LEU35       0.0001
     41  CD2       44.9470    7.5860   -3.8550 C.3    35  LEU35       0.0001
     42  N         43.0680   13.8640   -4.4500 N.3    38  TYR38      -0.1241
     43  CA        42.1510   13.6500   -3.3260 C.3    38  TYR38       0.1605
     44  C         41.5010   14.9470   -2.8400 C.2    38  TYR38       0.2264
     45  O         40.2810   15.0250   -2.7030 O.2    38  TYR38      -0.2867
     46  CB        42.8340   12.9430   -2.1520 C.3    38  TYR38       0.0534
     47  CG        41.8440   12.6260   -1.0510 C.ar   38  TYR38      -0.0201
     48  CD1       41.0390   11.4920   -1.1190 C.ar   38  TYR38      -0.0009
     49  CD2       41.6730   13.4880    0.0230 C.ar   38  TYR38      -0.0009
     50  CE1       40.1110   11.2110   -0.1230 C.ar   38  TYR38       0.0417
     51  CE2       40.7500   13.2290    1.0140 C.ar   38  TYR38       0.0417
     52  CZ        39.9700   12.0800    0.9400 C.ar   38  TYR38       0.1957
     53  OH        39.0450   11.8200    1.9200 O.3    38  TYR38      -0.2866
     54  N         32.9380   11.6910    6.9300 N.3    73  MET73      -0.1245
     55  CA        34.0310   10.7490    6.7310 C.3    73  MET73       0.1570
     56  C         33.6280    9.6080    5.7820 C.2    73  MET73       0.2261
     57  O         34.3500    9.3020    4.8340 O.2    73  MET73      -0.2867
     58  CB        34.4770   10.1670    8.0730 C.3    73  MET73       0.0387
     59  CG        35.4900    9.0500    7.9560 C.3    73  MET73       0.0595
     60  SD        35.9000    8.3720    9.5630 S.3    73  MET73      -0.1393
     61  CE        34.3880    7.5070    9.9720 C.3    73  MET73       0.0692
     62  N         34.5590    8.8900    1.5510 N.3    77  CYS77      -0.1235
     63  CA        35.0750    7.6120    1.0800 C.3    77  CYS77       0.1677
     64  C         34.2970    7.1210   -0.1480 C.2    77  CYS77       0.2270
     65  O         34.8970    6.7240   -1.1450 O.2    77  CYS77      -0.2867
     66  CB        35.0170    6.5860    2.2070 C.3    77  CYS77       0.0956
     67  SG        35.7730    5.0070    1.8040 S.3    77  CYS77      -0.0801
     68  N         34.9600    9.6440   -3.2730 N.3    80  TYR80      -0.1227
     69  CA        36.2930    9.6560   -3.8900 C.3    80  TYR80       0.1736
     70  C         36.6510    8.3560   -4.6070 C.2    80  TYR80       0.2595
     71  O         37.1500    8.3750   -5.7350 O.2    80  TYR80      -0.2718
     72  CB        37.3860    9.9820   -2.8630 C.3    80  TYR80       0.0548
     73  CG        38.7670    9.8710   -3.4630 C.ar   80  TYR80      -0.0200
     74  CD1       39.2450   10.8490   -4.3300 C.ar   80  TYR80      -0.0009
     75  CD2       39.5820    8.7730   -3.1930 C.ar   80  TYR80      -0.0009
     76  CE1       40.5050   10.7430   -4.9060 C.ar   80  TYR80       0.0417
     77  CE2       40.8540    8.6580   -3.7660 C.ar   80  TYR80       0.0417
     78  CZ        41.3020    9.6430   -4.6210 C.ar   80  TYR80       0.1957
     79  OH        42.5480    9.5310   -5.1860 O.3    80  TYR80      -0.2866
     80  N         36.3900    7.2320   -3.9510 N.am   81  ASN81      -0.1974
     81  CA        36.8930    5.9440   -4.4030 C.3    81  ASN81       0.1688
     82  C         36.0440    5.3230   -5.5050 C.2    81  ASN81       0.2292
     83  O         34.8950    5.7160   -5.7170 O.2    81  ASN81      -0.2864
     84  CB        37.0090    5.0120   -3.2050 C.3    81  ASN81       0.1181
     85  CG        38.0580    5.4870   -2.2250 C.2    81  ASN81       0.2629
     86  OD1       39.2540    5.3460   -2.4760 O.2    81  ASN81      -0.2716
     87  ND2       37.6210    6.0890   -1.1230 N.am   81  ASN81      -0.0877
     88  N         38.0150   -0.4020    0.0390 N.3    87  ILE87      -0.1245
     89  CA        37.7750    0.6250    1.0540 C.3    87  ILE87       0.1561
     90  C         36.2830    0.9990    1.1530 C.2    87  ILE87       0.2260
     91  O         35.7870    1.3100    2.2330 O.2    87  ILE87      -0.2867
     92  CB        38.6620    1.8840    0.8180 C.3    87  ILE87       0.0252
     93  CG1       38.6880    2.7870    2.0610 C.3    87  ILE87       0.0019
     94  CG2       38.1930    2.6630   -0.4050 C.3    87  ILE87       0.0019
     95  CD1       39.3510    2.1640    3.2500 C.3    87  ILE87       0.0001
@<TRIPOS>BOND
     1    71    70    2
     2    83    82    2
     3    82    81    1
     4    79    78    1
     5    76    78   ar
     6    76    74   ar
     7    78    77   ar
     8    70    80   am
     9    70    69    1
    10    36    35    1
    11    36    37    2
    12    42    43    1
    13    81    80    1
    14    81    84    1
    15    74    73   ar
    16    35    34    1
    17    35    38    1
    18    69    68    1
    19    69    72    1
    20    41    39    1
    21    77    75   ar
    22    73    75   ar
    23    73    72    1
    24    43    44    1
    25    43    46    1
    26    84    85    1
    27    38    39    1
    28    44    45    2
    29    39    40    1
    30    86    85    2
    31    29    28    2
    32    85    87   am
    33    46    47    1
    34    28    27    1
    35    65    64    2
    36    48    47   ar
    37    48    50   ar
    38    47    49   ar
    39    94    92    1
    40    64    63    1
    41    27    30    1
    42    27    26    1
    43    50    52   ar
    44    49    51   ar
    45    88    89    1
    46    30    31    1
    47    92    89    1
    48    92    93    1
    49    52    51   ar
    50    52    53    1
    51    89    90    1
    52    63    62    1
    53    63    66    1
    54    90    91    2
    55    67    66    1
    56    31    33    1
    57    31    32    1
    58    24    23    1
    59    93    95    1
    60    23    25    1
    61    23    20    1
    62    22    21    2
    63    21    20    1
    64    20    19    1
    65    57    56    2
    66    18    16   ar
    67    18    17   ar
    68    16    14   ar
    69     5     6    1
    70     5     2    1
    71    56    55    1
    72     6     7    1
    73    17    15   ar
    74    55    54    1
    75    55    58    1
    76    14    13   ar
    77     4     3    2
    78     2     3    1
    79     2     1    1
    80     7     1    1
    81     3     8   am
    82    15    13   ar
    83    13    12    1
    84    59    58    1
    85    59    60    1
    86     8     9    1
    87     9    12    1
    88     9    10    1
    89    60    61    1
    90    10    11    2
