@<TRIPOS>MOLECULE
tmp/4a9fC00.pdb
 103 97 0 0 0
SMALL
GASTEIGER

@<TRIPOS>ATOM
      1  N          4.8110   12.6650   18.8270 N.3    23  PRO23      -0.2102
      2  CA         3.6790   11.7580   19.0050 C.3    23  PRO23       0.1504
      3  C          2.3370   12.4720   19.2180 C.2    23  PRO23       0.2575
      4  O          1.2960   11.8310   19.1250 O.2    23  PRO23      -0.2718
      5  CB         4.0520   10.9650   20.2670 C.3    23  PRO23       0.0282
      6  CG         5.5000   11.2640   20.5160 C.3    23  PRO23       0.0208
      7  CD         5.6770   12.6470   20.0140 C.3    23  PRO23       0.0893
      8  N          2.3770   13.7820   19.4810 N.am   24  PHE24      -0.1977
      9  CA         1.1830   14.5740   19.7630 C.3    24  PHE24       0.1639
     10  C          0.8050   15.5480   18.6520 C.2    24  PHE24       0.2290
     11  O         -0.1290   16.3170   18.8140 O.2    24  PHE24      -0.2864
     12  CB         1.3850   15.3750   21.0550 C.3    24  PHE24       0.0560
     13  CG         1.8660   14.5480   22.2080 C.ar   24  PHE24      -0.0200
     14  CD1        0.9630   13.8600   23.0100 C.ar   24  PHE24      -0.0042
     15  CD2        3.2190   14.4770   22.5070 C.ar   24  PHE24      -0.0042
     16  CE1        1.4030   13.0920   24.0710 C.ar   24  PHE24      -0.0003
     17  CE2        3.6710   13.7180   23.5690 C.ar   24  PHE24      -0.0003
     18  CZ         2.7610   13.0200   24.3560 C.ar   24  PHE24      -0.0000
     19  N         -4.3070   10.5770   17.6920 N.3    28  VAL28      -0.1245
     20  CA        -3.9440    9.1750   17.8370 C.3    28  VAL28       0.1561
     21  C         -4.7150    8.3830   16.7850 C.2    28  VAL28       0.2260
     22  O         -5.9390    8.4980   16.6910 O.2    28  VAL28      -0.2867
     23  CB        -4.2810    8.6330   19.2420 C.3    28  VAL28       0.0252
     24  CG1       -4.0230    7.1370   19.3130 C.3    28  VAL28       0.0019
     25  CG2       -3.4730    9.3670   20.3070 C.3    28  VAL28       0.0019
     26  N         -1.5770    2.6030   14.6380 N.3    33  LEU33      -0.1245
     27  CA        -0.7090    2.3530   15.7950 C.3    33  LEU33       0.1561
     28  C         -0.9820    1.0050   16.4720 C.2    33  LEU33       0.2260
     29  O         -0.2400    0.6070   17.3660 O.2    33  LEU33      -0.2867
     30  CB        -0.8520    3.4800   16.8270 C.3    33  LEU33       0.0270
     31  CG        -0.4170    4.8720   16.3630 C.3    33  LEU33       0.0019
     32  CD1       -0.7830    5.9320   17.3990 C.3    33  LEU33       0.0001
     33  CD2        1.0760    4.8960   16.0850 C.3    33  LEU33       0.0001
     34  N         -3.7640    0.0830   18.3270 N.3    35  LEU35      -0.1245
     35  CA        -4.3090    0.3340   19.6630 C.3    35  LEU35       0.1561
     36  C         -5.8410    0.1860   19.6620 C.2    35  LEU35       0.2260
     37  O         -6.5560    1.1690   19.8580 O.2    35  LEU35      -0.2867
     38  CB        -3.9200    1.7440   20.1390 C.3    35  LEU35       0.0270
     39  CG        -2.4310    2.1080   20.1560 C.3    35  LEU35       0.0019
     40  CD1       -2.2490    3.5890   20.4840 C.3    35  LEU35       0.0001
     41  CD2       -1.6550    1.2440   21.1370 C.3    35  LEU35       0.0001
     42  N         -8.0040    1.9500   22.3970 N.3    38  TYR38      -0.1241
     43  CA        -7.7570    3.3620   22.6960 C.3    38  TYR38       0.1605
     44  C         -9.0440    4.1720   22.8790 C.2    38  TYR38       0.2264
     45  O         -9.1870    4.9110   23.8490 O.2    38  TYR38      -0.2867
     46  CB        -6.8960    4.0180   21.6160 C.3    38  TYR38       0.0534
     47  CG        -6.5130    5.4230   22.0050 C.ar   38  TYR38      -0.0201
     48  CD1       -5.4670    5.6520   22.8940 C.ar   38  TYR38      -0.0009
     49  CD2       -7.2290    6.5180   21.5340 C.ar   38  TYR38      -0.0009
     50  CE1       -5.1220    6.9390   23.2710 C.ar   38  TYR38       0.0417
     51  CE2       -6.8950    7.8050   21.9120 C.ar   38  TYR38       0.0417
     52  CZ        -5.8350    8.0070   22.7760 C.ar   38  TYR38       0.1957
     53  OH        -5.5120    9.2790   23.1630 O.3    38  TYR38      -0.2866
     54  N         -7.5530   14.3070   21.8870 N.3    46  MET46      -0.1245
     55  CA        -7.0580   15.6440   21.5780 C.3    46  MET46       0.1570
     56  C         -5.5830   15.5750   21.2180 C.2    46  MET46       0.2261
     57  O         -4.8630   14.6750   21.6550 O.2    46  MET46      -0.2867
     58  CB        -7.2920   16.6030   22.7490 C.3    46  MET46       0.0387
     59  CG        -7.0110   18.0760   22.4670 C.3    46  MET46       0.0595
     60  SD        -7.7580   18.7270   20.9640 S.3    46  MET46      -0.1393
     61  CE        -9.4950   18.4050   21.2920 C.3    46  MET46       0.0692
     62  N         -5.2990   16.4870   26.1780 N.3    73  MET73      -0.1245
     63  CA        -4.2740   15.7910   25.4130 C.3    73  MET73       0.1570
     64  C         -3.3090   15.0660   26.3450 C.2    73  MET73       0.2261
     65  O         -3.1000   13.8570   26.2120 O.2    73  MET73      -0.2867
     66  CB        -3.5020   16.7750   24.5460 C.3    73  MET73       0.0387
     67  CG        -2.4570   16.1270   23.6630 C.3    73  MET73       0.0595
     68  SD        -1.4780   17.2970   22.7140 S.3    73  MET73      -0.1393
     69  CE        -0.4400   18.0070   23.9820 C.3    73  MET73       0.0692
     70  N         -2.9320   10.8080   27.4850 N.3    77  CYS77      -0.1235
     71  CA        -1.6640   10.0990   27.4080 C.3    77  CYS77       0.1677
     72  C         -1.3590    9.3780   28.7260 C.2    77  CYS77       0.2270
     73  O         -1.0300    8.1880   28.7330 O.2    77  CYS77      -0.2867
     74  CB        -0.5540   11.0910   27.0660 C.3    77  CYS77       0.0956
     75  SG         1.0430   10.3440   26.8240 S.3    77  CYS77      -0.0801
     76  N         -4.0750    6.4410   29.3260 N.3    80  TYR80      -0.1227
     77  CA        -4.0160    5.2840   28.4280 C.3    80  TYR80       0.1736
     78  C         -2.7340    4.4510   28.5580 C.2    80  TYR80       0.2595
     79  O         -2.7850    3.2150   28.5660 O.2    80  TYR80      -0.2718
     80  CB        -4.1910    5.7030   26.9590 C.3    80  TYR80       0.0548
     81  CG        -4.1330    4.4990   26.0430 C.ar   80  TYR80      -0.0200
     82  CD1       -5.1990    3.6030   25.9780 C.ar   80  TYR80      -0.0009
     83  CD2       -2.9920    4.2180   25.2970 C.ar   80  TYR80      -0.0009
     84  CE1       -5.1390    2.4720   25.1670 C.ar   80  TYR80       0.0417
     85  CE2       -2.9250    3.0930   24.4800 C.ar   80  TYR80       0.0417
     86  CZ        -4.0050    2.2260   24.4200 C.ar   80  TYR80       0.1957
     87  OH        -3.9440    1.1080   23.6220 O.3    80  TYR80      -0.2866
     88  N         -1.5930    5.1250   28.6560 N.am   81  ASN81      -0.1974
     89  CA        -0.2970    4.4560   28.5550 C.3    81  ASN81       0.1688
     90  C          0.1980    3.8970   29.8790 C.2    81  ASN81       0.2292
     91  O         -0.2860    4.2780   30.9440 O.2    81  ASN81      -0.2864
     92  CB         0.7290    5.4180   27.9670 C.3    81  ASN81       0.1181
     93  CG         0.3870    5.8190   26.5550 C.2    81  ASN81       0.2629
     94  OD1        0.6460    5.0720   25.6090 O.2    81  ASN81      -0.2716
     95  ND2       -0.2070    7.0030   26.3980 N.am   81  ASN81      -0.0877
     96  N          6.5750    7.6770   26.2940 N.3    87  ILE87      -0.1245
     97  CA         5.5800    8.6890   25.9330 C.3    87  ILE87       0.1561
     98  C          5.0680    9.4760   27.1530 C.2    87  ILE87       0.2260
     99  O          4.8120   10.6800   27.0600 O.2    87  ILE87      -0.2867
    100  CB         4.3860    8.0630   25.1520 C.3    87  ILE87       0.0252
    101  CG1        3.5060    9.1460   24.5210 C.3    87  ILE87       0.0019
    102  CG2        3.5350    7.1670   26.0490 C.3    87  ILE87       0.0019
    103  CD1        4.1740    9.9020   23.4180 C.3    87  ILE87       0.0001
@<TRIPOS>BOND
     1    26    27    1
     2    27    28    1
     3    27    30    1
     4    33    31    1
     5    31    30    1
     6    31    32    1
     7    28    29    2
     8    22    21    2
     9    21    20    1
    10    19    20    1
    11    20    23    1
    12    34    35    1
    13    10    11    2
    14    10     9    1
    15     1     2    1
    16     1     7    1
    17     2     3    1
    18     2     5    1
    19     4     3    2
    20     3     8   am
    21    23    24    1
    22    23    25    1
    23     8     9    1
    24    36    35    1
    25    36    37    2
    26    35    38    1
    27     9    12    1
    28     7     6    1
    29    38    39    1
    30    39    40    1
    31    39    41    1
    32     5     6    1
    33    60    61    1
    34    60    59    1
    35    12    13    1
    36    56    55    1
    37    56    57    2
    38    49    51   ar
    39    49    47   ar
    40    55    54    1
    41    55    58    1
    42    46    47    1
    43    46    43    1
    44    51    52   ar
    45    47    48   ar
    46    13    15   ar
    47    13    14   ar
    48    42    43    1
    49    59    58    1
    50    15    17   ar
    51    43    44    1
    52    68    67    1
    53    68    69    1
    54    52    53    1
    55    52    50   ar
    56    44    45    2
    57    48    50   ar
    58    14    16   ar
    59   103   101    1
    60    17    18   ar
    61    87    86    1
    62    67    66    1
    63    16    18   ar
    64    86    85   ar
    65    86    84   ar
    66    85    83   ar
    67   101   100    1
    68    66    63    1
    69   100    97    1
    70   100   102    1
    71    84    82   ar
    72    83    81   ar
    73    63    62    1
    74    63    64    1
    75    94    93    2
    76    97    96    1
    77    97    98    1
    78    82    81   ar
    79    81    80    1
    80    65    64    2
    81    95    93   am
    82    93    92    1
    83    75    74    1
    84    80    77    1
    85    99    98    2
    86    74    71    1
    87    71    70    1
    88    71    72    1
    89    92    89    1
    90    77    78    1
    91    77    76    1
    92    89    88    1
    93    89    90    1
    94    78    79    2
    95    78    88   am
    96    72    73    2
    97    90    91    2
