@<TRIPOS>MOLECULE
tmp/4a9hB00.pdb
 125 124 0 0 0
SMALL
GASTEIGER

@<TRIPOS>ATOM
      1  N         41.2610    0.8570   10.2730 N.3    22  TRP22      -0.1228
      2  CA        42.5640    1.5220   10.1400 C.3    22  TRP22       0.1722
      3  C         42.7150    2.6430    9.1060 C.2    22  TRP22       0.2437
      4  O         43.3880    3.6410    9.3870 O.2    22  TRP22      -0.2733
      5  CB        43.7120    0.5190   10.0140 C.3    22  TRP22       0.0563
      6  CG        43.7480   -0.2390    8.7290 C.ar   22  TRP22       0.0003
      7  CD1       43.1560   -1.4720    8.4430 C.ar   22  TRP22       0.0946
      8  CD2       44.4160    0.1650    7.4900 C.ar   22  TRP22       0.0152
      9  NE1       43.3890   -1.8230    7.1480 N.ar   22  TRP22      -0.2442
     10  CE2       44.1530   -0.8900    6.5260 C.ar   22  TRP22       0.0810
     11  CE3       45.1630    1.2750    7.0950 C.ar   22  TRP22       0.0012
     12  CZ2       44.6350   -0.8260    5.2250 C.ar   22  TRP22       0.0191
     13  CZ3       45.6460    1.3200    5.7910 C.ar   22  TRP22       0.0001
     14  CH2       45.3900    0.2930    4.8830 C.ar   22  TRP22       0.0015
     15  N         42.1010    2.5230    7.9140 N.am   23  PRO23      -0.2718
     16  CA        42.2600    3.6470    6.9740 C.3    23  PRO23       0.1535
     17  C         41.5680    4.9380    7.4300 C.2    23  PRO23       0.2598
     18  O         41.8700    6.0050    6.9040 O.2    23  PRO23      -0.2715
     19  CB        41.5960    3.1200    5.6850 C.3    23  PRO23       0.0310
     20  CG        41.5270    1.6270    5.8580 C.3    23  PRO23       0.0237
     21  CD        41.2600    1.4650    7.3310 C.3    23  PRO23       0.0939
     22  N         40.6490    4.8250    8.3920 N.am   24  PHE24      -0.1974
     23  CA        39.7650    5.9050    8.7900 C.3    24  PHE24       0.1639
     24  C         40.1490    6.5630   10.1180 C.2    24  PHE24       0.2290
     25  O         39.4650    7.4730   10.5630 O.2    24  PHE24      -0.2864
     26  CB        38.3370    5.3670    8.9220 C.3    24  PHE24       0.0560
     27  CG        37.7740    4.8190    7.6460 C.ar   24  PHE24      -0.0200
     28  CD1       37.2120    5.6680    6.7000 C.ar   24  PHE24      -0.0042
     29  CD2       37.7950    3.4550    7.3840 C.ar   24  PHE24      -0.0042
     30  CE1       36.6850    5.1620    5.5110 C.ar   24  PHE24      -0.0003
     31  CE2       37.2550    2.9500    6.2040 C.ar   24  PHE24      -0.0003
     32  CZ        36.7000    3.8030    5.2680 C.ar   24  PHE24      -0.0000
     33  N         42.8490    8.2870   10.8470 N.3    26  GLN26      -0.1231
     34  CA        43.5840    9.5340   10.6620 C.3    26  GLN26       0.1683
     35  C         43.1840   10.1150    9.3170 C.2    26  GLN26       0.2434
     36  O         42.6290    9.4000    8.4910 O.2    26  GLN26      -0.2733
     37  CB        45.0930    9.2930   10.7230 C.3    26  GLN26       0.0380
     38  CG        45.6380    8.3260    9.6730 C.3    26  GLN26       0.0905
     39  CD        45.2160    6.8770    9.9190 C.2    26  GLN26       0.2608
     40  OE1       45.4070    6.3430   11.0190 O.2    26  GLN26      -0.2717
     41  NE2       44.6120    6.2430    8.9000 N.am   26  GLN26      -0.0878
     42  N         43.4620   11.4090    9.0870 N.am   27  PRO27      -0.2718
     43  CA        43.1100   11.9700    7.7880 C.3    27  PRO27       0.1535
     44  C         43.7490   11.1980    6.6330 C.2    27  PRO27       0.2598
     45  O         44.7920   10.5720    6.8120 O.2    27  PRO27      -0.2715
     46  CB        43.6520   13.4020    7.8530 C.3    27  PRO27       0.0310
     47  CG        43.8240   13.7030    9.3000 C.3    27  PRO27       0.0237
     48  CD        44.0950   12.4010    9.9790 C.3    27  PRO27       0.0939
     49  N         43.1040   11.2240    5.4690 N.am   28  VAL28      -0.1964
     50  CA        43.6810   10.6800    4.2480 C.3    28  VAL28       0.1727
     51  C         44.9600   11.4520    3.9650 C.2    28  VAL28       0.2616
     52  O         44.9560   12.6820    3.9800 O.2    28  VAL28      -0.2715
     53  CB        42.7060   10.8400    3.0410 C.3    28  VAL28       0.0290
     54  CG1       43.4060   10.5820    1.7140 C.3    28  VAL28       0.0023
     55  CG2       41.4920    9.9210    3.2040 C.3    28  VAL28       0.0023
     56  N         46.0550   10.7360    3.7420 N.am   29  ASP29      -0.1971
     57  CA        47.3170   11.3640    3.3600 C.3    29  ASP29       0.1709
     58  C         47.4750   11.1670    1.8630 C.2    29  ASP29       0.2293
     59  O         47.9090   10.1080    1.4070 O.2    29  ASP29      -0.2864
     60  CB        48.4850   10.7500    4.1340 C.3    29  ASP29       0.1436
     61  CG        49.7900   11.5220    3.9620 C.2    29  ASP29       0.3671
     62  OD1       49.9540   12.2530    2.9630 O.co2  29  ASP29      -0.2456
     63  OD2       50.6760   11.3550    4.8240 O.co2  29  ASP29      -0.2456
     64  N         49.6800    8.4680   -0.2040 N.3    33  LEU33      -0.1245
     65  CA        48.9370    7.5360   -1.0560 C.3    33  LEU33       0.1561
     66  C         49.1440    7.7960   -2.5480 C.2    33  LEU33       0.2260
     67  O         48.7690    6.9780   -3.3790 O.2    33  LEU33      -0.2867
     68  CB        47.4440    7.5710   -0.7190 C.3    33  LEU33       0.0270
     69  CG        47.0660    6.9560    0.6370 C.3    33  LEU33       0.0019
     70  CD1       45.6680    7.3810    1.0330 C.3    33  LEU33       0.0001
     71  CD2       47.1830    5.4400    0.6100 C.3    33  LEU33       0.0001
     72  N         47.7420   10.4380   -4.2890 N.3    35  LEU35      -0.1245
     73  CA        46.4280   10.8100   -4.8170 C.3    35  LEU35       0.1561
     74  C         46.3190   12.3370   -4.9360 C.2    35  LEU35       0.2260
     75  O         45.7050   12.9960   -4.0890 O.2    35  LEU35      -0.2867
     76  CB        45.3230   10.2780   -3.9060 C.3    35  LEU35       0.0270
     77  CG        45.3090    8.7750   -3.6420 C.3    35  LEU35       0.0019
     78  CD1       44.2420    8.4380   -2.6030 C.3    35  LEU35       0.0001
     79  CD2       45.1020    8.0060   -4.9410 C.3    35  LEU35       0.0001
     80  N         42.8470   14.0150   -4.7540 N.3    38  TYR38      -0.1241
     81  CA        41.9780   13.7720   -3.5900 C.3    38  TYR38       0.1605
     82  C         41.3610   15.0730   -3.0890 C.2    38  TYR38       0.2264
     83  O         40.1430   15.1730   -2.9400 O.2    38  TYR38      -0.2867
     84  CB        42.6850   13.0380   -2.4360 C.3    38  TYR38       0.0534
     85  CG        41.6950   12.6960   -1.3280 C.ar   38  TYR38      -0.0201
     86  CD1       40.8780   11.5690   -1.4180 C.ar   38  TYR38      -0.0009
     87  CD2       41.5420   13.5260   -0.2150 C.ar   38  TYR38      -0.0009
     88  CE1       39.9620   11.2700   -0.4210 C.ar   38  TYR38       0.0417
     89  CE2       40.6130   13.2430    0.7760 C.ar   38  TYR38       0.0417
     90  CZ        39.8360   12.1010    0.6720 C.ar   38  TYR38       0.1957
     91  OH        38.9130   11.8000    1.6520 O.3    38  TYR38      -0.2866
     92  N         34.3620    8.9750    1.4480 N.3    77  CYS77      -0.1235
     93  CA        34.8570    7.6990    0.9460 C.3    77  CYS77       0.1677
     94  C         34.0720    7.2500   -0.2860 C.2    77  CYS77       0.2270
     95  O         34.6630    6.8970   -1.3140 O.2    77  CYS77      -0.2867
     96  CB        34.8330    6.6370    2.0510 C.3    77  CYS77       0.0956
     97  SG        35.7470    5.1400    1.6180 S.3    77  CYS77      -0.0801
     98  N         34.7210    9.7780   -3.5100 N.3    80  TYR80      -0.1227
     99  CA        36.0520    9.8030   -4.1640 C.3    80  TYR80       0.1736
    100  C         36.4600    8.4700   -4.7940 C.2    80  TYR80       0.2595
    101  O         37.0230    8.4310   -5.8950 O.2    80  TYR80      -0.2718
    102  CB        37.1510   10.2050   -3.1560 C.3    80  TYR80       0.0548
    103  CG        38.5180   10.1190   -3.7960 C.ar   80  TYR80      -0.0200
    104  CD1       38.9430   11.1030   -4.6720 C.ar   80  TYR80      -0.0009
    105  CD2       39.3310    9.0090   -3.5990 C.ar   80  TYR80      -0.0009
    106  CE1       40.1630   11.0180   -5.3080 C.ar   80  TYR80       0.0417
    107  CE2       40.5570    8.9050   -4.2400 C.ar   80  TYR80       0.0417
    108  CZ        40.9660    9.9080   -5.0910 C.ar   80  TYR80       0.1957
    109  OH        42.1740    9.8020   -5.7250 O.3    80  TYR80      -0.2866
    110  N         36.2170    7.3720   -4.0870 N.am   81  ASN81      -0.1974
    111  CA        36.7410    6.0700   -4.5130 C.3    81  ASN81       0.1688
    112  C         35.8750    5.3870   -5.5940 C.2    81  ASN81       0.2292
    113  O         34.6710    5.6860   -5.7480 O.2    81  ASN81      -0.2864
    114  CB        36.8920    5.1760   -3.2940 C.3    81  ASN81       0.1181
    115  CG        37.9150    5.7130   -2.3160 C.2    81  ASN81       0.2629
    116  OD1       39.1020    5.6440   -2.5730 O.2    81  ASN81      -0.2716
    117  ND2       37.4560    6.2600   -1.1880 N.am   81  ASN81      -0.0877
    118  N         37.9580   -0.2670   -0.1000 N.3    87  ILE87      -0.1245
    119  CA        37.7040    0.7830    0.8830 C.3    87  ILE87       0.1561
    120  C         36.2330    1.1320    0.9850 C.2    87  ILE87       0.2260
    121  O         35.7530    1.4410    2.0690 O.2    87  ILE87      -0.2867
    122  CB        38.5620    2.0480    0.6290 C.3    87  ILE87       0.0252
    123  CG1       38.6020    2.9420    1.8750 C.3    87  ILE87       0.0019
    124  CG2       38.1550    2.7920   -0.6430 C.3    87  ILE87       0.0019
    125  CD1       39.4940    2.3940    2.9760 C.3    87  ILE87       0.0001
@<TRIPOS>BOND
     1   101   100    2
     2   113   112    2
     3   109   108    1
     4   112   111    1
     5   106   108   ar
     6   106   104   ar
     7   108   107   ar
     8    79    77    1
     9    74    73    1
    10    74    75    2
    11    73    72    1
    12    73    76    1
    13   100    99    1
    14   100   110   am
    15    80    81    1
    16   104   103   ar
    17   111   110    1
    18   111   114    1
    19   107   105   ar
    20    99    98    1
    21    99   102    1
    22    76    77    1
    23   103   105   ar
    24   103   102    1
    25    77    78    1
    26    81    82    1
    27    81    84    1
    28    67    66    2
    29   114   115    1
    30    82    83    2
    31   116   115    2
    32    66    65    1
    33    84    85    1
    34   115   117   am
    35    86    85   ar
    36    86    88   ar
    37    85    87   ar
    38    95    94    2
    39    65    68    1
    40    65    64    1
    41    68    69    1
    42   124   122    1
    43    88    90   ar
    44    94    93    1
    45    87    89   ar
    46   118   119    1
    47    71    69    1
    48   122   119    1
    49   122   123    1
    50    69    70    1
    51    90    89   ar
    52    90    91    1
    53   119   120    1
    54    93    92    1
    55    93    96    1
    56   120   121    2
    57    59    58    2
    58    97    96    1
    59    54    53    1
    60    58    57    1
    61   123   125    1
    62    62    61   ar
    63    53    55    1
    64    53    50    1
    65    57    56    1
    66    57    60    1
    67    56    51   am
    68    61    60    1
    69    61    63   ar
    70    51    52    2
    71    51    50    1
    72    50    49    1
    73    14    12   ar
    74    14    13   ar
    75    12    10   ar
    76    32    30   ar
    77    32    31   ar
    78    49    44   am
    79    30    28   ar
    80    19    20    1
    81    19    16    1
    82    13    11   ar
    83    20    21    1
    84    31    29   ar
    85    10     9   ar
    86    10     8   ar
    87    44    45    2
    88    44    43    1
    89    28    27   ar
    90    18    17    2
    91    16    17    1
    92    16    15    1
    93    11     8   ar
    94     9     7   ar
    95    21    15    1
    96    29    27   ar
    97    17    22   am
    98     8     6   ar
    99    27    26    1
   100    43    46    1
   101    43    42    1
   102    46    47    1
   103    15     3   am
   104    22    23    1
   105     7     6   ar
   106    36    35    2
   107     6     5    1
   108    23    26    1
   109    23    24    1
   110    41    39   am
   111    42    35   am
   112    42    48    1
   113     3     4    2
   114     3     2    1
   115    47    48    1
   116    35    34    1
   117    38    39    1
   118    38    37    1
   119    39    40    2
   120     5     2    1
   121    24    25    2
   122     2     1    1
   123    34    37    1
   124    34    33    1
