@<TRIPOS>MOLECULE
tmp/4a9hA00.pdb
 127 124 0 0 0
SMALL
GASTEIGER

@<TRIPOS>ATOM
      1  N         12.4830   14.5490   -4.7870 N.3    23  TRP23      -0.1228
      2  CA        11.7560   13.9210   -5.9010 C.3    23  TRP23       0.1722
      3  C         12.5330   12.8270   -6.6100 C.2    23  TRP23       0.2437
      4  O         11.9450   11.8510   -7.0200 O.2    23  TRP23      -0.2733
      5  CB        11.1370   14.9570   -6.8730 C.3    23  TRP23       0.0563
      6  CG        12.1640   15.7890   -7.5590 C.ar   23  TRP23       0.0003
      7  CD1       12.6810   17.0210   -7.1520 C.ar   23  TRP23       0.0946
      8  CD2       12.8800   15.4520   -8.7920 C.ar   23  TRP23       0.0152
      9  NE1       13.6500   17.4400   -8.0310 N.ar   23  TRP23      -0.2442
     10  CE2       13.8130   16.5390   -9.0340 C.ar   23  TRP23       0.0810
     11  CE3       12.8390   14.3890   -9.6770 C.ar   23  TRP23       0.0012
     12  CZ2       14.6530   16.5470  -10.1280 C.ar   23  TRP23       0.0191
     13  CZ3       13.6910   14.4010  -10.7700 C.ar   23  TRP23       0.0001
     14  CH2       14.5780   15.4550  -10.9910 C.ar   23  TRP23       0.0015
     15  N         13.8700   12.9630   -6.7670 N.am   24  PRO24      -0.2718
     16  CA        14.5740   11.8720   -7.4510 C.3    24  PRO24       0.1535
     17  C         14.6150   10.5740   -6.6460 C.2    24  PRO24       0.2598
     18  O         14.9920    9.5430   -7.1950 O.2    24  PRO24      -0.2715
     19  CB        16.0070   12.4130   -7.5900 C.3    24  PRO24       0.0310
     20  CG        15.8530   13.9070   -7.5230 C.3    24  PRO24       0.0237
     21  CD        14.7890   14.0750   -6.4750 C.3    24  PRO24       0.0939
     22  N         14.2720   10.6620   -5.3540 N.am   25  PHE25      -0.1974
     23  CA        14.4100    9.5870   -4.4050 C.3    25  PHE25       0.1639
     24  C         13.0760    8.9570   -4.0420 C.2    25  PHE25       0.2290
     25  O         13.0500    7.9470   -3.3570 O.2    25  PHE25      -0.2864
     26  CB        15.0850   10.0950   -3.1260 C.3    25  PHE25       0.0560
     27  CG        16.4570   10.6410   -3.3460 C.ar   25  PHE25      -0.0200
     28  CD1       17.5500    9.7930   -3.3980 C.ar   25  PHE25      -0.0042
     29  CD2       16.6620   12.0160   -3.5180 C.ar   25  PHE25      -0.0042
     30  CE1       18.8160   10.3060   -3.6120 C.ar   25  PHE25      -0.0003
     31  CE2       17.9300   12.5210   -3.7290 C.ar   25  PHE25      -0.0003
     32  CZ        19.0070   11.6670   -3.7730 C.ar   25  PHE25      -0.0000
     33  N         10.9970    7.2340   -5.7540 N.3    27  GLN27      -0.1245
     34  CA        10.7060    5.9930   -6.4620 C.3    27  GLN27       0.1566
     35  C         12.0540    5.4370   -6.9280 C.2    27  GLN27       0.2260
     36  O         13.0170    6.1870   -7.0140 O.2    27  GLN27      -0.2867
     37  CB         9.7560    6.2670   -7.6530 C.3    27  GLN27       0.0367
     38  CG        10.3240    7.1720   -8.7460 C.3    27  GLN27       0.0905
     39  CD        10.5160    8.6330   -8.2930 C.2    27  GLN27       0.2608
     40  OE1       11.6370    9.1860   -8.3470 O.2    27  GLN27      -0.2717
     41  NE2        9.4250    9.2570   -7.8390 N.am   27  GLN27      -0.0878
     42  N         15.3550    4.2700   -8.8670 N.3    29  VAL29      -0.1231
     43  CA        16.0700    4.7260  -10.0430 C.3    29  VAL29       0.1692
     44  C         15.5840    3.9180  -11.2710 C.2    29  VAL29       0.2592
     45  O         15.6460    2.6820  -11.2930 O.2    29  VAL29      -0.2718
     46  CB        17.5920    4.5120   -9.9000 C.3    29  VAL29       0.0266
     47  CG1       18.2690    4.7940  -11.2170 C.3    29  VAL29       0.0020
     48  CG2       18.1700    5.3720   -8.7650 C.3    29  VAL29       0.0020
     49  N         15.0970    4.6210  -12.2840 N.am   30  ASP30      -0.1974
     50  CA        14.6750    3.9760  -13.5250 C.3    30  ASP30       0.1709
     51  C         15.7850    4.1320  -14.5560 C.2    30  ASP30       0.2293
     52  O         15.8760    5.1690  -15.2200 O.2    30  ASP30      -0.2864
     53  CB        13.3750    4.5980  -14.0260 C.3    30  ASP30       0.1436
     54  CG        12.7910    3.8700  -15.2580 C.2    30  ASP30       0.3671
     55  OD1       13.5280    3.1380  -15.9370 O.co2  30  ASP30      -0.2456
     56  OD2       11.5890    4.0500  -15.5300 O.co2  30  ASP30      -0.2456
     57  N         14.7110    4.8630  -18.3610 N.3    33  LYS33      -0.1231
     58  CA        14.3190    6.2730  -18.4370 C.3    33  LYS33       0.1693
     59  C         15.5050    7.2370  -18.3460 C.2    33  LYS33       0.2591
     60  O         15.5480    8.2220  -19.0670 O.2    33  LYS33      -0.2718
     61  CB        13.3140    6.5710  -17.3400 C.3    33  LYS33       0.0285
     62  CG        12.8440    8.0090  -17.2400 C.3    33  LYS33       0.0035
     63  CD        11.7720    8.1120  -16.1600 C.3    33  LYS33       0.0206
     64  CE        11.7770    9.4580  -15.4600 C.3    33  LYS33       0.1093
     65  NZ        10.7080    9.5200  -14.4170 N.3    33  LYS33      -0.1314
     66  N         16.4630    6.9560  -17.4700 N.am   34  LEU34      -0.1980
     67  CA        17.6010    7.8670  -17.2890 C.3    34  LEU34       0.1596
     68  C         18.7360    7.6050  -18.2620 C.2    34  LEU34       0.2287
     69  O         19.6790    8.4000  -18.3520 O.2    34  LEU34      -0.2864
     70  CB        18.0950    7.8430  -15.8420 C.3    34  LEU34       0.0297
     71  CG        17.0800    8.3800  -14.8060 C.3    34  LEU34       0.0022
     72  CD1       17.4640    7.9700  -13.3950 C.3    34  LEU34       0.0001
     73  CD2       16.9520    9.8970  -14.8870 C.3    34  LEU34       0.0001
     74  N         20.8280    4.8780  -18.2370 N.3    36  LEU36      -0.1245
     75  CA        21.9410    4.4930  -17.3750 C.3    36  LEU36       0.1561
     76  C         22.1080    2.9650  -17.3580 C.2    36  LEU36       0.2260
     77  O         21.7460    2.3070  -16.3840 O.2    36  LEU36      -0.2867
     78  CB        21.6990    5.0430  -15.9710 C.3    36  LEU36       0.0270
     79  CG        21.5740    6.5740  -15.8500 C.3    36  LEU36       0.0019
     80  CD1       21.1940    6.9640  -14.4280 C.3    36  LEU36       0.0001
     81  CD2       22.8500    7.2860  -16.2760 C.3    36  LEU36       0.0001
     82  N         23.7860    1.2200  -14.3420 N.3    39  TYR39      -0.1241
     83  CA        23.3290    1.4930  -12.9580 C.3    39  TYR39       0.1605
     84  C         23.2570    0.2030  -12.1310 C.2    39  TYR39       0.2264
     85  O         23.7820    0.1270  -11.0190 O.2    39  TYR39      -0.2867
     86  CB        21.9850    2.2350  -12.8970 C.3    39  TYR39       0.0534
     87  CG        21.6190    2.6090  -11.4680 C.ar   39  TYR39      -0.0201
     88  CD1       22.1570    3.7500  -10.8690 C.ar   39  TYR39      -0.0009
     89  CD2       20.7810    1.8070  -10.7010 C.ar   39  TYR39      -0.0009
     90  CE1       21.8620    4.0920   -9.5540 C.ar   39  TYR39       0.0417
     91  CE2       20.4760    2.1430   -9.3820 C.ar   39  TYR39       0.0417
     92  CZ        21.0220    3.3010   -8.8160 C.ar   39  TYR39       0.1957
     93  OH        20.7620    3.6500   -7.5040 O.3    39  TYR39      -0.2866
     94  N         23.6150    6.4470   -4.0200 N.3    78  CYS78      -0.1235
     95  CA        23.7010    7.7010   -4.7520 C.3    78  CYS78       0.1677
     96  C         25.1300    8.2010   -4.8280 C.2    78  CYS78       0.2270
     97  O         25.6310    8.5320   -5.9150 O.2    78  CYS78      -0.2867
     98  CB        22.7780    8.7360   -4.1110 C.3    78  CYS78       0.0956
     99  SG        22.6650   10.2940   -5.0230 S.3    78  CYS78      -0.0801
    100  N         27.4070    5.7120   -7.1200 N.3    81  TYR81      -0.1227
    101  CA        27.1610    5.6530   -8.5470 C.3    81  TYR81       0.1736
    102  C         27.4710    6.9510   -9.2810 C.2    81  TYR81       0.2595
    103  O         28.1100    6.9520  -10.3320 O.2    81  TYR81      -0.2718
    104  CB        25.7000    5.2430   -8.8360 C.3    81  TYR81       0.0548
    105  CG        25.4630    5.2720  -10.3170 C.ar   81  TYR81      -0.0200
    106  CD1       26.0220    4.2940  -11.1450 C.ar   81  TYR81      -0.0009
    107  CD2       24.8020    6.3300  -10.9110 C.ar   81  TYR81      -0.0009
    108  CE1       25.8570    4.3320  -12.5110 C.ar   81  TYR81       0.0417
    109  CE2       24.6510    6.3870  -12.2850 C.ar   81  TYR81       0.0417
    110  CZ        25.1870    5.3930  -13.0790 C.ar   81  TYR81       0.1957
    111  OH        25.0330    5.4510  -14.4430 O.3    81  TYR81      -0.2866
    112  N         27.0290    8.0630   -8.7300 N.am   82  ASN82      -0.1974
    113  CA        27.0790    9.3440   -9.4520 C.3    82  ASN82       0.1688
    114  C         28.4370   10.0120   -9.3630 C.2    82  ASN82       0.2292
    115  O         29.2290    9.6590   -8.5050 O.2    82  ASN82      -0.2864
    116  CB        26.0080   10.2490   -8.9020 C.3    82  ASN82       0.1181
    117  CG        24.6320    9.7170   -9.2010 C.2    82  ASN82       0.2629
    118  OD1       24.2010    9.7280  -10.3580 O.2    82  ASN82      -0.2716
    119  ND2       23.9350    9.2250   -8.1720 N.am   82  ASN82      -0.0877
    120  N         22.7330   15.6850   -7.9090 N.3    88  ILE88      -0.1245
    121  CA        22.0690   14.6490   -7.1290 C.3    88  ILE88       0.1561
    122  C         22.8080   14.3560   -5.8220 C.2    88  ILE88       0.2260
    123  O         22.1870   14.0810   -4.7990 O.2    88  ILE88      -0.2867
    124  CB        21.8670   13.3480   -7.9560 C.3    88  ILE88       0.0252
    125  CG1       20.8320   12.4560   -7.2950 C.3    88  ILE88       0.0019
    126  CG2       23.1700   12.6190   -8.2060 C.3    88  ILE88       0.0019
    127  CD1       19.4270   13.0100   -7.3760 C.3    88  ILE88       0.0001
@<TRIPOS>BOND
     1    60    59    2
     2    58    57    1
     3    58    59    1
     4    58    61    1
     5    69    68    2
     6    59    66   am
     7    68    67    1
     8    74    75    1
     9    66    67    1
    10    75    76    1
    11    75    78    1
    12    76    77    2
    13    61    62    1
    14    67    70    1
    15    62    63    1
    16    81    79    1
    17    63    64    1
    18    78    79    1
    19    55    54   ar
    20    79    80    1
    21    70    71    1
    22    56    54   ar
    23    64    65    1
    24    54    53    1
    25    52    51    2
    26    73    71    1
    27    71    72    1
    28    51    50    1
    29   111   110    1
    30    82    83    1
    31    53    50    1
    32    50    49    1
    33   110   108   ar
    34   110   109   ar
    35    83    86    1
    36    83    84    1
    37    86    87    1
    38   108   106   ar
    39   109   107   ar
    40    49    44   am
    41    84    85    2
    42    87    88   ar
    43    87    89   ar
    44    45    44    2
    45    44    43    1
    46    47    46    1
    47   106   105   ar
    48    14    13   ar
    49    14    12   ar
    50   107   105   ar
    51    88    90   ar
    52    13    11   ar
    53    89    91   ar
    54   118   117    2
    55   103   102    2
    56   105   104    1
    57    12    10   ar
    58    43    46    1
    59    43    42    1
    60    46    48    1
    61    11     8   ar
    62    90    92   ar
    63   113   114    1
    64   113   116    1
    65   113   112    1
    66    91    92   ar
    67   114   115    2
    68   102   112   am
    69   102   101    1
    70   117   116    1
    71   117   119   am
    72    10     8   ar
    73    10     9   ar
    74   104   101    1
    75    92    93    1
    76     8     6   ar
    77    38    39    1
    78    38    37    1
    79   101   100    1
    80    40    39    2
    81    39    41   am
    82   126   124    1
    83     9     7   ar
    84   124   125    1
    85   124   121    1
    86   120   121    1
    87    37    34    1
    88    19    20    1
    89    19    16    1
    90     6     7   ar
    91     6     5    1
    92    20    21    1
    93    16    15    1
    94    16    17    1
    95   127   125    1
    96    18    17    2
    97   121   122    1
    98     4     3    2
    99    36    35    2
   100    35    34    1
   101     5     2    1
   102    15     3   am
   103    15    21    1
   104    17    22   am
   105     3     2    1
   106    34    33    1
   107    97    96    2
   108     2     1    1
   109   122   123    2
   110    22    23    1
   111    99    98    1
   112    96    95    1
   113    95    98    1
   114    95    94    1
   115    23    24    1
   116    23    26    1
   117    24    25    2
   118    32    31   ar
   119    32    30   ar
   120    31    29   ar
   121    30    28   ar
   122    29    27   ar
   123    28    27   ar
   124    27    26    1
