@<TRIPOS>MOLECULE
tmp/4a9iC00.pdb
 134 129 0 0 0
SMALL
GASTEIGER

@<TRIPOS>ATOM
      1  N          6.6800   15.2560   19.2940 N.3    22  TRP22      -0.1228
      2  CA         6.3190   14.4520   18.1210 C.3    22  TRP22       0.1722
      3  C          5.1660   13.4470   18.3040 C.2    22  TRP22       0.2437
      4  O          4.3800   13.2470   17.3700 O.2    22  TRP22      -0.2733
      5  CB         7.5680   13.7970   17.5000 C.3    22  TRP22       0.0563
      6  CG         8.2060   12.7330   18.3450 C.ar   22  TRP22       0.0003
      7  CD1        9.1960   12.9050   19.2730 C.ar   22  TRP22       0.0946
      8  CD2        7.8830   11.3350   18.3530 C.ar   22  TRP22       0.0152
      9  NE1        9.5020   11.7000   19.8570 N.ar   22  TRP22      -0.2442
     10  CE2        8.7230   10.7200   19.3000 C.ar   22  TRP22       0.0810
     11  CE3        6.9630   10.5430   17.6440 C.ar   22  TRP22       0.0012
     12  CZ2        8.6810    9.3480   19.5600 C.ar   22  TRP22       0.0191
     13  CZ3        6.9250    9.1760   17.8930 C.ar   22  TRP22       0.0001
     14  CH2        7.7730    8.5940   18.8470 C.ar   22  TRP22       0.0015
     15  N          5.0540   12.8110   19.4940 N.am   23  PRO23      -0.2718
     16  CA         3.9310   11.8900   19.6830 C.3    23  PRO23       0.1535
     17  C          2.5820   12.5980   19.8150 C.2    23  PRO23       0.2598
     18  O          1.5450   11.9300   19.8040 O.2    23  PRO23      -0.2715
     19  CB         4.2580   11.1960   21.0090 C.3    23  PRO23       0.0310
     20  CG         5.6860   11.4840   21.2750 C.3    23  PRO23       0.0237
     21  CD         5.9370   12.8160   20.6720 C.3    23  PRO23       0.0939
     22  N          2.6030   13.9290   19.9160 N.am   24  PHE24      -0.1974
     23  CA         1.3920   14.7030   20.1870 C.3    24  PHE24       0.1639
     24  C          1.0150   15.6580   19.0680 C.2    24  PHE24       0.2290
     25  O          0.0480   16.4100   19.2130 O.2    24  PHE24      -0.2864
     26  CB         1.5270   15.4910   21.4970 C.3    24  PHE24       0.0560
     27  CG         1.9260   14.6510   22.6680 C.ar   24  PHE24      -0.0200
     28  CD1        0.9600   13.9870   23.4270 C.ar   24  PHE24      -0.0042
     29  CD2        3.2700   14.5170   23.0200 C.ar   24  PHE24      -0.0042
     30  CE1        1.3330   13.2010   24.5240 C.ar   24  PHE24      -0.0003
     31  CE2        3.6550   13.7270   24.0990 C.ar   24  PHE24      -0.0003
     32  CZ         2.6880   13.0710   24.8570 C.ar   24  PHE24      -0.0000
     33  N         -0.1310   14.9740   16.0830 N.3    26  GLN26      -0.1245
     34  CA        -1.2640   14.4950   15.2930 C.3    26  GLN26       0.1566
     35  C         -2.1250   13.5490   16.1280 C.2    26  GLN26       0.2260
     36  O         -1.6160   12.9270   17.0670 O.2    26  GLN26      -0.2867
     37  CB        -0.7950   13.8120   13.9890 C.3    26  GLN26       0.0367
     38  CG        -0.0030   12.5090   14.1610 C.3    26  GLN26       0.0905
     39  CD         1.2590   12.7010   14.9920 C.2    26  GLN26       0.2608
     40  OE1        2.0700   13.5890   14.7170 O.2    26  GLN26      -0.2717
     41  NE2        1.4190   11.8780   16.0240 N.am   26  GLN26      -0.0878
     42  N         -4.1100   10.5400   17.8230 N.3    28  VAL28      -0.1245
     43  CA        -3.7920    9.1240   18.0070 C.3    28  VAL28       0.1561
     44  C         -4.5390    8.2920   16.9500 C.2    28  VAL28       0.2260
     45  O         -5.7680    8.3840   16.8200 O.2    28  VAL28      -0.2867
     46  CB        -4.1340    8.6390   19.4580 C.3    28  VAL28       0.0252
     47  CG1       -4.0290    7.1160   19.5860 C.3    28  VAL28       0.0019
     48  CG2       -3.2360    9.3250   20.4840 C.3    28  VAL28       0.0019
     49  N         -1.2360    2.4460   15.1770 N.3    33  LEU33      -0.1245
     50  CA        -0.3820    2.1710   16.3430 C.3    33  LEU33       0.1561
     51  C         -0.7470    0.8770   17.0630 C.2    33  LEU33       0.2260
     52  O         -0.0880    0.4940   18.0320 O.2    33  LEU33      -0.2867
     53  CB        -0.4330    3.3290   17.3480 C.3    33  LEU33       0.0270
     54  CG        -0.3410    4.7830   16.8830 C.3    33  LEU33       0.0019
     55  CD1       -0.6450    5.7090   18.0480 C.3    33  LEU33       0.0001
     56  CD2        1.0150    5.1020   16.2730 C.3    33  LEU33       0.0001
     57  N         -3.6360    0.0400   18.8390 N.3    35  LEU35      -0.1245
     58  CA        -4.2420    0.2600   20.1510 C.3    35  LEU35       0.1561
     59  C         -5.7600    0.0540   20.0600 C.2    35  LEU35       0.2260
     60  O         -6.5170    1.0230   20.0970 O.2    35  LEU35      -0.2867
     61  CB        -3.9090    1.6710   20.6700 C.3    35  LEU35       0.0270
     62  CG        -2.4580    2.1700   20.5780 C.3    35  LEU35       0.0019
     63  CD1       -2.3670    3.6600   20.8890 C.3    35  LEU35       0.0001
     64  CD2       -1.5220    1.3680   21.4800 C.3    35  LEU35       0.0001
     65  N         -7.9980    1.9310   22.6310 N.3    38  TYR38      -0.1241
     66  CA        -7.7340    3.3510   22.8630 C.3    38  TYR38       0.1605
     67  C         -8.9850    4.2220   22.9780 C.2    38  TYR38       0.2264
     68  O         -9.0520    5.0940   23.8370 O.2    38  TYR38      -0.2867
     69  CB        -6.7830    3.9380   21.8060 C.3    38  TYR38       0.0534
     70  CG        -6.4130    5.3680   22.1350 C.ar   38  TYR38      -0.0201
     71  CD1       -5.4010    5.6510   23.0550 C.ar   38  TYR38      -0.0009
     72  CD2       -7.1050    6.4380   21.5680 C.ar   38  TYR38      -0.0009
     73  CE1       -5.0780    6.9560   23.3810 C.ar   38  TYR38       0.0417
     74  CE2       -6.7900    7.7470   21.8970 C.ar   38  TYR38       0.0417
     75  CZ        -5.7760    7.9970   22.8080 C.ar   38  TYR38       0.1957
     76  OH        -5.4490    9.2930   23.1390 O.3    38  TYR38      -0.2866
     77  N         -5.4120   16.5150   26.2950 N.3    73  MET73      -0.1245
     78  CA        -4.3060   15.8190   25.6060 C.3    73  MET73       0.1570
     79  C         -3.3960   15.1020   26.6020 C.2    73  MET73       0.2261
     80  O         -3.2280   13.9020   26.5130 O.2    73  MET73      -0.2867
     81  CB        -3.5110   16.7940   24.7390 C.3    73  MET73       0.0387
     82  CG        -2.2640   16.1890   24.1060 C.3    73  MET73       0.0595
     83  SD        -1.4190   17.3510   23.0370 S.3    73  MET73      -0.1393
     84  CE        -0.6600   18.4280   24.2350 C.3    73  MET73       0.0692
     85  N         -5.2340   12.3260   28.7630 N.3    76  ASN76      -0.1225
     86  CA        -5.4290   11.0750   28.0030 C.3    76  ASN76       0.1785
     87  C         -4.1790   10.2000   28.0100 C.2    76  ASN76       0.2597
     88  O         -4.2650    8.9690   28.1110 O.2    76  ASN76      -0.2718
     89  CB        -5.8460   11.3310   26.5540 C.3    76  ASN76       0.1169
     90  CG        -7.1930   12.0180   26.4390 C.2    76  ASN76       0.2627
     91  OD1       -8.0110   11.9990   27.3710 O.2    76  ASN76      -0.2716
     92  ND2       -7.4310   12.6360   25.2870 N.am   76  ASN76      -0.0877
     93  N         -3.0170   10.8420   27.8980 N.am   77  CYS77      -0.1970
     94  CA        -1.7510   10.1170   27.8330 C.3    77  CYS77       0.1712
     95  C         -1.5170    9.3820   29.1530 C.2    77  CYS77       0.2296
     96  O         -1.3460    8.1640   29.1740 O.2    77  CYS77      -0.2864
     97  CB        -0.6050   11.0820   27.5180 C.3    77  CYS77       0.0983
     98  SG         0.9880   10.2830   27.3790 S.3    77  CYS77      -0.0798
     99  N         -4.1730    6.4230   29.7270 N.3    80  TYR80      -0.1227
    100  CA        -4.1310    5.2660   28.8460 C.3    80  TYR80       0.1736
    101  C         -2.8280    4.4710   28.9640 C.2    80  TYR80       0.2595
    102  O         -2.8360    3.2370   28.9600 O.2    80  TYR80      -0.2718
    103  CB        -4.4060    5.6610   27.3780 C.3    80  TYR80       0.0548
    104  CG        -4.3280    4.4680   26.4550 C.ar   80  TYR80      -0.0200
    105  CD1       -5.3710    3.5450   26.3930 C.ar   80  TYR80      -0.0009
    106  CD2       -3.1850    4.2250   25.6850 C.ar   80  TYR80      -0.0009
    107  CE1       -5.2920    2.4190   25.5730 C.ar   80  TYR80       0.0417
    108  CE2       -3.0970    3.0990   24.8580 C.ar   80  TYR80       0.0417
    109  CZ        -4.1540    2.2050   24.8120 C.ar   80  TYR80       0.1957
    110  OH        -4.0840    1.0970   24.0010 O.3    80  TYR80      -0.2866
    111  N         -1.7120    5.1820   29.0550 N.am   81  ASN81      -0.1974
    112  CA        -0.3980    4.5450   28.9710 C.3    81  ASN81       0.1688
    113  C          0.1110    3.9610   30.2750 C.2    81  ASN81       0.2292
    114  O         -0.2950    4.3840   31.3590 O.2    81  ASN81      -0.2864
    115  CB         0.6070    5.5340   28.3900 C.3    81  ASN81       0.1181
    116  CG         0.3210    5.8420   26.9430 C.2    81  ASN81       0.2629
    117  OD1        0.4990    4.9890   26.0810 O.2    81  ASN81      -0.2716
    118  ND2       -0.1420    7.0500   26.6690 N.am   81  ASN81      -0.0877
    119  N          5.9630    3.7770   30.7670 N.3    85  ASP85      -0.1239
    120  CA         6.1180    4.2010   29.3720 C.3    85  ASP85       0.1674
    121  C          6.8240    5.5430   29.2290 C.2    85  ASP85       0.2266
    122  O          6.5360    6.4820   29.9750 O.2    85  ASP85      -0.2867
    123  CB         4.7600    4.2770   28.6810 C.3    85  ASP85       0.1410
    124  CG         4.1500    2.9130   28.4400 C.2    85  ASP85       0.3668
    125  OD1        4.8690    1.8940   28.5990 O.co2  85  ASP85      -0.2456
    126  OD2        2.9470    2.8580   28.0860 O.co2  85  ASP85      -0.2456
    127  N          6.4830    7.7610   26.8490 N.3    87  ILE87      -0.1245
    128  CA         5.4760    8.7840   26.5150 C.3    87  ILE87       0.1561
    129  C          5.0080    9.5820   27.7540 C.2    87  ILE87       0.2260
    130  O          4.8100   10.8000   27.6900 O.2    87  ILE87      -0.2867
    131  CB         4.2530    8.1490   25.7670 C.3    87  ILE87       0.0252
    132  CG1        3.2650    9.2180   25.3010 C.3    87  ILE87       0.0019
    133  CG2        3.5350    7.1100   26.6230 C.3    87  ILE87       0.0019
    134  CD1        3.3910    9.5470   23.8660 C.3    87  ILE87       0.0001
@<TRIPOS>BOND
     1    37    38    1
     2    37    34    1
     3    38    39    1
     4    40    39    2
     5    39    41   am
     6    49    50    1
     7    34    33    1
     8    34    35    1
     9    35    36    2
    10    56    54    1
    11    50    51    1
    12    50    53    1
    13    45    44    2
    14    54    53    1
    15    54    55    1
    16    44    43    1
    17    51    52    2
    18     4     3    2
    19     5     2    1
    20     5     6    1
    21    11    13   ar
    22    11     8   ar
    23    42    43    1
    24    13    14   ar
    25    43    46    1
    26     2     3    1
    27     2     1    1
    28     3    15   am
    29     6     8   ar
    30     6     7   ar
    31     8    10   ar
    32    57    58    1
    33    14    12   ar
    34    24    25    2
    35    24    23    1
    36     7     9   ar
    37    10    12   ar
    38    10     9   ar
    39    46    47    1
    40    46    48    1
    41    15    16    1
    42    15    21    1
    43    16    17    1
    44    16    19    1
    45    18    17    2
    46    17    22   am
    47    22    23    1
    48    59    60    2
    49    59    58    1
    50    58    61    1
    51    23    26    1
    52    62    61    1
    53    62    63    1
    54    62    64    1
    55    21    20    1
    56    19    20    1
    57    26    27    1
    58    72    74   ar
    59    72    70   ar
    60    69    70    1
    61    69    66    1
    62    74    75   ar
    63    70    71   ar
    64    65    66    1
    65    27    29   ar
    66    27    28   ar
    67    75    76    1
    68    75    73   ar
    69    66    67    1
    70    67    68    2
    71    29    31   ar
    72    83    82    1
    73    83    84    1
    74    71    73   ar
    75    28    30   ar
    76   134   132    1
    77   110   109    1
    78    31    32   ar
    79    82    81    1
    80    30    32   ar
    81    81    78    1
    82   109   108   ar
    83   109   107   ar
    84   108   106   ar
    85    92    90   am
    86   132   131    1
    87   107   105   ar
    88    78    77    1
    89    78    79    1
    90   106   104   ar
    91   131   128    1
    92   131   133    1
    93   117   116    2
    94   105   104   ar
    95    90    89    1
    96    90    91    2
    97   104   103    1
    98    80    79    2
    99   128   127    1
   100   128   129    1
   101    89    86    1
   102   118   116   am
   103   116   115    1
   104   103   100    1
   105    98    97    1
   106    97    94    1
   107   130   129    2
   108    94    93    1
   109    94    95    1
   110    93    87   am
   111    86    87    1
   112    86    85    1
   113    87    88    2
   114   126   124   ar
   115   115   112    1
   116   124   125   ar
   117   124   123    1
   118   123   120    1
   119   100   101    1
   120   100    99    1
   121   102   101    2
   122   101   111   am
   123   112   111    1
   124   112   113    1
   125    95    96    2
   126   121   120    1
   127   121   122    2
   128   120   119    1
   129   113   114    2
