@<TRIPOS>MOLECULE
tmp/4a9iB00.pdb
 142 136 0 0 0
SMALL
GASTEIGER

@<TRIPOS>ATOM
      1  N         41.4840    0.8110   10.1400 N.3    27  TRP27      -0.1228
      2  CA        42.8310    1.4160    9.9360 C.3    27  TRP27       0.1722
      3  C         42.9620    2.5170    8.8610 C.2    27  TRP27       0.2437
      4  O         43.7240    3.4640    9.0500 O.2    27  TRP27      -0.2733
      5  CB        43.9230    0.3510    9.7670 C.3    27  TRP27       0.0563
      6  CG        43.7730   -0.5110    8.5730 C.ar   27  TRP27       0.0003
      7  CD1       43.0750   -1.6820    8.4850 C.ar   27  TRP27       0.0946
      8  CD2       44.3590   -0.2930    7.2880 C.ar   27  TRP27       0.0152
      9  NE1       43.1780   -2.2000    7.2160 N.ar   27  TRP27      -0.2442
     10  CE2       43.9570   -1.3640    6.4600 C.ar   27  TRP27       0.0810
     11  CE3       45.1670    0.7210    6.7460 C.ar   27  TRP27       0.0012
     12  CZ2       44.3460   -1.4630    5.1230 C.ar   27  TRP27       0.0191
     13  CZ3       45.5570    0.6230    5.4200 C.ar   27  TRP27       0.0001
     14  CH2       45.1420   -0.4630    4.6200 C.ar   27  TRP27       0.0015
     15  N         42.2130    2.4210    7.7410 N.am   28  PRO28      -0.2718
     16  CA        42.3730    3.5470    6.8240 C.3    28  PRO28       0.1535
     17  C         41.7060    4.8420    7.3070 C.2    28  PRO28       0.2598
     18  O         41.9310    5.9030    6.7140 O.2    28  PRO28      -0.2715
     19  CB        41.7180    3.0430    5.5290 C.3    28  PRO28       0.0310
     20  CG        41.7070    1.5440    5.6600 C.3    28  PRO28       0.0237
     21  CD        41.4500    1.3230    7.1150 C.3    28  PRO28       0.0939
     22  N         40.9090    4.7520    8.3760 N.am   29  PHE29      -0.1974
     23  CA        40.0970    5.8830    8.8320 C.3    29  PHE29       0.1639
     24  C         40.5750    6.5300   10.1420 C.2    29  PHE29       0.2290
     25  O         39.9220    7.4520   10.6390 O.2    29  PHE29      -0.2864
     26  CB        38.6110    5.4700    8.9590 C.3    29  PHE29       0.0560
     27  CG        38.0210    4.8830    7.6960 C.ar   29  PHE29      -0.0200
     28  CD1       37.6110    5.7040    6.6620 C.ar   29  PHE29      -0.0042
     29  CD2       37.8680    3.5070    7.5600 C.ar   29  PHE29      -0.0042
     30  CE1       37.0740    5.1660    5.4820 C.ar   29  PHE29      -0.0003
     31  CE2       37.3110    2.9400    6.3960 C.ar   29  PHE29      -0.0003
     32  CZ        36.9090    3.7730    5.3520 C.ar   29  PHE29      -0.0000
     33  N         43.2910    8.2520   10.8970 N.3    31  GLN31      -0.1245
     34  CA        44.0620    9.4720   10.7830 C.3    31  GLN31       0.1566
     35  C         43.6450   10.1740    9.4910 C.2    31  GLN31       0.2260
     36  O         43.1580    9.5130    8.5620 O.2    31  GLN31      -0.2867
     37  CB        45.5680    9.1350   10.7670 C.3    31  GLN31       0.0367
     38  CG        45.9740    8.1590    9.6520 C.3    31  GLN31       0.0905
     39  CD        45.3610    6.7550    9.8300 C.2    31  GLN31       0.2608
     40  OE1       45.3560    6.1990   10.9360 O.2    31  GLN31      -0.2717
     41  NE2       44.8450    6.1900    8.7410 N.am   31  GLN31      -0.0878
     42  N         43.6910   11.7510    5.7720 N.3    33  VAL33      -0.1245
     43  CA        44.2800   11.2290    4.5430 C.3    33  VAL33       0.1561
     44  C         45.4910   12.0900    4.1570 C.2    33  VAL33       0.2260
     45  O         45.3720   13.2970    3.9260 O.2    33  VAL33      -0.2867
     46  CB        43.2430   11.1670    3.3800 C.3    33  VAL33       0.0252
     47  CG1       43.9140   10.8740    2.0300 C.3    33  VAL33       0.0019
     48  CG2       42.1550   10.1240    3.6820 C.3    33  VAL33       0.0019
     49  N         50.3030    8.7660    0.0150 N.3    38  LEU38      -0.1245
     50  CA        49.5040    7.7200   -0.6280 C.3    38  LEU38       0.1561
     51  C         49.5130    7.7850   -2.1440 C.2    38  LEU38       0.2260
     52  O         49.0800    6.8490   -2.8120 O.2    38  LEU38      -0.2867
     53  CB        48.0620    7.7660   -0.1330 C.3    38  LEU38       0.0270
     54  CG        47.8680    7.3750    1.3230 C.3    38  LEU38       0.0019
     55  CD1       46.3970    7.4910    1.6520 C.3    38  LEU38       0.0001
     56  CD2       48.4190    5.9670    1.5620 C.3    38  LEU38       0.0001
     57  N         47.9200   10.2920   -4.0880 N.3    40  LEU40      -0.1245
     58  CA        46.5710   10.6410   -4.5220 C.3    40  LEU40       0.1561
     59  C         46.5100   12.1480   -4.7390 C.2    40  LEU40       0.2260
     60  O         45.8560   12.8580   -3.9690 O.2    40  LEU40      -0.2867
     61  CB        45.5420   10.2110   -3.4740 C.3    40  LEU40       0.0270
     62  CG        45.5330    8.7760   -2.9500 C.3    40  LEU40       0.0019
     63  CD1       44.6100    8.6930   -1.7570 C.3    40  LEU40       0.0001
     64  CD2       45.1120    7.7860   -4.0270 C.3    40  LEU40       0.0001
     65  N         43.1060   14.1350   -4.4410 N.3    43  TYR43      -0.1241
     66  CA        42.2040   13.9560   -3.3020 C.3    43  TYR43       0.1605
     67  C         41.5800   15.2630   -2.8320 C.2    43  TYR43       0.2264
     68  O         40.3570   15.3610   -2.6710 O.2    43  TYR43      -0.2867
     69  CB        42.8980   13.2650   -2.1270 C.3    43  TYR43       0.0534
     70  CG        41.9310   12.8620   -1.0310 C.ar   43  TYR43      -0.0201
     71  CD1       41.1910   11.6770   -1.1250 C.ar   43  TYR43      -0.0009
     72  CD2       41.7390   13.6700    0.0960 C.ar   43  TYR43      -0.0009
     73  CE1       40.3010   11.3050   -0.1190 C.ar   43  TYR43       0.0417
     74  CE2       40.8420   13.3070    1.0960 C.ar   43  TYR43       0.0417
     75  CZ        40.1330   12.1210    0.9880 C.ar   43  TYR43       0.1957
     76  OH        39.2400   11.7540    1.9850 O.3    43  TYR43      -0.2866
     77  N         37.8310   14.3940    6.6480 N.3    51  MET51      -0.1245
     78  CA        37.4070   13.9940    7.9890 C.3    51  MET51       0.1570
     79  C         37.8490   12.5500    8.2310 C.2    51  MET51       0.2261
     80  O         37.8870   11.7580    7.3020 O.2    51  MET51      -0.2867
     81  CB        35.8820   14.1460    8.1480 C.3    51  MET51       0.0387
     82  CG        35.3650   14.0440    9.5980 C.3    51  MET51       0.0595
     83  SD        36.2700   15.0490   10.8180 S.3    51  MET51      -0.1393
     84  CE        35.8410   16.7030   10.2680 C.3    51  MET51       0.0692
     85  N         33.0410   11.7430    6.8390 N.3    78  MET78      -0.1245
     86  CA        34.1070   10.7670    6.6780 C.3    78  MET78       0.1570
     87  C         33.6710    9.6280    5.7450 C.2    78  MET78       0.2261
     88  O         34.3680    9.3020    4.7700 O.2    78  MET78      -0.2867
     89  CB        34.5530   10.2390    8.0510 C.3    78  MET78       0.0387
     90  CG        35.6860    9.1940    8.0100 C.3    78  MET78       0.0595
     91  SD        35.9720    8.3960    9.6070 S.3    78  MET78      -0.1393
     92  CE        34.4740    7.4270    9.8010 C.3    78  MET78       0.0692
     93  N         32.9720   11.1430    1.9620 N.3    81  ASN81      -0.1225
     94  CA        34.2480   11.3700    1.2530 C.3    81  ASN81       0.1785
     95  C         34.7750   10.1030    0.5880 C.2    81  ASN81       0.2597
     96  O         35.1010   10.1110   -0.5930 O.2    81  ASN81      -0.2718
     97  CB        35.3040   11.9470    2.2050 C.3    81  ASN81       0.1169
     98  CG        34.9330   13.3260    2.7330 C.2    81  ASN81       0.2627
     99  OD1       33.9970   13.9840    2.2450 O.2    81  ASN81      -0.2716
    100  ND2       35.6630   13.7720    3.7470 N.am   81  ASN81      -0.0877
    101  N         34.8080    9.0100    1.3460 N.am   82  CYS82      -0.1970
    102  CA        35.2200    7.7050    0.8460 C.3    82  CYS82       0.1712
    103  C         34.4040    7.2230   -0.3460 C.2    82  CYS82       0.2296
    104  O         34.9830    6.8370   -1.3750 O.2    82  CYS82      -0.2864
    105  CB        35.2040    6.6640    1.9700 C.3    82  CYS82       0.0983
    106  SG        35.9730    5.0620    1.5080 S.3    82  CYS82      -0.0798
    107  N         35.0230    9.7720   -3.4250 N.3    85  TYR85      -0.1227
    108  CA        36.3460    9.7870   -4.0380 C.3    85  TYR85       0.1736
    109  C         36.7300    8.4800   -4.7280 C.2    85  TYR85       0.2595
    110  O         37.2150    8.4860   -5.8570 O.2    85  TYR85      -0.2718
    111  CB        37.4250   10.1470   -3.0030 C.3    85  TYR85       0.0548
    112  CG        38.8140   10.0630   -3.5870 C.ar   85  TYR85      -0.0200
    113  CD1       39.2610   11.0270   -4.4980 C.ar   85  TYR85      -0.0009
    114  CD2       39.6700    9.0110   -3.2580 C.ar   85  TYR85      -0.0009
    115  CE1       40.5260   10.9560   -5.0530 C.ar   85  TYR85       0.0417
    116  CE2       40.9460    8.9280   -3.8180 C.ar   85  TYR85       0.0417
    117  CZ        41.3650    9.9030   -4.7080 C.ar   85  TYR85       0.1957
    118  OH        42.6200    9.8390   -5.2590 O.3    85  TYR85      -0.2866
    119  N         36.5200    7.3640   -4.0390 N.am   86  ASN86      -0.1974
    120  CA        36.9870    6.0600   -4.5060 C.3    86  ASN86       0.1688
    121  C         36.1230    5.4060   -5.5870 C.2    86  ASN86       0.2292
    122  O         34.9540    5.7470   -5.7460 O.2    86  ASN86      -0.2864
    123  CB        37.1750    5.1490   -3.3000 C.3    86  ASN86       0.1181
    124  CG        38.2740    5.6510   -2.3800 C.2    86  ASN86       0.2629
    125  OD1       39.4490    5.6290   -2.7530 O.2    86  ASN86      -0.2716
    126  ND2       37.9030    6.1330   -1.1850 N.am   86  ASN86      -0.0877
    127  N         36.4820   -0.5730   -5.3780 N.3    90  ASP90      -0.1239
    128  CA        37.6100   -0.5750   -4.4300 C.3    90  ASP90       0.1674
    129  C         37.2410   -1.2100   -3.0900 C.2    90  ASP90       0.2266
    130  O         36.1050   -1.0590   -2.6250 O.2    90  ASP90      -0.2867
    131  CB        38.1310    0.8480   -4.2010 C.3    90  ASP90       0.1410
    132  CG        38.9990    1.3450   -5.3340 C.2    90  ASP90       0.3668
    133  OD1       39.4320    0.5180   -6.1710 O.co2  90  ASP90      -0.2456
    134  OD2       39.2650    2.5680   -5.3820 O.co2  90  ASP90      -0.2456
    135  N         38.2460   -0.3750   -0.1230 N.3    92  ILE92      -0.1245
    136  CA        37.9720    0.7080    0.8330 C.3    92  ILE92       0.1561
    137  C         36.4680    1.0560    0.9590 C.2    92  ILE92       0.2260
    138  O         35.9750    1.3260    2.0550 O.2    92  ILE92      -0.2867
    139  CB        38.8290    1.9790    0.5110 C.3    92  ILE92       0.0252
    140  CG1       38.8070    3.0020    1.6550 C.3    92  ILE92       0.0019
    141  CG2       38.3930    2.6390   -0.7900 C.3    92  ILE92       0.0019
    142  CD1       39.9210    2.8770    2.5890 C.3    92  ILE92       0.0001
@<TRIPOS>BOND
     1   133   132   ar
     2   110   109    2
     3   122   121    2
     4   121   120    1
     5   134   132   ar
     6   127   128    1
     7   132   131    1
     8   118   117    1
     9   115   117   ar
    10   115   113   ar
    11    59    58    1
    12    59    60    2
    13   109   119   am
    14   109   108    1
    15   117   116   ar
    16    58    57    1
    17    58    61    1
    18   120   119    1
    19   120   123    1
    20   113   112   ar
    21    65    66    1
    22   128   131    1
    23   128   129    1
    24   108   107    1
    25   108   111    1
    26    64    62    1
    27   116   114   ar
    28   112   114   ar
    29   112   111    1
    30    61    62    1
    31    66    67    1
    32    66    69    1
    33   123   124    1
    34   129   130    2
    35    62    63    1
    36    67    68    2
    37    52    51    2
    38   125   124    2
    39   124   126   am
    40    51    50    1
    41    69    70    1
    42   104   103    2
    43    71    70   ar
    44    71    73   ar
    45    70    72   ar
    46   141   139    1
    47    50    53    1
    48    50    49    1
    49    96    95    2
    50   103   102    1
    51    53    54    1
    52   135   136    1
    53    73    75   ar
    54    72    74   ar
    55   139   136    1
    56   139   140    1
    57    95    94    1
    58    95   101   am
    59   136   137    1
    60   102   101    1
    61   102   105    1
    62   137   138    2
    63    75    74   ar
    64    75    76    1
    65    94    93    1
    66    94    97    1
    67    54    56    1
    68    54    55    1
    69   106   105    1
    70   140   142    1
    71    47    46    1
    72    97    98    1
    73    99    98    2
    74    98   100   am
    75    46    48    1
    76    46    43    1
    77    45    44    2
    78    44    43    1
    79    43    42    1
    80    14    12   ar
    81    14    13   ar
    82    88    87    2
    83    12    10   ar
    84    32    30   ar
    85    32    31   ar
    86    13    11   ar
    87    30    28   ar
    88    19    20    1
    89    19    16    1
    90    20    21    1
    91    87    86    1
    92    31    29   ar
    93    10     9   ar
    94    10     8   ar
    95    77    78    1
    96    28    27   ar
    97    86    85    1
    98    86    89    1
    99    18    17    2
   100    11     8   ar
   101    16    17    1
   102    16    15    1
   103    21    15    1
   104     9     7   ar
   105     8     6   ar
   106    80    79    2
   107    17    22   am
   108    29    27   ar
   109    27    26    1
   110    15     3   am
   111    78    81    1
   112    78    79    1
   113    90    89    1
   114    90    91    1
   115    81    82    1
   116    22    23    1
   117     7     6   ar
   118    36    35    2
   119     6     5    1
   120    41    39   am
   121    23    26    1
   122    23    24    1
   123     3     4    2
   124     3     2    1
   125    35    34    1
   126    82    83    1
   127    91    92    1
   128    38    39    1
   129    38    37    1
   130     5     2    1
   131    39    40    2
   132     2     1    1
   133    24    25    2
   134    84    83    1
   135    37    34    1
   136    34    33    1
