@<TRIPOS>MOLECULE
tmp/4a9jC00.pdb
 111 105 0 0 0
SMALL
GASTEIGER

@<TRIPOS>ATOM
      1  N          4.7010   12.7950   19.1640 N.3    22  PRO22      -0.2102
      2  CA         3.5470   11.8970   19.3260 C.3    22  PRO22       0.1504
      3  C          2.2050   12.6260   19.5160 C.2    22  PRO22       0.2575
      4  O          1.1530   11.9840   19.4570 O.2    22  PRO22      -0.2718
      5  CB         3.8940   11.0950   20.5910 C.3    22  PRO22       0.0282
      6  CG         5.3520   11.3750   20.8630 C.3    22  PRO22       0.0208
      7  CD         5.5560   12.7650   20.3580 C.3    22  PRO22       0.0893
      8  N          2.2520   13.9460   19.7210 N.am   23  PHE23      -0.1977
      9  CA         1.0660   14.7540   20.0190 C.3    23  PHE23       0.1639
     10  C          0.6430   15.7160   18.9040 C.2    23  PHE23       0.2290
     11  O         -0.3320   16.4450   19.0680 O.2    23  PHE23      -0.2864
     12  CB         1.3060   15.5580   21.3020 C.3    23  PHE23       0.0560
     13  CG         1.7510   14.7230   22.4690 C.ar   23  PHE23      -0.0200
     14  CD1        0.8220   14.0440   23.2590 C.ar   23  PHE23      -0.0042
     15  CD2        3.0980   14.6130   22.7820 C.ar   23  PHE23      -0.0042
     16  CE1        1.2380   13.2720   24.3400 C.ar   23  PHE23      -0.0003
     17  CE2        3.5180   13.8430   23.8530 C.ar   23  PHE23      -0.0003
     18  CZ         2.5840   13.1740   24.6350 C.ar   23  PHE23      -0.0000
     19  N         -4.5350   10.6450   17.7520 N.3    27  VAL27      -0.1245
     20  CA        -4.2210    9.2360   17.9260 C.3    27  VAL27       0.1561
     21  C         -5.0420    8.4580   16.8980 C.2    27  VAL27       0.2260
     22  O         -6.2690    8.5930   16.8470 O.2    27  VAL27      -0.2867
     23  CB        -4.5600    8.7440   19.3650 C.3    27  VAL27       0.0252
     24  CG1       -4.3930    7.2350   19.4870 C.3    27  VAL27       0.0019
     25  CG2       -3.6910    9.4630   20.4020 C.3    27  VAL27       0.0019
     26  N         -1.9890    2.6500   15.0110 N.3    32  LEU32      -0.1245
     27  CA        -1.1660    2.3810   16.1940 C.3    32  LEU32       0.1561
     28  C         -1.4960    1.0470   16.8710 C.2    32  LEU32       0.2260
     29  O         -0.7990    0.6400   17.8010 O.2    32  LEU32      -0.2867
     30  CB        -1.3170    3.5170   17.2130 C.3    32  LEU32       0.0270
     31  CG        -0.9210    4.9110   16.7250 C.3    32  LEU32       0.0019
     32  CD1       -1.1990    5.9730   17.7900 C.3    32  LEU32       0.0001
     33  CD2        0.5380    4.9190   16.3260 C.3    32  LEU32       0.0001
     34  N         -4.3460    0.1950   18.6630 N.3    34  LEU34      -0.1245
     35  CA        -4.8980    0.4720   19.9940 C.3    34  LEU34       0.1561
     36  C         -6.4210    0.2780   19.9750 C.2    34  LEU34       0.2260
     37  O         -7.1690    1.2540   20.0670 O.2    34  LEU34      -0.2867
     38  CB        -4.5600    1.9060   20.4320 C.3    34  LEU34       0.0270
     39  CG        -3.0940    2.3490   20.4600 C.3    34  LEU34       0.0019
     40  CD1       -3.0060    3.8660   20.5680 C.3    34  LEU34       0.0001
     41  CD2       -2.3390    1.6880   21.5980 C.3    34  LEU34       0.0001
     42  N         -8.5570    2.1040   22.6630 N.3    37  TYR37      -0.1241
     43  CA        -8.2720    3.5140   22.9210 C.3    37  TYR37       0.1605
     44  C         -9.5320    4.3590   23.0820 C.2    37  TYR37       0.2264
     45  O         -9.6770    5.0850   24.0560 O.2    37  TYR37      -0.2867
     46  CB        -7.3970    4.1190   21.8240 C.3    37  TYR37       0.0534
     47  CG        -6.9630    5.5180   22.1770 C.ar   37  TYR37      -0.0201
     48  CD1       -5.9090    5.7320   23.0550 C.ar   37  TYR37      -0.0009
     49  CD2       -7.6310    6.6310   21.6670 C.ar   37  TYR37      -0.0009
     50  CE1       -5.5150    7.0060   23.3980 C.ar   37  TYR37       0.0417
     51  CE2       -7.2480    7.9080   22.0110 C.ar   37  TYR37       0.0417
     52  CZ        -6.1850    8.0900   22.8790 C.ar   37  TYR37       0.1957
     53  OH        -5.7930    9.3580   23.2290 O.3    37  TYR37      -0.2866
     54  N         -7.7740   14.4690   21.9870 N.3    45  MET45      -0.1245
     55  CA        -7.2560   15.7930   21.6800 C.3    45  MET45       0.1570
     56  C         -5.7680   15.6920   21.3480 C.2    45  MET45       0.2261
     57  O         -5.0770   14.7760   21.8020 O.2    45  MET45      -0.2867
     58  CB        -7.5070   16.7530   22.8480 C.3    45  MET45       0.0387
     59  CG        -7.2120   18.2350   22.5660 C.3    45  MET45       0.0595
     60  SD        -7.9620   18.9140   21.0640 S.3    45  MET45      -0.1393
     61  CE        -9.7100   18.5840   21.3470 C.3    45  MET45       0.0692
     62  N         -5.5640   16.6120   26.3420 N.3    72  MET72      -0.1245
     63  CA        -4.5460   15.8800   25.5800 C.3    72  MET72       0.1570
     64  C         -3.5630   15.1830   26.5230 C.2    72  MET72       0.2261
     65  O         -3.2870   14.0020   26.3660 O.2    72  MET72      -0.2867
     66  CB        -3.7800   16.8290   24.6550 C.3    72  MET72       0.0387
     67  CG        -2.6360   16.1900   23.8850 C.3    72  MET72       0.0595
     68  SD        -1.6920   17.4030   22.9460 S.3    72  MET72      -0.1393
     69  CE        -0.7820   18.1810   24.2750 C.3    72  MET72       0.0692
     70  N         -5.4390   12.4070   28.7790 N.3    75  ASN75      -0.1225
     71  CA        -5.6830   11.1930   27.9800 C.3    75  ASN75       0.1785
     72  C         -4.4540   10.3020   27.9650 C.2    75  ASN75       0.2597
     73  O         -4.5410    9.0830   28.1390 O.2    75  ASN75      -0.2718
     74  CB        -6.0400   11.5320   26.5260 C.3    75  ASN75       0.1169
     75  CG        -7.4020   12.1670   26.3860 C.2    75  ASN75       0.2627
     76  OD1       -8.2130   12.1450   27.3190 O.2    75  ASN75      -0.2716
     77  ND2       -7.6680   12.7360   25.2100 N.am   75  ASN75      -0.0877
     78  N         -3.3030   10.9290   27.7490 N.am   76  CYS76      -0.1970
     79  CA        -2.0400   10.2160   27.7010 C.3    76  CYS76       0.1712
     80  C         -1.7620    9.5000   29.0250 C.2    76  CYS76       0.2296
     81  O         -1.4540    8.3060   29.0360 O.2    76  CYS76      -0.2864
     82  CB        -0.9100   11.1860   27.3340 C.3    76  CYS76       0.0983
     83  SG         0.6620   10.3990   27.1130 S.3    76  CYS76      -0.0798
     84  N         -4.5290    6.5470   29.5630 N.3    79  TYR79      -0.1227
     85  CA        -4.4870    5.3890   28.6610 C.3    79  TYR79       0.1736
     86  C         -3.2050    4.5590   28.8040 C.2    79  TYR79       0.2595
     87  O         -3.2580    3.3300   28.9010 O.2    79  TYR79      -0.2718
     88  CB        -4.6750    5.7920   27.1890 C.3    79  TYR79       0.0548
     89  CG        -4.6490    4.5790   26.2870 C.ar   79  TYR79      -0.0200
     90  CD1       -5.7320    3.7060   26.2430 C.ar   79  TYR79      -0.0009
     91  CD2       -3.5220    4.2650   25.5340 C.ar   79  TYR79      -0.0009
     92  CE1       -5.7060    2.5690   25.4560 C.ar   79  TYR79       0.0417
     93  CE2       -3.4850    3.1280   24.7380 C.ar   79  TYR79       0.0417
     94  CZ        -4.5830    2.2840   24.7060 C.ar   79  TYR79       0.1957
     95  OH        -4.5620    1.1580   23.9220 O.3    79  TYR79      -0.2866
     96  N         -2.0620    5.2410   28.8210 N.am   80  ASN80      -0.1974
     97  CA        -0.7640    4.5730   28.7580 C.3    80  ASN80       0.1688
     98  C         -0.2730    4.0510   30.1030 C.2    80  ASN80       0.2292
     99  O         -0.7500    4.4710   31.1560 O.2    80  ASN80      -0.2864
    100  CB         0.2710    5.5180   28.1490 C.3    80  ASN80       0.1181
    101  CG        -0.0450    5.8660   26.7120 C.2    80  ASN80       0.2629
    102  OD1        0.1960    5.0710   25.8050 O.2    80  ASN80      -0.2716
    103  ND2       -0.5850    7.0600   26.4940 N.am   80  ASN80      -0.0877
    104  N          6.1520    7.8850   26.4880 N.3    86  ILE86      -0.1245
    105  CA         5.2130    8.9380   26.1120 C.3    86  ILE86       0.1561
    106  C          4.6560    9.6610   27.3430 C.2    86  ILE86       0.2260
    107  O          4.3330   10.8400   27.2670 O.2    86  ILE86      -0.2867
    108  CB         4.0500    8.3980   25.2350 C.3    86  ILE86       0.0252
    109  CG1        3.2800    9.5600   24.6060 C.3    86  ILE86       0.0019
    110  CG2        3.1260    7.4900   26.0450 C.3    86  ILE86       0.0019
    111  CD1        2.3400    9.1550   23.4920 C.3    86  ILE86       0.0001
@<TRIPOS>BOND
     1    26    27    1
     2    27    28    1
     3    27    30    1
     4    33    31    1
     5    31    30    1
     6    31    32    1
     7    22    21    2
     8    28    29    2
     9    21    20    1
    10    19    20    1
    11    20    23    1
    12    34    35    1
    13    10    11    2
    14    10     9    1
    15     1     2    1
    16     1     7    1
    17     2     3    1
    18     2     5    1
    19    23    24    1
    20    23    25    1
    21     4     3    2
    22     3     8   am
    23     8     9    1
    24    36    35    1
    25    36    37    2
    26    35    38    1
    27     9    12    1
    28     7     6    1
    29    38    39    1
    30    39    40    1
    31    39    41    1
    32     5     6    1
    33    60    61    1
    34    60    59    1
    35    12    13    1
    36    56    55    1
    37    56    57    2
    38    49    51   ar
    39    49    47   ar
    40    55    54    1
    41    55    58    1
    42    46    47    1
    43    46    43    1
    44    51    52   ar
    45    47    48   ar
    46    13    15   ar
    47    13    14   ar
    48    59    58    1
    49    42    43    1
    50    15    17   ar
    51    52    53    1
    52    52    50   ar
    53    43    44    1
    54    68    67    1
    55    68    69    1
    56    48    50   ar
    57    44    45    2
    58    14    16   ar
    59   111   109    1
    60    17    18   ar
    61    67    66    1
    62    95    94    1
    63    16    18   ar
    64   109   108    1
    65    66    63    1
    66    94    93   ar
    67    94    92   ar
    68    93    91   ar
    69    77    75   am
    70   108   110    1
    71   108   105    1
    72    92    90   ar
    73    91    89   ar
    74    63    62    1
    75    63    64    1
    76   102   101    2
    77   105   104    1
    78   105   106    1
    79    90    89   ar
    80    89    88    1
    81    65    64    2
    82    75    74    1
    83    75    76    2
    84   103   101   am
    85    74    71    1
    86   101   100    1
    87    83    82    1
    88    88    85    1
    89   107   106    2
    90    82    79    1
    91    79    78    1
    92    79    80    1
    93    78    72   am
    94    72    71    1
    95    72    73    2
    96    71    70    1
    97   100    97    1
    98    85    86    1
    99    85    84    1
   100    97    96    1
   101    97    98    1
   102    86    96   am
   103    86    87    2
   104    80    81    2
   105    98    99    2
