@<TRIPOS>MOLECULE
tmp/4a9jB00.pdb
 119 112 0 0 0
SMALL
GASTEIGER

@<TRIPOS>ATOM
      1  N         42.2550    2.3880    7.9290 N.3    26  PRO26      -0.2102
      2  CA        42.3750    3.5100    6.9790 C.3    26  PRO26       0.1504
      3  C         41.6980    4.8150    7.4330 C.2    26  PRO26       0.2575
      4  O         41.9420    5.8640    6.8270 O.2    26  PRO26      -0.2718
      5  CB        41.6780    2.9810    5.7100 C.3    26  PRO26       0.0282
      6  CG        41.5040    1.5070    5.9230 C.3    26  PRO26       0.0208
      7  CD        41.3500    1.3530    7.4080 C.3    26  PRO26       0.0893
      8  N         40.8710    4.7380    8.4810 N.am   27  PHE27      -0.1977
      9  CA        40.0090    5.8430    8.9230 C.3    27  PHE27       0.1639
     10  C         40.4030    6.4690   10.2670 C.2    27  PHE27       0.2290
     11  O         39.7200    7.3730   10.7530 O.2    27  PHE27      -0.2864
     12  CB        38.5610    5.3350    9.0050 C.3    27  PHE27       0.0560
     13  CG        38.0490    4.7790    7.7060 C.ar   27  PHE27      -0.0200
     14  CD1       37.6040    5.6260    6.7040 C.ar   27  PHE27      -0.0042
     15  CD2       38.0500    3.4060    7.4700 C.ar   27  PHE27      -0.0042
     16  CE1       37.1500    5.1170    5.4910 C.ar   27  PHE27      -0.0003
     17  CE2       37.5870    2.8890    6.2640 C.ar   27  PHE27      -0.0003
     18  CZ        37.1430    3.7400    5.2730 C.ar   27  PHE27      -0.0000
     19  N         43.6300   11.4580    5.8060 N.3    31  VAL31      -0.1245
     20  CA        44.2390   10.9790    4.5750 C.3    31  VAL31       0.1561
     21  C         45.4730   11.8290    4.2740 C.2    31  VAL31       0.2260
     22  O         45.3780   13.0540    4.1430 O.2    31  VAL31      -0.2867
     23  CB        43.2540   11.0550    3.3850 C.3    31  VAL31       0.0252
     24  CG1       43.9720   10.7720    2.0640 C.3    31  VAL31       0.0019
     25  CG2       42.0790   10.0840    3.5870 C.3    31  VAL31       0.0019
     26  N         49.9850    8.4290    0.4240 N.3    36  LEU36      -0.1245
     27  CA        49.1740    7.4110   -0.2460 C.3    36  LEU36       0.1561
     28  C         49.1460    7.5540   -1.7750 C.2    36  LEU36       0.2260
     29  O         48.5800    6.7050   -2.4600 O.2    36  LEU36      -0.2867
     30  CB        47.7430    7.4240    0.3180 C.3    36  LEU36       0.0270
     31  CG        47.6300    6.9580    1.7750 C.3    36  LEU36       0.0019
     32  CD1       46.2690    7.3020    2.3700 C.3    36  LEU36       0.0001
     33  CD2       47.9080    5.4580    1.8840 C.3    36  LEU36       0.0001
     34  N         47.8310   10.2850   -3.8010 N.3    38  LEU38      -0.1245
     35  CA        46.5160   10.7630   -4.2440 C.3    38  LEU38       0.1561
     36  C         46.5570   12.2780   -4.5240 C.2    38  LEU38       0.2260
     37  O         46.0770   13.0720   -3.7130 O.2    38  LEU38      -0.2867
     38  CB        45.4620   10.4480   -3.1740 C.3    38  LEU38       0.0270
     39  CG        45.4200    9.0160   -2.6290 C.3    38  LEU38       0.0019
     40  CD1       44.3990    8.9030   -1.5040 C.3    38  LEU38       0.0001
     41  CD2       45.1230    8.0170   -3.7350 C.3    38  LEU38       0.0001
     42  N         43.1900   14.2440   -4.4040 N.3    41  TYR41      -0.1241
     43  CA        42.3080   13.9650   -3.2720 C.3    41  TYR41       0.1605
     44  C         41.6930   15.2510   -2.7270 C.2    41  TYR41       0.2264
     45  O         40.4840   15.3230   -2.5220 O.2    41  TYR41      -0.2867
     46  CB        43.0270   13.2120   -2.1470 C.3    41  TYR41       0.0534
     47  CG        42.0770   12.8150   -1.0400 C.ar   41  TYR41      -0.0201
     48  CD1       41.3370   11.6400   -1.1260 C.ar   41  TYR41      -0.0009
     49  CD2       41.8900   13.6260    0.0750 C.ar   41  TYR41      -0.0009
     50  CE1       40.4540   11.2780   -0.1380 C.ar   41  TYR41       0.0417
     51  CE2       40.9970   13.2710    1.0730 C.ar   41  TYR41       0.0417
     52  CZ        40.2810   12.0900    0.9570 C.ar   41  TYR41       0.1957
     53  OH        39.3890   11.7200    1.9310 O.3    41  TYR41      -0.2866
     54  N         37.7630   14.3620    6.6530 N.3    49  MET49      -0.1245
     55  CA        37.3780   13.9860    8.0030 C.3    49  MET49       0.1570
     56  C         37.7890   12.5430    8.2750 C.2    49  MET49       0.2261
     57  O         37.7970   11.7110    7.3700 O.2    49  MET49      -0.2867
     58  CB        35.8690   14.1450    8.2020 C.3    49  MET49       0.0387
     59  CG        35.3970   14.0140    9.6550 C.3    49  MET49       0.0595
     60  SD        36.2860   15.0370   10.8440 S.3    49  MET49      -0.1393
     61  CE        36.0770   16.6790   10.1310 C.3    49  MET49       0.0692
     62  N         33.1000   11.6740    6.8650 N.3    76  MET76      -0.1245
     63  CA        34.1710   10.7040    6.6690 C.3    76  MET76       0.1570
     64  C         33.7530    9.5780    5.7220 C.2    76  MET76       0.2261
     65  O         34.4510    9.2890    4.7460 O.2    76  MET76      -0.2867
     66  CB        34.6160   10.1310    8.0120 C.3    76  MET76       0.0387
     67  CG        35.6630    9.0330    7.9200 C.3    76  MET76       0.0595
     68  SD        36.0240    8.3540    9.5430 S.3    76  MET76      -0.1393
     69  CE        34.4990    7.4900    9.8860 C.3    76  MET76       0.0692
     70  N         32.9730   10.9760    2.0460 N.3    79  ASN79      -0.1225
     71  CA        34.2230   11.2950    1.3480 C.3    79  ASN79       0.1785
     72  C         34.7980   10.0360    0.7060 C.2    79  ASN79       0.2597
     73  O         35.2610   10.0620   -0.4310 O.2    79  ASN79      -0.2718
     74  CB        35.2790   11.8520    2.3170 C.3    79  ASN79       0.1169
     75  CG        34.9980   13.2840    2.7760 C.2    79  ASN79       0.2627
     76  OD1       34.1080   13.9740    2.2700 O.2    79  ASN79      -0.2716
     77  ND2       35.7820   13.7340    3.7430 N.am   79  ASN79      -0.0877
     78  N         34.7830    8.9450    1.4650 N.am   80  CYS80      -0.1970
     79  CA        35.2920    7.6670    0.9880 C.3    80  CYS80       0.1712
     80  C         34.5450    7.2210   -0.2750 C.2    80  CYS80       0.2296
     81  O         35.1750    6.8660   -1.2740 O.2    80  CYS80      -0.2864
     82  CB        35.2100    6.6090    2.0820 C.3    80  CYS80       0.0983
     83  SG        36.0650    5.0900    1.6520 S.3    80  CYS80      -0.0798
     84  N         35.2050    9.7810   -3.3880 N.3    83  TYR83      -0.1227
     85  CA        36.5400    9.7970   -3.9810 C.3    83  TYR83       0.1736
     86  C         36.9390    8.4740   -4.6350 C.2    83  TYR83       0.2595
     87  O         37.5000    8.4720   -5.7290 O.2    83  TYR83      -0.2718
     88  CB        37.6030   10.2060   -2.9540 C.3    83  TYR83       0.0548
     89  CG        38.9870   10.1740   -3.5470 C.ar   83  TYR83      -0.0200
     90  CD1       39.4230   11.1920   -4.3840 C.ar   83  TYR83      -0.0009
     91  CD2       39.8400    9.0960   -3.3190 C.ar   83  TYR83      -0.0009
     92  CE1       40.6840   11.1530   -4.9550 C.ar   83  TYR83       0.0417
     93  CE2       41.0980    9.0480   -3.8880 C.ar   83  TYR83       0.0417
     94  CZ        41.5160   10.0760   -4.7040 C.ar   83  TYR83       0.1957
     95  OH        42.7670   10.0310   -5.2730 O.3    83  TYR83      -0.2866
     96  N         36.6640    7.3560   -3.9650 N.am   84  ASN84      -0.1974
     97  CA        37.1600    6.0540   -4.4120 C.3    84  ASN84       0.1688
     98  C         36.2920    5.3840   -5.4740 C.2    84  ASN84       0.2292
     99  O         35.1490    5.7760   -5.6900 O.2    84  ASN84      -0.2864
    100  CB        37.3520    5.1550   -3.1990 C.3    84  ASN84       0.1181
    101  CG        38.4310    5.6800   -2.2870 C.2    84  ASN84       0.2629
    102  OD1       39.6040    5.6260   -2.6310 O.2    84  ASN84      -0.2716
    103  ND2       38.0440    6.2260   -1.1430 N.am   84  ASN84      -0.0877
    104  N         36.6320   -0.4950   -5.1530 N.3    88  ASP88      -0.1239
    105  CA        37.7580   -0.4510   -4.2110 C.3    88  ASP88       0.1674
    106  C         37.4000   -1.1100   -2.8760 C.2    88  ASP88       0.2266
    107  O         36.2860   -0.9330   -2.3640 O.2    88  ASP88      -0.2867
    108  CB        38.2070    0.9950   -3.9610 C.3    88  ASP88       0.1410
    109  CG        38.9770    1.5910   -5.1270 C.2    88  ASP88       0.3668
    110  OD1       39.4950    0.8290   -5.9620 O.co2  88  ASP88      -0.2456
    111  OD2       39.0870    2.8370   -5.1920 O.co2  88  ASP88      -0.2456
    112  N         38.3330   -0.2660    0.0400 N.3    90  ILE90      -0.1245
    113  CA        38.0770    0.7400    1.0770 C.3    90  ILE90       0.1561
    114  C         36.6000    1.1350    1.1560 C.2    90  ILE90       0.2260
    115  O         36.0920    1.4490    2.2400 O.2    90  ILE90      -0.2867
    116  CB        38.9750    2.0070    0.9070 C.3    90  ILE90       0.0252
    117  CG1       39.0310    2.7750    2.2420 C.3    90  ILE90       0.0019
    118  CG2       38.4990    2.8620   -0.3000 C.3    90  ILE90       0.0019
    119  CD1       39.7680    4.0660    2.2050 C.3    90  ILE90       0.0001
@<TRIPOS>BOND
     1   110   109   ar
     2    87    86    2
     3    99    98    2
     4    98    97    1
     5    95    94    1
     6   111   109   ar
     7   104   105    1
     8   109   108    1
     9    92    94   ar
    10    92    90   ar
    11    94    93   ar
    12    86    85    1
    13    86    96   am
    14    36    35    1
    15    36    37    2
    16    97    96    1
    17    97   100    1
    18    42    43    1
    19    90    89   ar
    20    35    34    1
    21    35    38    1
    22   105   108    1
    23   105   106    1
    24    85    84    1
    25    85    88    1
    26    93    91   ar
    27    41    39    1
    28    89    91   ar
    29    89    88    1
    30    43    44    1
    31    43    46    1
    32   100   101    1
    33    38    39    1
    34   106   107    2
    35    44    45    2
    36   102   101    2
    37    39    40    1
    38    29    28    2
    39   101   103   am
    40    46    47    1
    41    28    27    1
    42    81    80    2
    43    48    47   ar
    44    48    50   ar
    45    47    49   ar
    46    73    72    2
    47   118   116    1
    48    80    79    1
    49    27    30    1
    50    27    26    1
    51    50    52   ar
    52   112   113    1
    53    49    51   ar
    54    30    31    1
    55    72    71    1
    56    72    78   am
    57   116   113    1
    58   116   117    1
    59    52    51   ar
    60    52    53    1
    61    79    78    1
    62    79    82    1
    63   113   114    1
    64   114   115    2
    65    71    70    1
    66    71    74    1
    67    83    82    1
    68    31    33    1
    69    31    32    1
    70    24    23    1
    71   119   117    1
    72    76    75    2
    73    74    75    1
    74    75    77   am
    75    23    25    1
    76    23    20    1
    77    22    21    2
    78    21    20    1
    79    20    19    1
    80    65    64    2
    81    18    16   ar
    82    18    17   ar
    83    16    14   ar
    84     5     6    1
    85     5     2    1
    86    64    63    1
    87     6     7    1
    88    17    15   ar
    89    54    55    1
    90    63    62    1
    91    63    66    1
    92    14    13   ar
    93     4     3    2
    94     2     3    1
    95     2     1    1
    96    57    56    2
    97     7     1    1
    98     3     8   am
    99    15    13   ar
   100    13    12    1
   101    67    66    1
   102    67    68    1
   103    55    58    1
   104    55    56    1
   105    58    59    1
   106     8     9    1
   107     9    12    1
   108     9    10    1
   109    68    69    1
   110    59    60    1
   111    61    60    1
   112    10    11    2
