@<TRIPOS>MOLECULE
tmp/4a9kB00.pdb
 101 95 0 0 0
SMALL
GASTEIGER

@<TRIPOS>ATOM
      1  N        -14.0560  -16.9070   -5.9070 N.3    26  PRO26      -0.2102
      2  CA       -13.2230  -16.0890   -6.8040 C.3    26  PRO26       0.1504
      3  C        -12.6800  -14.7960   -6.1970 C.2    26  PRO26       0.2575
      4  O        -11.7900  -14.1800   -6.7810 O.2    26  PRO26      -0.2718
      5  CB       -14.1730  -15.7460   -7.9600 C.3    26  PRO26       0.0282
      6  CG       -15.2340  -16.7840   -7.9020 C.3    26  PRO26       0.0208
      7  CD       -15.4240  -17.0440   -6.4370 C.3    26  PRO26       0.0893
      8  N        -13.2240  -14.3900   -5.0510 N.am   27  PHE27      -0.1977
      9  CA       -12.8350  -13.1530   -4.3800 C.3    27  PHE27       0.1639
     10  C        -11.9260  -13.3770   -3.1640 C.2    27  PHE27       0.2290
     11  O        -11.5070  -12.4130   -2.5250 O.2    27  PHE27      -0.2864
     12  CB       -14.0970  -12.4080   -3.9360 C.3    27  PHE27       0.0560
     13  CG       -15.0390  -12.0990   -5.0640 C.ar   27  PHE27      -0.0200
     14  CD1      -16.0360  -13.0030   -5.4280 C.ar   27  PHE27      -0.0042
     15  CD2      -14.9200  -10.9150   -5.7730 C.ar   27  PHE27      -0.0042
     16  CE1      -16.9040  -12.7210   -6.4770 C.ar   27  PHE27      -0.0003
     17  CE2      -15.7840  -10.6220   -6.8270 C.ar   27  PHE27      -0.0003
     18  CZ       -16.7780  -11.5310   -7.1780 C.ar   27  PHE27      -0.0000
     19  N         -6.6350  -11.7360   -7.9700 N.3    31  VAL31      -0.1245
     20  CA        -6.6340  -12.2490   -9.3420 C.3    31  VAL31       0.1561
     21  C         -5.2080  -12.2540   -9.8840 C.2    31  VAL31       0.2260
     22  O         -4.5010  -11.2490   -9.7930 O.2    31  VAL31      -0.2867
     23  CB        -7.5310  -11.4040  -10.2780 C.3    31  VAL31       0.0252
     24  CG1       -7.4350  -11.9050  -11.7250 C.3    31  VAL31       0.0019
     25  CG2       -8.9860  -11.4180   -9.8000 C.3    31  VAL31       0.0019
     26  N         -4.5070  -17.3410  -14.5530 N.3    36  LEU36      -0.1245
     27  CA        -5.8750  -17.6960  -14.9450 C.3    36  LEU36       0.1561
     28  C         -6.1320  -17.5720  -16.4530 C.2    36  LEU36       0.2260
     29  O         -7.2120  -17.9260  -16.9290 O.2    36  LEU36      -0.2867
     30  CB        -6.8870  -16.8490  -14.1650 C.3    36  LEU36       0.0270
     31  CG        -6.8510  -17.0150  -12.6410 C.3    36  LEU36       0.0019
     32  CD1       -7.9340  -16.1700  -11.9880 C.3    36  LEU36       0.0001
     33  CD2       -6.9930  -18.4830  -12.2320 C.3    36  LEU36       0.0001
     34  N         -6.1390  -14.6930  -18.3620 N.3    38  ILE38      -0.1245
     35  CA        -6.9200  -13.4970  -18.6950 C.3    38  ILE38       0.1561
     36  C         -6.0140  -12.2530  -18.6800 C.2    38  ILE38       0.2260
     37  O         -6.1930  -11.3580  -17.8510 O.2    38  ILE38      -0.2867
     38  CB        -8.1330  -13.3090  -17.7350 C.3    38  ILE38       0.0252
     39  CG1       -7.7130  -13.3820  -16.2610 C.3    38  ILE38       0.0019
     40  CG2       -9.1950  -14.3590  -18.0110 C.3    38  ILE38       0.0019
     41  CD1       -8.8010  -12.9500  -15.2970 C.3    38  ILE38       0.0001
     42  N         -6.6800   -8.2700  -17.7430 N.3    41  TYR41      -0.1241
     43  CA        -7.3180   -7.9100  -16.4770 C.3    41  TYR41       0.1605
     44  C         -6.8160   -6.5840  -15.8910 C.2    41  TYR41       0.2264
     45  O         -7.6220   -5.7120  -15.5570 O.2    41  TYR41      -0.2867
     46  CB        -7.1480   -9.0340  -15.4490 C.3    41  TYR41       0.0534
     47  CG        -7.9180   -8.7770  -14.1750 C.ar   41  TYR41      -0.0201
     48  CD1       -9.2880   -9.0160  -14.1090 C.ar   41  TYR41      -0.0009
     49  CD2       -7.2860   -8.2550  -13.0480 C.ar   41  TYR41      -0.0009
     50  CE1      -10.0080   -8.7640  -12.9440 C.ar   41  TYR41       0.0417
     51  CE2       -7.9960   -7.9970  -11.8780 C.ar   41  TYR41       0.0417
     52  CZ        -9.3560   -8.2540  -11.8330 C.ar   41  TYR41       0.1957
     53  OH       -10.0640   -7.9960  -10.6800 O.3    41  TYR41      -0.2866
     54  N         -8.7020   -5.3840   -6.0140 N.3    49  MET49      -0.1245
     55  CA        -9.0360   -5.5790   -4.6030 C.3    49  MET49       0.1570
     56  C         -9.7340   -6.9290   -4.4400 C.2    49  MET49       0.2261
     57  O        -10.4850   -7.3560   -5.3200 O.2    49  MET49      -0.2867
     58  CB        -9.9250   -4.4300   -4.1030 C.3    49  MET49       0.0387
     59  CG       -10.2260   -4.4340   -2.6090 C.3    49  MET49       0.0595
     60  SD        -8.7560   -4.4810   -1.5560 S.3    49  MET49      -0.1393
     61  CE        -7.8700   -3.0220   -2.1110 C.3    49  MET49       0.0692
     62  N        -13.8740   -3.9130   -4.8740 N.3    76  MET76      -0.1245
     63  CA       -13.8550   -5.3270   -5.2460 C.3    76  MET76       0.1570
     64  C        -15.0710   -5.6820   -6.1080 C.2    76  MET76       0.2261
     65  O        -14.9280   -6.2890   -7.1700 O.2    76  MET76      -0.2867
     66  CB       -13.8180   -6.2010   -3.9880 C.3    76  MET76       0.0387
     67  CG       -13.8680   -7.6990   -4.2560 C.3    76  MET76       0.0595
     68  SD       -13.7880   -8.6550   -2.7370 S.3    76  MET76      -0.1393
     69  CE       -15.3750   -8.2450   -2.0050 C.3    76  MET76       0.0692
     70  N        -15.3290   -6.4690  -10.3870 N.3    80  ALA80      -0.1245
     71  CA       -15.8920   -7.7130  -10.9240 C.3    80  ALA80       0.1562
     72  C        -17.0430   -7.4420  -11.8950 C.2    80  ALA80       0.2260
     73  O        -17.1430   -8.0750  -12.9480 O.2    80  ALA80      -0.2867
     74  CB       -16.3500   -8.6240   -9.7880 C.3    80  ALA80       0.0290
     75  N        -15.1810   -6.0140  -15.1050 N.3    83  TYR83      -0.1227
     76  CA       -14.4110   -6.9360  -15.9400 C.3    83  TYR83       0.1736
     77  C        -15.2670   -8.0440  -16.5700 C.2    83  TYR83       0.2595
     78  O        -15.0980   -8.3730  -17.7460 O.2    83  TYR83      -0.2718
     79  CB       -13.2500   -7.5660  -15.1570 C.3    83  TYR83       0.0548
     80  CG       -12.4440   -8.5000  -16.0240 C.ar   83  TYR83      -0.0200
     81  CD1      -11.5690   -8.0000  -16.9870 C.ar   83  TYR83      -0.0009
     82  CD2      -12.5970   -9.8820  -15.9300 C.ar   83  TYR83      -0.0009
     83  CE1      -10.8470   -8.8510  -17.8120 C.ar   83  TYR83       0.0417
     84  CE2      -11.8760  -10.7410  -16.7540 C.ar   83  TYR83       0.0417
     85  CZ       -11.0050  -10.2180  -17.6900 C.ar   83  TYR83       0.1957
     86  OH       -10.2930  -11.0590  -18.5060 O.3    83  TYR83      -0.2866
     87  N        -16.1800   -8.6070  -15.7850 N.am   84  ASN84      -0.1974
     88  CA       -16.9520   -9.7760  -16.2010 C.3    84  ASN84       0.1688
     89  C        -18.2570   -9.4080  -16.8960 C.2    84  ASN84       0.2292
     90  O        -18.8620   -8.3800  -16.5920 O.2    84  ASN84      -0.2864
     91  CB       -17.2360  -10.6530  -14.9840 C.3    84  ASN84       0.1181
     92  CG       -15.9720  -11.1130  -14.3050 C.2    84  ASN84       0.2629
     93  OD1      -15.3070  -12.0320  -14.7780 O.2    84  ASN84      -0.2716
     94  ND2      -15.6180  -10.4620  -13.1940 N.am   84  ASN84      -0.0877
     95  N        -18.9450  -15.1670  -12.5050 N.3    90  VAL90      -0.1245
     96  CA       -18.3540  -14.2650  -11.5130 C.3    90  VAL90       0.1561
     97  C        -19.1800  -12.9840  -11.3130 C.2    90  VAL90       0.2260
     98  O        -19.2960  -12.4860  -10.1970 O.2    90  VAL90      -0.2867
     99  CB       -16.8940  -13.9190  -11.8770 C.3    90  VAL90       0.0252
    100  CG1      -16.3170  -12.9040  -10.9040 C.3    90  VAL90       0.0019
    101  CG2      -16.0370  -15.1920  -11.8910 C.3    90  VAL90       0.0019
@<TRIPOS>BOND
     1    35    36    1
     2    35    34    1
     3    35    38    1
     4    36    37    2
     5    86    85    1
     6    40    38    1
     7    83    85   ar
     8    83    81   ar
     9    78    77    2
    10    42    43    1
    11    38    39    1
    12    85    84   ar
    13    81    80   ar
    14    29    28    2
    15    89    90    2
    16    89    88    1
    17    84    82   ar
    18    77    76    1
    19    77    87   am
    20    43    44    1
    21    43    46    1
    22    28    27    1
    23    39    41    1
    24    88    87    1
    25    88    91    1
    26    80    82   ar
    27    80    79    1
    28    76    79    1
    29    76    75    1
    30    44    45    2
    31    46    47    1
    32    91    92    1
    33    27    26    1
    34    27    30    1
    35    93    92    2
    36    92    94   am
    37    47    48   ar
    38    47    49   ar
    39    30    31    1
    40    48    50   ar
    41    49    51   ar
    42    73    72    2
    43    50    52   ar
    44    31    33    1
    45    31    32    1
    46    95    96    1
    47    72    71    1
    48   101    99    1
    49    51    52   ar
    50    99    96    1
    51    99   100    1
    52    52    53    1
    53    24    23    1
    54    96    97    1
    55    97    98    2
    56    71    70    1
    57    71    74    1
    58    23    25    1
    59    23    20    1
    60    21    22    2
    61    21    20    1
    62    20    19    1
    63     5     6    1
    64     5     2    1
    65     6     7    1
    66    18    17   ar
    67    18    16   ar
    68    65    64    2
    69    17    15   ar
    70     2     3    1
    71     2     1    1
    72     4     3    2
    73    16    14   ar
    74     7     1    1
    75     3     8   am
    76    64    63    1
    77    54    55    1
    78    15    13   ar
    79    14    13   ar
    80    57    56    2
    81    63    62    1
    82    63    66    1
    83    13    12    1
    84     8     9    1
    85    55    56    1
    86    55    58    1
    87     9    12    1
    88     9    10    1
    89    67    66    1
    90    67    68    1
    91    58    59    1
    92    10    11    2
    93    68    69    1
    94    59    60    1
    95    61    60    1
