@<TRIPOS>MOLECULE
tmp/4a9lA00.pdb
 125 121 0 0 0
SMALL
GASTEIGER

@<TRIPOS>ATOM
      1  N         34.2680   42.7450    2.0260 N.3    40  TRP40      -0.1228
      2  CA        34.4590   44.1380    2.4610 C.3    40  TRP40       0.1722
      3  C         33.1860   45.0190    2.5660 C.2    40  TRP40       0.2437
      4  O         33.0830   45.7890    3.5250 O.2    40  TRP40      -0.2733
      5  CB        35.5760   44.8420    1.6570 C.3    40  TRP40       0.0563
      6  CG        35.3110   44.9850    0.2010 C.ar   40  TRP40       0.0003
      7  CD1       35.6700   44.1150   -0.7910 C.ar   40  TRP40       0.0946
      8  CD2       34.6230   46.0610   -0.4360 C.ar   40  TRP40       0.0152
      9  NE1       35.2430   44.5840   -2.0050 N.ar   40  TRP40      -0.2442
     10  CE2       34.5950   45.7780   -1.8170 C.ar   40  TRP40       0.0810
     11  CE3       34.0240   47.2410    0.0270 C.ar   40  TRP40       0.0012
     12  CZ2       33.9920   46.6320   -2.7390 C.ar   40  TRP40       0.0191
     13  CZ3       33.4280   48.0850   -0.8860 C.ar   40  TRP40       0.0001
     14  CH2       33.4170   47.7800   -2.2540 C.ar   40  TRP40       0.0015
     15  N         32.2100   44.8980    1.6280 N.am   41  PRO41      -0.2718
     16  CA        30.9970   45.7170    1.7810 C.3    41  PRO41       0.1535
     17  C         30.1140   45.3190    2.9570 C.2    41  PRO41       0.2598
     18  O         29.2150   46.0850    3.3270 O.2    41  PRO41      -0.2715
     19  CB        30.2260   45.4760    0.4690 C.3    41  PRO41       0.0310
     20  CG        31.2140   44.8530   -0.4650 C.3    41  PRO41       0.0237
     21  CD        32.1310   44.0690    0.4130 C.3    41  PRO41       0.0939
     22  N         30.3700   44.1380    3.5230 N.am   42  PHE42      -0.1974
     23  CA        29.5630   43.5700    4.5940 C.3    42  PHE42       0.1639
     24  C         30.2690   43.5800    5.9510 C.2    42  PHE42       0.2290
     25  O         29.7090   43.1040    6.9370 O.2    42  PHE42      -0.2864
     26  CB        29.1660   42.1380    4.2160 C.3    42  PHE42       0.0560
     27  CG        28.4520   42.0410    2.8960 C.ar   42  PHE42      -0.0200
     28  CD1       27.0860   42.2520    2.8170 C.ar   42  PHE42      -0.0042
     29  CD2       29.1460   41.7580    1.7240 C.ar   42  PHE42      -0.0042
     30  CE1       26.4130   42.1730    1.5970 C.ar   42  PHE42      -0.0003
     31  CE2       28.4800   41.6830    0.5030 C.ar   42  PHE42      -0.0003
     32  CZ        27.1080   41.8960    0.4420 C.ar   42  PHE42      -0.0000
     33  N         25.8560   49.2280    6.8790 N.3    46  VAL46      -0.1245
     34  CA        25.6820   50.0390    5.6860 C.3    46  VAL46       0.1561
     35  C         25.7060   51.5070    6.1090 C.2    46  VAL46       0.2260
     36  O         24.9080   51.9410    6.9510 O.2    46  VAL46      -0.2867
     37  CB        24.3530   49.7240    4.9590 C.3    46  VAL46       0.0252
     38  CG1       24.0890   50.7440    3.8460 C.3    46  VAL46       0.0019
     39  CG2       24.3610   48.3060    4.4120 C.3    46  VAL46       0.0019
     40  N         27.5340   56.4000    1.4220 N.3    51  LEU51      -0.1245
     41  CA        27.1400   55.8060    0.1460 C.3    51  LEU51       0.1561
     42  C         26.0450   56.5910   -0.5940 C.2    51  LEU51       0.2260
     43  O         25.6920   56.2350   -1.7210 O.2    51  LEU51      -0.2867
     44  CB        26.6960   54.3520    0.3540 C.3    51  LEU51       0.0270
     45  CG        27.8010   53.4130    0.8510 C.3    51  LEU51       0.0019
     46  CD1       27.2130   52.0810    1.2850 C.3    51  LEU51       0.0001
     47  CD2       28.8660   53.2100   -0.2220 C.3    51  LEU51       0.0001
     48  N         22.7710   56.8880    0.0780 N.3    53  LEU53      -0.1245
     49  CA        21.5920   56.0410   -0.0580 C.3    53  LEU53       0.1561
     50  C         20.5760   56.4390    1.0180 C.2    53  LEU53       0.2260
     51  O         20.3010   55.6750    1.9520 O.2    53  LEU53      -0.2867
     52  CB        21.9930   54.5720    0.0620 C.3    53  LEU53       0.0270
     53  CG        22.9450   54.0650   -1.0300 C.3    53  LEU53       0.0019
     54  CD1       23.3580   52.6270   -0.7540 C.3    53  LEU53       0.0001
     55  CD2       22.3290   54.1940   -2.4190 C.3    53  LEU53       0.0001
     56  N         17.9110   53.9990    2.4340 N.3    56  TYR56      -0.1241
     57  CA        18.2930   52.6380    2.8320 C.3    56  TYR56       0.1605
     58  C         17.6050   52.2080    4.1210 C.2    56  TYR56       0.2264
     59  O         16.9950   51.1430    4.1770 O.2    56  TYR56      -0.2867
     60  CB        19.8090   52.4690    2.9800 C.3    56  TYR56       0.0534
     61  CG        20.1580   51.0430    3.3480 C.ar   56  TYR56      -0.0201
     62  CD1       20.2370   50.0530    2.3720 C.ar   56  TYR56      -0.0009
     63  CD2       20.3510   50.6700    4.6780 C.ar   56  TYR56      -0.0009
     64  CE1       20.5200   48.7450    2.7060 C.ar   56  TYR56       0.0417
     65  CE2       20.6400   49.3600    5.0200 C.ar   56  TYR56       0.0417
     66  CZ        20.7220   48.4000    4.0350 C.ar   56  TYR56       0.1957
     67  OH        21.0020   47.0890    4.3530 O.3    56  TYR56      -0.2866
     68  N         21.3220   39.6990    7.0590 N.3    91  MET91      -0.1245
     69  CA        22.2890   40.4490    6.2540 C.3    91  MET91       0.1570
     70  C         22.1110   40.1620    4.7580 C.2    91  MET91       0.2261
     71  O         22.0840   41.0850    3.9480 O.2    91  MET91      -0.2867
     72  CB        23.7120   40.1090    6.6880 C.3    91  MET91       0.0387
     73  CG        24.7940   40.7940    5.8810 C.3    91  MET91       0.0595
     74  SD        26.4250   40.2840    6.4240 S.3    91  MET91      -0.1393
     75  CE        26.5260   38.6560    5.6820 C.3    91  MET91       0.0692
     76  N         20.2110   42.6830    1.7370 N.3    95  CYS95      -0.1235
     77  CA        20.9290   42.9880    0.5110 C.3    95  CYS95       0.1677
     78  C         20.0600   42.6800   -0.7120 C.2    95  CYS95       0.2270
     79  O         19.9610   43.4900   -1.6350 O.2    95  CYS95      -0.2867
     80  CB        22.2430   42.1980    0.4710 C.3    95  CYS95       0.0956
     81  SG        23.3070   42.6000   -0.9290 S.3    95  CYS95      -0.0801
     82  N         17.0000   45.2390   -0.8930 N.3    98  TYR98      -0.1227
     83  CA        17.3180   46.6210   -1.2280 C.3    98  TYR98       0.1736
     84  C         17.8770   46.7940   -2.6470 C.2    98  TYR98       0.2595
     85  O         17.5350   47.7550   -3.3420 O.2    98  TYR98      -0.2718
     86  CB        18.2780   47.2310   -0.1970 C.3    98  TYR98       0.0548
     87  CG        18.5190   48.6840   -0.4930 C.ar   98  TYR98      -0.0200
     88  CD1       17.5840   49.6500   -0.1350 C.ar   98  TYR98      -0.0009
     89  CD2       19.6450   49.0860   -1.2060 C.ar   98  TYR98      -0.0009
     90  CE1       17.7840   50.9870   -0.4430 C.ar   98  TYR98       0.0417
     91  CE2       19.8560   50.4160   -1.5240 C.ar   98  TYR98       0.0417
     92  CZ        18.9250   51.3650   -1.1390 C.ar   98  TYR98       0.1957
     93  OH        19.1340   52.6890   -1.4610 O.3    98  TYR98      -0.2866
     94  N         18.7330   45.8690   -3.0660 N.am   99  ASN99      -0.1974
     95  CA        19.5020   46.0260   -4.2950 C.3    99  ASN99       0.1688
     96  C         18.8640   45.2980   -5.4770 C.2    99  ASN99       0.2292
     97  O         18.1490   44.3130   -5.3030 O.2    99  ASN99      -0.2864
     98  CB        20.9390   45.5540   -4.0660 C.3    99  ASN99       0.1181
     99  CG        21.6390   46.3510   -2.9780 C.2    99  ASN99       0.2629
    100  OD1       22.0680   47.4840   -3.2060 O.2    99  ASN99      -0.2716
    101  ND2       21.7470   45.7690   -1.7850 N.am   99  ASN99      -0.0877
    102  N         26.2510   44.2000   -8.6230 N.3   104  ASP104     -0.1225
    103  CA        27.5030   43.6550   -8.1140 C.3   104  ASP104      0.1805
    104  C         27.3600   43.2420   -6.6520 C.2   104  ASP104      0.2597
    105  O         27.7920   42.1550   -6.2760 O.2   104  ASP104     -0.2718
    106  CB        28.6280   44.6790   -8.2400 C.3   104  ASP104      0.1424
    107  CG        29.1410   44.8160   -9.6580 C.2   104  ASP104      0.3668
    108  OD1       28.8150   43.9520  -10.4990 O.co2 104  ASP104     -0.2456
    109  OD2       29.8780   45.7910   -9.9240 O.co2 104  ASP104     -0.2456
    110  N         26.7470   44.0990   -5.8380 N.am  105  ILE105     -0.1980
    111  CA        26.6500   43.8280   -4.3950 C.3   105  ILE105      0.1595
    112  C         25.8340   42.5560   -4.1350 C.2   105  ILE105      0.2287
    113  O         26.1220   41.8250   -3.1890 O.2   105  ILE105     -0.2864
    114  CB        26.0830   45.0540   -3.6010 C.3   105  ILE105      0.0276
    115  CG1       26.2350   44.8660   -2.0860 C.3   105  ILE105      0.0022
    116  CG2       24.6280   45.3030   -3.9530 C.3   105  ILE105      0.0022
    117  CD1       27.6520   44.6460   -1.6190 C.3   105  ILE105      0.0001
    118  N         27.9810   39.5700   -4.9410 N.3   108  MET108     -0.1245
    119  CA        28.8990   39.4140   -3.8210 C.3   108  MET108      0.1570
    120  C         28.2320   38.7150   -2.6410 C.2   108  MET108      0.2261
    121  O         28.7790   37.7520   -2.1020 O.2   108  MET108     -0.2867
    122  CB        29.4410   40.7750   -3.4080 C.3   108  MET108      0.0387
    123  CG        30.3360   41.3570   -4.4800 C.3   108  MET108      0.0595
    124  SD        30.8610   42.9920   -4.0400 S.3   108  MET108     -0.1393
    125  CE        32.1670   42.6250   -2.9500 C.3   108  MET108      0.0692
@<TRIPOS>BOND
     1   108   107   ar
     2   109   107   ar
     3   107   106    1
     4   102   103    1
     5   106   103    1
     6   103   104    1
     7   104   105    2
     8   104   110   am
     9   110   111    1
    10    96    97    2
    11    96    95    1
    12   118   119    1
    13   123   124    1
    14   123   122    1
    15   111   112    1
    16   111   114    1
    17    95    98    1
    18    95    94    1
    19   112   113    2
    20    98    99    1
    21   124   125    1
    22   116   114    1
    23   119   122    1
    24   119   120    1
    25   114   115    1
    26    85    84    2
    27   100    99    2
    28    94    84   am
    29    99   101   am
    30    12    14   ar
    31    12    10   ar
    32    84    83    1
    33   120   121    2
    34    55    53    1
    35    14    13   ar
    36   115   117    1
    37     9    10   ar
    38     9     7   ar
    39    10     8   ar
    40    43    42    2
    41    79    78    2
    42    91    89   ar
    43    91    92   ar
    44    93    92    1
    45    83    82    1
    46    83    86    1
    47    89    87   ar
    48    92    90   ar
    49    53    54    1
    50    53    52    1
    51    81    80    1
    52    13    11   ar
    53     7     6   ar
    54    78    77    1
    55    42    41    1
    56    87    86    1
    57    87    88   ar
    58    20    21    1
    59    20    19    1
    60    90    88   ar
    61     8    11   ar
    62     8     6   ar
    63    47    45    1
    64    49    52    1
    65    49    48    1
    66    49    50    1
    67    41    44    1
    68    41    40    1
    69     6     5    1
    70    44    45    1
    71    21    15    1
    72    32    31   ar
    73    32    30   ar
    74    19    16    1
    75    80    77    1
    76    31    29   ar
    77    77    76    1
    78    45    46    1
    79    50    51    2
    80    30    28   ar
    81    15    16    1
    82    15     3   am
    83     5     2    1
    84    29    27   ar
    85    16    17    1
    86     1     2    1
    87    62    64   ar
    88    62    61   ar
    89    56    57    1
    90     2     3    1
    91     3     4    2
    92    64    66   ar
    93    28    27   ar
    94    57    60    1
    95    57    58    1
    96    27    26    1
    97    17    18    2
    98    17    22   am
    99    60    61    1
   100    61    63   ar
   101    22    23    1
   102    38    37    1
   103    71    70    2
   104    66    67    1
   105    66    65   ar
   106    58    59    2
   107    26    23    1
   108    39    37    1
   109    23    24    1
   110    63    65   ar
   111    70    69    1
   112    37    34    1
   113    75    74    1
   114    34    35    1
   115    34    33    1
   116    73    74    1
   117    73    72    1
   118    24    25    2
   119    35    36    2
   120    69    72    1
   121    69    68    1
