@<TRIPOS>MOLECULE
tmp/4a9mC00.pdb
 142 137 0 0 0
SMALL
GASTEIGER

@<TRIPOS>ATOM
      1  N          6.2890   15.2610   18.6730 N.3    22  TRP22      -0.1228
      2  CA         5.8480   14.4550   17.5040 C.3    22  TRP22       0.1722
      3  C          4.6640   13.4910   17.6980 C.2    22  TRP22       0.2437
      4  O          3.7860   13.4360   16.8400 O.2    22  TRP22      -0.2733
      5  CB         7.0190   13.7570   16.8060 C.3    22  TRP22       0.0563
      6  CG         7.7520   12.7500   17.6290 C.ar   22  TRP22       0.0003
      7  CD1        8.7800   12.9890   18.4880 C.ar   22  TRP22       0.0946
      8  CD2        7.5260   11.3390   17.6540 C.ar   22  TRP22       0.0152
      9  NE1        9.2080   11.8120   19.0570 N.ar   22  TRP22      -0.2442
     10  CE2        8.4560   10.7820   18.5570 C.ar   22  TRP22       0.0810
     11  CE3        6.6420   10.4890   16.9850 C.ar   22  TRP22       0.0012
     12  CZ2        8.5230    9.4100   18.8170 C.ar   22  TRP22       0.0191
     13  CZ3        6.7030    9.1290   17.2450 C.ar   22  TRP22       0.0001
     14  CH2        7.6450    8.6010   18.1490 C.ar   22  TRP22       0.0015
     15  N          4.6190   12.7380   18.8210 N.am   23  PRO23      -0.2718
     16  CA         3.4740   11.8250   18.9260 C.3    23  PRO23       0.1535
     17  C          2.1540   12.5480   19.2170 C.2    23  PRO23       0.2598
     18  O          1.0750   11.9320   19.1250 O.2    23  PRO23      -0.2715
     19  CB         3.8450   10.9130   20.0980 C.3    23  PRO23       0.0310
     20  CG         5.2710   11.2830   20.4810 C.3    23  PRO23       0.0237
     21  CD         5.4710   12.6750   20.0220 C.3    23  PRO23       0.0939
     22  N          2.2420   13.8440   19.5320 N.am   24  PHE24      -0.1974
     23  CA         1.0620   14.6490   19.8830 C.3    24  PHE24       0.1639
     24  C          0.5710   15.5710   18.7710 C.2    24  PHE24       0.2290
     25  O         -0.4480   16.2320   18.9310 O.2    24  PHE24      -0.2864
     26  CB         1.3360   15.4730   21.1470 C.3    24  PHE24       0.0560
     27  CG         1.7400   14.6410   22.3280 C.ar   24  PHE24      -0.0200
     28  CD1        0.7770   14.0780   23.1560 C.ar   24  PHE24      -0.0042
     29  CD2        3.0810   14.4110   22.6030 C.ar   24  PHE24      -0.0042
     30  CE1        1.1450   13.2900   24.2580 C.ar   24  PHE24      -0.0003
     31  CE2        3.4690   13.6200   23.7000 C.ar   24  PHE24      -0.0003
     32  CZ         2.4870   13.0560   24.5260 C.ar   24  PHE24      -0.0000
     33  N         -0.8100   15.0380   15.8970 N.3    26  GLN26      -0.1245
     34  CA        -2.0210   14.6330   15.1800 C.3    26  GLN26       0.1566
     35  C         -2.8520   13.6640   16.0340 C.2    26  GLN26       0.2260
     36  O         -2.3270   13.0860   17.0010 O.2    26  GLN26      -0.2867
     37  CB        -1.6880   14.0650   13.7750 C.3    26  GLN26       0.0367
     38  CG        -0.8360   12.7870   13.7410 C.3    26  GLN26       0.0905
     39  CD         0.5820   13.0020   14.2600 C.2    26  GLN26       0.2608
     40  OE1        1.3420   13.8220   13.7250 O.2    26  GLN26      -0.2717
     41  NE2        0.9420   12.2750   15.3170 N.am   26  GLN26      -0.0878
     42  N         -4.7010   10.6290   17.7980 N.3    28  VAL28      -0.1245
     43  CA        -4.3740    9.2230   17.9900 C.3    28  VAL28       0.1561
     44  C         -5.2130    8.4170   17.0000 C.2    28  VAL28       0.2260
     45  O         -6.4550    8.4940   17.0070 O.2    28  VAL28      -0.2867
     46  CB        -4.6180    8.7580   19.4520 C.3    28  VAL28       0.0252
     47  CG1       -4.4090    7.2410   19.5880 C.3    28  VAL28       0.0019
     48  CG2       -3.6820    9.5170   20.4090 C.3    28  VAL28       0.0019
     49  N         -2.0100    2.3880   14.9670 N.3    33  LEU33      -0.1245
     50  CA        -1.1260    2.1430   16.1090 C.3    33  LEU33       0.1561
     51  C         -1.4420    0.8080   16.7680 C.2    33  LEU33       0.2260
     52  O         -0.6860    0.3350   17.6210 O.2    33  LEU33      -0.2867
     53  CB        -1.2200    3.2860   17.1290 C.3    33  LEU33       0.0270
     54  CG        -0.7620    4.6670   16.6530 C.3    33  LEU33       0.0019
     55  CD1       -1.0520    5.7340   17.7050 C.3    33  LEU33       0.0001
     56  CD2        0.7140    4.6580   16.2580 C.3    33  LEU33       0.0001
     57  N         -4.4870   -0.1120   18.6270 N.3    35  LEU35      -0.1245
     58  CA        -5.0040    0.1220   19.9780 C.3    35  LEU35       0.1561
     59  C         -6.5340    0.0390   19.9910 C.2    35  LEU35       0.2260
     60  O         -7.2000    1.0630   20.1390 O.2    35  LEU35      -0.2867
     61  CB        -4.5540    1.4950   20.4990 C.3    35  LEU35       0.0270
     62  CG        -3.0770    1.8920   20.4680 C.3    35  LEU35       0.0019
     63  CD1       -2.9410    3.4040   20.4300 C.3    35  LEU35       0.0001
     64  CD2       -2.3250    1.3100   21.6500 C.3    35  LEU35       0.0001
     65  N         -8.4840    1.9920   22.7290 N.3    38  TYR38      -0.1241
     66  CA        -8.2120    3.4210   22.9160 C.3    38  TYR38       0.1605
     67  C         -9.4860    4.2530   23.0470 C.2    38  TYR38       0.2264
     68  O         -9.6380    4.9930   24.0150 O.2    38  TYR38      -0.2867
     69  CB        -7.2990    4.0040   21.8290 C.3    38  TYR38       0.0534
     70  CG        -6.8630    5.4270   22.1560 C.ar   38  TYR38      -0.0201
     71  CD1       -5.7570    5.6670   22.9720 C.ar   38  TYR38      -0.0009
     72  CD2       -7.5870    6.5270   21.6860 C.ar   38  TYR38      -0.0009
     73  CE1       -5.3690    6.9590   23.2880 C.ar   38  TYR38       0.0417
     74  CE2       -7.2080    7.8200   21.9990 C.ar   38  TYR38       0.0417
     75  CZ        -6.0980    8.0260   22.8020 C.ar   38  TYR38       0.1957
     76  OH        -5.7250    9.3000   23.1160 O.3    38  TYR38      -0.2866
     77  N         -5.6160   16.6710   26.4340 N.3    73  MET73      -0.1245
     78  CA        -4.6180   15.9410   25.6540 C.3    73  MET73       0.1570
     79  C         -3.6140   15.2400   26.5730 C.2    73  MET73       0.2261
     80  O         -3.3570   14.0460   26.4160 O.2    73  MET73      -0.2867
     81  CB        -3.8910   16.8680   24.6820 C.3    73  MET73       0.0387
     82  CG        -2.7340   16.2020   23.9410 C.3    73  MET73       0.0595
     83  SD        -1.7380   17.3140   22.8940 S.3    73  MET73      -0.1393
     84  CE        -0.7570   18.2050   24.1030 C.3    73  MET73       0.0692
     85  N         -5.5070   12.3620   28.7640 N.3    76  ASN76      -0.1225
     86  CA        -5.6970   11.1420   27.9720 C.3    76  ASN76       0.1785
     87  C         -4.4270   10.3090   27.9520 C.2    76  ASN76       0.2597
     88  O         -4.4690    9.0930   28.1190 O.2    76  ASN76      -0.2718
     89  CB        -6.1060   11.4410   26.5200 C.3    76  ASN76       0.1169
     90  CG        -7.4030   12.1790   26.4250 C.2    76  ASN76       0.2627
     91  OD1       -8.1670   12.2570   27.4000 O.2    76  ASN76      -0.2716
     92  ND2       -7.6800   12.7350   25.2430 N.am   76  ASN76      -0.0877
     93  N         -3.2940   10.9690   27.7620 N.am   77  CYS77      -0.1970
     94  CA        -2.0370   10.2660   27.6550 C.3    77  CYS77       0.1712
     95  C         -1.6560    9.5540   28.9610 C.2    77  CYS77       0.2296
     96  O         -1.2100    8.3970   28.9410 O.2    77  CYS77      -0.2864
     97  CB        -0.9300   11.2170   27.2140 C.3    77  CYS77       0.0983
     98  SG         0.6370   10.3970   27.0710 S.3    77  CYS77      -0.0798
     99  N         -4.2680    6.5280   29.6470 N.3    80  TYR80      -0.1227
    100  CA        -4.3120    5.3960   28.7440 C.3    80  TYR80       0.1736
    101  C         -3.0410    4.5670   28.7800 C.2    80  TYR80       0.2595
    102  O         -3.0830    3.3440   28.7100 O.2    80  TYR80      -0.2718
    103  CB        -4.6630    5.8250   27.3040 C.3    80  TYR80       0.0548
    104  CG        -4.7030    4.6350   26.3780 C.ar   80  TYR80      -0.0200
    105  CD1       -5.7990    3.7730   26.3620 C.ar   80  TYR80      -0.0009
    106  CD2       -3.6080    4.3240   25.5830 C.ar   80  TYR80      -0.0009
    107  CE1       -5.8130    2.6420   25.5350 C.ar   80  TYR80       0.0417
    108  CE2       -3.6110    3.2150   24.7650 C.ar   80  TYR80       0.0417
    109  CZ        -4.7070    2.3790   24.7420 C.ar   80  TYR80       0.1957
    110  OH        -4.6680    1.2910   23.9200 O.3    80  TYR80      -0.2866
    111  N         -1.9070    5.2380   28.9000 N.am   81  ASN81      -0.1974
    112  CA        -0.6280    4.5700   28.7800 C.3    81  ASN81       0.1688
    113  C         -0.1060    4.0290   30.1120 C.2    81  ASN81       0.2292
    114  O         -0.5540    4.4490   31.1750 O.2    81  ASN81      -0.2864
    115  CB         0.3710    5.5060   28.0990 C.3    81  ASN81       0.1181
    116  CG        -0.0640    5.8730   26.6910 C.2    81  ASN81       0.2629
    117  OD1        0.1270    5.0970   25.7500 O.2    81  ASN81      -0.2716
    118  ND2       -0.6630    7.0490   26.5400 N.am   81  ASN81      -0.0877
    119  N          7.4770    5.6240   27.6350 N.3    86  ASP86      -0.1225
    120  CA         8.2370    6.8410   27.3360 C.3    86  ASP86       0.1805
    121  C          7.3150    8.0150   26.9930 C.2    86  ASP86       0.2597
    122  O          7.6020    9.1600   27.3520 O.2    86  ASP86      -0.2718
    123  CB         9.2250    6.5950   26.1830 C.3    86  ASP86       0.1424
    124  CG        10.1640    5.4160   26.4470 C.2    86  ASP86       0.3668
    125  OD1       10.8420    5.4000   27.5050 O.co2  86  ASP86      -0.2456
    126  OD2       10.2260    4.5050   25.5900 O.co2  86  ASP86      -0.2456
    127  N          6.2200    7.7190   26.2940 N.am   87  ILE87      -0.1980
    128  CA         5.2070    8.7180   25.9570 C.3    87  ILE87       0.1595
    129  C          4.7860    9.5360   27.1970 C.2    87  ILE87       0.2287
    130  O          4.7070   10.7530   27.1330 O.2    87  ILE87      -0.2864
    131  CB         3.9860    8.0640   25.2140 C.3    87  ILE87       0.0276
    132  CG1        3.0330    9.1130   24.6490 C.3    87  ILE87       0.0022
    133  CG2        3.2310    7.0960   26.1000 C.3    87  ILE87       0.0022
    134  CD1        3.4960    9.7480   23.3850 C.3    87  ILE87       0.0001
    135  N          7.3510   11.9800   28.1400 N.3    90  MET90      -0.1245
    136  CA         7.3030   13.0020   27.0980 C.3    90  MET90       0.1570
    137  C          6.2010   14.0240   27.4010 C.2    90  MET90       0.2261
    138  O          6.4550   15.2320   27.3740 O.2    90  MET90      -0.2867
    139  CB         7.1140   12.3680   25.7130 C.3    90  MET90       0.0387
    140  CG         8.3130   11.5440   25.2590 C.3    90  MET90       0.0595
    141  SD         8.0150   10.5650   23.7810 S.3    90  MET90      -0.1393
    142  CE         8.0460   11.8490   22.5400 C.3    90  MET90       0.0692
@<TRIPOS>BOND
     1    40    39    2
     2    38    37    1
     3    38    39    1
     4    37    34    1
     5    39    41   am
     6    49    50    1
     7    34    33    1
     8    34    35    1
     9    35    36    2
    10    50    51    1
    11    50    53    1
    12    56    54    1
    13    54    53    1
    14    54    55    1
    15    51    52    2
    16     5     2    1
    17     5     6    1
    18     4     3    2
    19    11    13   ar
    20    11     8   ar
    21    44    45    2
    22    44    43    1
    23    13    14   ar
    24     2     3    1
    25     2     1    1
    26     6     8   ar
    27     6     7   ar
    28     8    10   ar
    29     3    15   am
    30    42    43    1
    31    43    46    1
    32    14    12   ar
    33     7     9   ar
    34    10    12   ar
    35    10     9   ar
    36    57    58    1
    37    24    25    2
    38    24    23    1
    39    15    16    1
    40    15    21    1
    41    16    17    1
    42    16    19    1
    43    18    17    2
    44    17    22   am
    45    46    47    1
    46    46    48    1
    47    22    23    1
    48    23    26    1
    49    58    59    1
    50    58    61    1
    51    59    60    2
    52    21    20    1
    53    19    20    1
    54    63    62    1
    55    62    61    1
    56    62    64    1
    57    26    27    1
    58    72    74   ar
    59    72    70   ar
    60    69    70    1
    61    69    66    1
    62    74    75   ar
    63    70    71   ar
    64    27    29   ar
    65    27    28   ar
    66   142   141    1
    67    29    31   ar
    68    65    66    1
    69    75    76    1
    70    75    73   ar
    71    83    82    1
    72    83    84    1
    73    66    67    1
    74    71    73   ar
    75    67    68    2
    76    28    30   ar
    77   134   132    1
    78    31    32   ar
    79   141   140    1
    80   110   109    1
    81    82    81    1
    82    30    32   ar
    83   132   131    1
    84    81    78    1
    85   109   108   ar
    86   109   107   ar
    87   108   106   ar
    88   131   128    1
    89   131   133    1
    90    92    90   am
    91   140   139    1
    92   107   105   ar
    93   106   104   ar
    94   126   124   ar
    95    78    77    1
    96    78    79    1
    97   139   136    1
    98   117   116    2
    99   128   127    1
   100   128   129    1
   101   123   124    1
   102   123   120    1
   103   127   121   am
   104   105   104   ar
   105   104   103    1
   106    80    79    2
   107    90    89    1
   108    90    91    2
   109   124   125   ar
   110    89    86    1
   111   118   116   am
   112   116   115    1
   113   121   120    1
   114   121   122    2
   115    98    97    1
   116   136   137    1
   117   136   135    1
   118   130   129    2
   119    97    94    1
   120   103   100    1
   121   120   119    1
   122   138   137    2
   123    94    93    1
   124    94    95    1
   125    93    87   am
   126    87    86    1
   127    87    88    2
   128    86    85    1
   129   115   112    1
   130   102   101    2
   131   100   101    1
   132   100    99    1
   133   112   111    1
   134   112   113    1
   135   101   111   am
   136    96    95    2
   137   113   114    2
