@<TRIPOS>MOLECULE
tmp/4a9mB00.pdb
 126 122 0 0 0
SMALL
GASTEIGER

@<TRIPOS>ATOM
      1  N         42.0940    0.8810   10.2140 N.3    25  TRP25      -0.1228
      2  CA        43.4280    1.4920   10.0880 C.3    25  TRP25       0.1722
      3  C         43.5870    2.6280    9.0650 C.2    25  TRP25       0.2437
      4  O         44.2380    3.6320    9.3730 O.2    25  TRP25      -0.2733
      5  CB        44.5510    0.4370    9.9180 C.3    25  TRP25       0.0563
      6  CG        44.4320   -0.4570    8.7040 C.ar   25  TRP25       0.0003
      7  CD1       43.7380   -1.6430    8.6120 C.ar   25  TRP25       0.0946
      8  CD2       45.0580   -0.2610    7.4230 C.ar   25  TRP25       0.0152
      9  NE1       43.8720   -2.1740    7.3460 N.ar   25  TRP25      -0.2442
     10  CE2       44.6740   -1.3470    6.5990 C.ar   25  TRP25       0.0810
     11  CE3       45.8720    0.7480    6.8830 C.ar   25  TRP25       0.0012
     12  CZ2       45.0850   -1.4570    5.2610 C.ar   25  TRP25       0.0191
     13  CZ3       46.2900    0.6370    5.5570 C.ar   25  TRP25       0.0001
     14  CH2       45.8980   -0.4640    4.7630 C.ar   25  TRP25       0.0015
     15  N         42.9880    2.4960    7.8590 N.am   26  PRO26      -0.2718
     16  CA        43.1630    3.6040    6.9260 C.3    26  PRO26       0.1535
     17  C         42.3970    4.8680    7.3450 C.2    26  PRO26       0.2598
     18  O         42.6150    5.9280    6.7570 O.2    26  PRO26      -0.2715
     19  CB        42.5810    3.0540    5.6140 C.3    26  PRO26       0.0310
     20  CG        42.4000    1.5590    5.8420 C.3    26  PRO26       0.0237
     21  CD        42.0980    1.4680    7.2970 C.3    26  PRO26       0.0939
     22  N         41.5130    4.7490    8.3380 N.am   27  PHE27      -0.1974
     23  CA        40.6250    5.8420    8.7450 C.3    27  PHE27       0.1639
     24  C         41.0490    6.5150   10.0590 C.2    27  PHE27       0.2290
     25  O         40.4260    7.4850   10.4780 O.2    27  PHE27      -0.2864
     26  CB        39.1700    5.3540    8.8840 C.3    27  PHE27       0.0560
     27  CG        38.5930    4.7910    7.6190 C.ar   27  PHE27      -0.0200
     28  CD1       38.0410    5.6280    6.6570 C.ar   27  PHE27      -0.0042
     29  CD2       38.6030    3.4100    7.3900 C.ar   27  PHE27      -0.0042
     30  CE1       37.5250    5.0980    5.4650 C.ar   27  PHE27      -0.0003
     31  CE2       38.0750    2.8680    6.2110 C.ar   27  PHE27      -0.0003
     32  CZ        37.5230    3.7160    5.2540 C.ar   27  PHE27      -0.0000
     33  N         43.8660    8.1310   10.8200 N.3    29  GLN29      -0.1245
     34  CA        44.6340    9.3690   10.6440 C.3    29  GLN29       0.1566
     35  C         44.1850   10.0040    9.3300 C.2    29  GLN29       0.2260
     36  O         43.5650    9.3170    8.5150 O.2    29  GLN29      -0.2867
     37  CB        46.1580    9.1070   10.6440 C.3    29  GLN29       0.0367
     38  CG        46.6460    8.0910    9.6170 C.3    29  GLN29       0.0905
     39  CD        46.1080    6.6910    9.8810 C.2    29  GLN29       0.2608
     40  OE1       46.3080    6.1320   10.9660 O.2    29  GLN29      -0.2717
     41  NE2       45.3870    6.1310    8.9000 N.am   29  GLN29      -0.0878
     42  N         44.0180   11.3210    5.5190 N.3    31  VAL31      -0.1245
     43  CA        44.5410   10.8630    4.2420 C.3    31  VAL31       0.1561
     44  C         45.7910   11.6760    3.9120 C.2    31  VAL31       0.2260
     45  O         45.7370   12.9000    3.8100 O.2    31  VAL31      -0.2867
     46  CB        43.4760   11.0030    3.1020 C.3    31  VAL31       0.0252
     47  CG1       44.0810   10.7220    1.7190 C.3    31  VAL31       0.0019
     48  CG2       42.2730   10.0800    3.3490 C.3    31  VAL31       0.0019
     49  N         50.6050    8.7400   -0.2870 N.3    36  LEU36      -0.1245
     50  CA        49.8340    7.7290   -1.0170 C.3    36  LEU36       0.1561
     51  C         49.8320    7.9690   -2.5270 C.2    36  LEU36       0.2260
     52  O         49.2480    7.1960   -3.2840 O.2    36  LEU36      -0.2867
     53  CB        48.3880    7.6660   -0.5080 C.3    36  LEU36       0.0270
     54  CG        48.0860    7.2850    0.9470 C.3    36  LEU36       0.0019
     55  CD1       46.6150    7.4940    1.2590 C.3    36  LEU36       0.0001
     56  CD2       48.5030    5.8580    1.2650 C.3    36  LEU36       0.0001
     57  N         48.4380   10.6370   -4.3660 N.3    38  LEU38      -0.1245
     58  CA        47.1130   11.0470   -4.8260 C.3    38  LEU38       0.1561
     59  C         47.0440   12.5780   -4.9620 C.2    38  LEU38       0.2260
     60  O         46.4500   13.2560   -4.1090 O.2    38  LEU38      -0.2867
     61  CB        46.0220   10.5180   -3.8790 C.3    38  LEU38       0.0270
     62  CG        45.9970    9.0310   -3.5050 C.3    38  LEU38       0.0019
     63  CD1       45.1140    8.7900   -2.2880 C.3    38  LEU38       0.0001
     64  CD2       45.5580    8.1550   -4.6660 C.3    38  LEU38       0.0001
     65  N         43.5860   14.2650   -4.7280 N.3    41  TYR41      -0.1241
     66  CA        42.7070   14.0240   -3.5620 C.3    41  TYR41       0.1605
     67  C         42.0580   15.2890   -2.9940 C.2    41  TYR41       0.2264
     68  O         40.8390   15.3350   -2.7940 O.2    41  TYR41      -0.2867
     69  CB        43.4070   13.2170   -2.4490 C.3    41  TYR41       0.0534
     70  CG        42.4650   12.8700   -1.3100 C.ar   41  TYR41      -0.0201
     71  CD1       41.6170   11.7580   -1.3930 C.ar   41  TYR41      -0.0009
     72  CD2       42.3970   13.6680   -0.1680 C.ar   41  TYR41      -0.0009
     73  CE1       40.7360   11.4470   -0.3600 C.ar   41  TYR41       0.0417
     74  CE2       41.5160   13.3680    0.8710 C.ar   41  TYR41       0.0417
     75  CZ        40.6840   12.2600    0.7650 C.ar   41  TYR41       0.1957
     76  OH        39.8070   11.9530    1.7840 O.3    41  TYR41      -0.2866
     77  N         35.2480    9.0560    1.3670 N.3    80  CYS80      -0.1235
     78  CA        35.7110    7.7660    0.8710 C.3    80  CYS80       0.1677
     79  C         34.8670    7.3050   -0.3350 C.2    80  CYS80       0.2270
     80  O         35.4320    7.0030   -1.3840 O.2    80  CYS80      -0.2867
     81  CB        35.7320    6.7240    1.9950 C.3    80  CYS80       0.0956
     82  SG        36.4250    5.1240    1.5180 S.3    80  CYS80      -0.0801
     83  N         35.4460    9.7910   -3.4630 N.3    83  TYR83      -0.1227
     84  CA        36.7520    9.8350   -4.1150 C.3    83  TYR83       0.1736
     85  C         37.1770    8.5230   -4.7760 C.2    83  TYR83       0.2595
     86  O         37.7910    8.5440   -5.8440 O.2    83  TYR83      -0.2718
     87  CB        37.8650   10.3150   -3.1500 C.3    83  TYR83       0.0548
     88  CG        39.2580   10.2140   -3.7610 C.ar   83  TYR83      -0.0200
     89  CD1       39.7290   11.2000   -4.6280 C.ar   83  TYR83      -0.0009
     90  CD2       40.0760    9.1150   -3.5050 C.ar   83  TYR83      -0.0009
     91  CE1       40.9960   11.1070   -5.2110 C.ar   83  TYR83       0.0417
     92  CE2       41.3500    9.0090   -4.0800 C.ar   83  TYR83       0.0417
     93  CZ        41.7930   10.0120   -4.9330 C.ar   83  TYR83       0.1957
     94  OH        43.0290    9.9250   -5.5130 O.3    83  TYR83      -0.2866
     95  N         36.9110    7.3980   -4.1140 N.am   84  ASN84      -0.1974
     96  CA        37.4090    6.1090   -4.5750 C.3    84  ASN84       0.1688
     97  C         36.5260    5.4680   -5.6380 C.2    84  ASN84       0.2292
     98  O         35.3830    5.8820   -5.8410 O.2    84  ASN84      -0.2864
     99  CB        37.6530    5.1770   -3.3960 C.3    84  ASN84       0.1181
    100  CG        38.7620    5.6810   -2.4940 C.2    84  ASN84       0.2629
    101  OD1       39.9430    5.6120   -2.8400 O.2    84  ASN84      -0.2716
    102  ND2       38.3820    6.2400   -1.3450 N.am   84  ASN84      -0.0877
    103  N         38.6110   -1.8130   -2.4760 N.3    89  ASP89      -0.1225
    104  CA        38.4480   -2.4210   -1.1440 C.3    89  ASP89       0.1805
    105  C         38.0950   -1.4310   -0.0420 C.2    89  ASP89       0.2597
    106  O         37.3020   -1.7590    0.8420 O.2    89  ASP89      -0.2718
    107  CB        39.7260   -3.1520   -0.7180 C.3    89  ASP89       0.1424
    108  CG        39.9860   -4.4230   -1.5270 C.2    89  ASP89       0.3668
    109  OD1       39.1240   -4.8120   -2.3380 O.co2  89  ASP89      -0.2456
    110  OD2       41.0620   -5.0350   -1.3380 O.co2  89  ASP89      -0.2456
    111  N         38.7280   -0.2560   -0.0690 N.am   90  ILE90      -0.1980
    112  CA        38.4740    0.8100    0.9110 C.3    90  ILE90       0.1595
    113  C         36.9870    1.1490    0.9830 C.2    90  ILE90       0.2287
    114  O         36.4810    1.4460    2.0530 O.2    90  ILE90      -0.2864
    115  CB        39.3460    2.0990    0.6380 C.3    90  ILE90       0.0276
    116  CG1       39.4870    2.9930    1.8840 C.3    90  ILE90       0.0022
    117  CG2       38.7860    2.9250   -0.5400 C.3    90  ILE90       0.0022
    118  CD1       40.1900    2.3400    3.0570 C.3    90  ILE90       0.0001
    119  N         35.3540   -1.4690    3.0490 N.3    93  MET93      -0.1245
    120  CA        35.8320   -1.2210    4.4200 C.3    93  MET93       0.1570
    121  C         35.0520   -0.0890    5.0960 C.2    93  MET93       0.2261
    122  O         34.5930   -0.2480    6.2180 O.2    93  MET93      -0.2867
    123  CB        37.3320   -0.9170    4.3900 C.3    93  MET93       0.0387
    124  CG        38.1770   -2.1530    4.0380 C.3    93  MET93       0.0595
    125  SD        39.8830   -1.8040    3.6660 S.3    93  MET93      -0.1393
    126  CE        40.6080   -1.7600    5.3220 C.3    93  MET93       0.0692
@<TRIPOS>BOND
     1    86    85    2
     2    98    97    2
     3    97    96    1
     4    94    93    1
     5    91    93   ar
     6    91    89   ar
     7    59    58    1
     8    59    60    2
     9    93    92   ar
    10    58    57    1
    11    58    61    1
    12    85    84    1
    13    85    95   am
    14    65    66    1
    15    64    62    1
    16    89    88   ar
    17    96    95    1
    18    96    99    1
    19    84    83    1
    20    84    87    1
    21    92    90   ar
    22    61    62    1
    23    88    90   ar
    24    88    87    1
    25    66    67    1
    26    66    69    1
    27    62    63    1
    28    99   100    1
    29    52    51    2
    30    67    68    2
    31   101   100    2
    32    51    50    1
    33   100   102   am
    34   103   104    1
    35    69    70    1
    36   109   108   ar
    37   108   110   ar
    38   108   107    1
    39    71    70   ar
    40    71    73   ar
    41    80    79    2
    42    70    72   ar
    43   104   107    1
    44   104   105    1
    45    50    53    1
    46    50    49    1
    47   117   115    1
    48    53    54    1
    49    73    75   ar
    50    79    78    1
    51    72    74   ar
    52   111   105   am
    53   111   112    1
    54   105   106    2
    55   115   112    1
    56   115   116    1
    57    75    74   ar
    58    75    76    1
    59    78    77    1
    60    78    81    1
    61   112   113    1
    62    54    55    1
    63    54    56    1
    64   113   114    2
    65    82    81    1
    66    47    46    1
    67   116   118    1
    68   119   120    1
    69    46    48    1
    70    46    43    1
    71   125   124    1
    72   125   126    1
    73    45    44    2
    74    44    43    1
    75   124   123    1
    76    43    42    1
    77   123   120    1
    78   120   121    1
    79    14    12   ar
    80    14    13   ar
    81   121   122    2
    82    32    30   ar
    83    32    31   ar
    84    12    10   ar
    85    30    28   ar
    86    13    11   ar
    87    19    20    1
    88    19    16    1
    89    20    21    1
    90    31    29   ar
    91    10     9   ar
    92    10     8   ar
    93    28    27   ar
    94    18    17    2
    95    11     8   ar
    96    16    17    1
    97    16    15    1
    98    21    15    1
    99    17    22   am
   100     9     7   ar
   101    29    27   ar
   102     8     6   ar
   103    27    26    1
   104    15     3   am
   105    22    23    1
   106    36    35    2
   107     7     6   ar
   108     6     5    1
   109    23    26    1
   110    23    24    1
   111    41    39   am
   112     3     4    2
   113     3     2    1
   114    35    34    1
   115    38    39    1
   116    38    37    1
   117    39    40    2
   118     5     2    1
   119    24    25    2
   120     2     1    1
   121    37    34    1
   122    34    33    1
