@<TRIPOS>MOLECULE
tmp/4a9nA00.pdb
 159 154 0 0 0
SMALL
GASTEIGER

@<TRIPOS>ATOM
      1  N         12.5060   14.6860   -4.6090 N.3    23  TRP23      -0.1228
      2  CA        11.8840   14.0980   -5.8040 C.3    23  TRP23       0.1722
      3  C         12.7220   13.0310   -6.5470 C.2    23  TRP23       0.2437
      4  O         12.1610   12.0410   -7.0170 O.2    23  TRP23      -0.2733
      5  CB        11.3630   15.1860   -6.7660 C.3    23  TRP23       0.0563
      6  CG        12.4170   16.0620   -7.3440 C.ar   23  TRP23       0.0003
      7  CD1       12.8720   17.2460   -6.8310 C.ar   23  TRP23       0.0946
      8  CD2       13.1640   15.8290   -8.5430 C.ar   23  TRP23       0.0152
      9  NE1       13.8620   17.7590   -7.6360 N.ar   23  TRP23      -0.2442
     10  CE2       14.0600   16.9120   -8.6940 C.ar   23  TRP23       0.0810
     11  CE3       13.1670   14.8100   -9.5030 C.ar   23  TRP23       0.0012
     12  CZ2       14.9450   17.0090   -9.7720 C.ar   23  TRP23       0.0191
     13  CZ3       14.0500   14.9050  -10.5740 C.ar   23  TRP23       0.0001
     14  CH2       14.9260   15.9970  -10.6980 C.ar   23  TRP23       0.0015
     15  N         14.0610   13.2040   -6.6380 N.am   24  PRO24      -0.2718
     16  CA        14.8530   12.1530   -7.2930 C.3    24  PRO24       0.1535
     17  C         14.8990   10.8180   -6.5310 C.2    24  PRO24       0.2598
     18  O         15.2560    9.7870   -7.1180 O.2    24  PRO24      -0.2715
     19  CB        16.2660   12.7550   -7.3480 C.3    24  PRO24       0.0310
     20  CG        16.0900   14.2300   -7.0860 C.3    24  PRO24       0.0237
     21  CD        14.9320   14.2800   -6.1390 C.3    24  PRO24       0.0939
     22  N         14.5420   10.8470   -5.2490 N.am   25  PHE25      -0.1974
     23  CA        14.6540    9.6850   -4.3690 C.3    25  PHE25       0.1639
     24  C         13.2990    9.0600   -4.0150 C.2    25  PHE25       0.2290
     25  O         13.2560    8.0900   -3.2710 O.2    25  PHE25      -0.2864
     26  CB        15.3610   10.0860   -3.0740 C.3    25  PHE25       0.0560
     27  CG        16.6830   10.7470   -3.2900 C.ar   25  PHE25      -0.0200
     28  CD1       17.8400    9.9940   -3.3980 C.ar   25  PHE25      -0.0042
     29  CD2       16.7730   12.1300   -3.3890 C.ar   25  PHE25      -0.0042
     30  CE1       19.0800   10.6210   -3.6040 C.ar   25  PHE25      -0.0003
     31  CE2       17.9950   12.7540   -3.6020 C.ar   25  PHE25      -0.0003
     32  CZ        19.1460   11.9970   -3.7010 C.ar   25  PHE25      -0.0000
     33  N         11.2430    7.3990   -5.8410 N.3    27  GLN27      -0.1245
     34  CA        10.9650    6.1720   -6.5850 C.3    27  GLN27       0.1566
     35  C         12.2900    5.5340   -6.9910 C.2    27  GLN27       0.2260
     36  O         13.3130    6.2210   -7.0510 O.2    27  GLN27      -0.2867
     37  CB        10.1120    6.4670   -7.8280 C.3    27  GLN27       0.0367
     38  CG        10.7560    7.4250   -8.8310 C.3    27  GLN27       0.0905
     39  CD        10.7790    8.8640   -8.3340 C.2    27  GLN27       0.2608
     40  OE1        9.7330    9.4340   -8.0080 O.2    27  GLN27      -0.2717
     41  NE2       11.9740    9.4530   -8.2610 N.am   27  GLN27      -0.0878
     42  N         15.5150    4.2420   -8.8530 N.3    29  VAL29      -0.1245
     43  CA        16.2780    4.7440   -9.9880 C.3    29  VAL29       0.1561
     44  C         15.8440    3.9600  -11.2250 C.2    29  VAL29       0.2260
     45  O         15.8960    2.7320  -11.2380 O.2    29  VAL29      -0.2867
     46  CB        17.8020    4.5930   -9.7750 C.3    29  VAL29       0.0252
     47  CG1       18.5690    5.0350  -11.0190 C.3    29  VAL29       0.0019
     48  CG2       18.2550    5.3860   -8.5520 C.3    29  VAL29       0.0019
     49  N         15.3090    5.1400  -18.2200 N.3    33  LYS33      -0.1231
     50  CA        14.8810    6.5350  -18.3050 C.3    33  LYS33       0.1693
     51  C         16.0540    7.5140  -18.2160 C.2    33  LYS33       0.2591
     52  O         16.1360    8.4640  -18.9920 O.2    33  LYS33      -0.2718
     53  CB        13.8880    6.8170  -17.1810 C.3    33  LYS33       0.0285
     54  CG        13.2330    8.1780  -17.2220 C.3    33  LYS33       0.0035
     55  CD        12.3280    8.3460  -16.0250 C.3    33  LYS33       0.0206
     56  CE        11.8980    9.7800  -15.8700 C.3    33  LYS33       0.1093
     57  NZ        11.0190    9.9590  -14.6810 N.3    33  LYS33      -0.1314
     58  N         16.9590    7.2730  -17.2700 N.am   34  LEU34      -0.1980
     59  CA        18.0750    8.1820  -17.0150 C.3    34  LEU34       0.1596
     60  C         19.2850    7.9190  -17.9200 C.2    34  LEU34       0.2287
     61  O         20.2570    8.6780  -17.8900 O.2    34  LEU34      -0.2864
     62  CB        18.4890    8.1050  -15.5410 C.3    34  LEU34       0.0297
     63  CG        17.3910    8.4500  -14.5230 C.3    34  LEU34       0.0022
     64  CD1       17.9080    8.3200  -13.0990 C.3    34  LEU34       0.0001
     65  CD2       16.8370    9.8450  -14.7570 C.3    34  LEU34       0.0001
     66  N         21.4210    5.2020  -17.9110 N.3    36  LEU36      -0.1245
     67  CA        22.4980    4.7790  -17.0220 C.3    36  LEU36       0.1561
     68  C         22.6910    3.2640  -17.1400 C.2    36  LEU36       0.2260
     69  O         22.3560    2.5210  -16.2210 O.2    36  LEU36      -0.2867
     70  CB        22.1480    5.1600  -15.5800 C.3    36  LEU36       0.0270
     71  CG        21.8150    6.6310  -15.3100 C.3    36  LEU36       0.0019
     72  CD1       21.3740    6.8160  -13.8680 C.3    36  LEU36       0.0001
     73  CD2       22.9860    7.5390  -15.6280 C.3    36  LEU36       0.0001
     74  N         24.1920    1.2880  -14.2030 N.3    39  TYR39      -0.1241
     75  CA        23.7220    1.5610  -12.8450 C.3    39  TYR39       0.1605
     76  C         23.6280    0.2900  -12.0050 C.2    39  TYR39       0.2264
     77  O         24.1460    0.2360  -10.8940 O.2    39  TYR39      -0.2867
     78  CB        22.3790    2.2920  -12.8250 C.3    39  TYR39       0.0534
     79  CG        21.9900    2.6780  -11.4150 C.ar   39  TYR39      -0.0201
     80  CD1       22.5610    3.7920  -10.7940 C.ar   39  TYR39      -0.0009
     81  CD2       21.1050    1.8960  -10.6770 C.ar   39  TYR39      -0.0009
     82  CE1       22.2320    4.1350   -9.4870 C.ar   39  TYR39       0.0417
     83  CE2       20.7690    2.2290   -9.3650 C.ar   39  TYR39       0.0417
     84  CZ        21.3320    3.3470   -8.7770 C.ar   39  TYR39       0.1957
     85  OH        20.9970    3.6730   -7.4830 O.3    39  TYR39      -0.2866
     86  N         20.2890    3.9610    0.4260 N.3    74  MET74      -0.1245
     87  CA        19.8320    4.9140   -0.5870 C.3    74  MET74       0.1570
     88  C         20.8670    6.0260   -0.8010 C.2    74  MET74       0.2261
     89  O         21.2550    6.3260   -1.9360 O.2    74  MET74      -0.2867
     90  CB        18.4760    5.5070   -0.1850 C.3    74  MET74       0.0387
     91  CG        17.9210    6.5810   -1.1320 C.3    74  MET74       0.0595
     92  SD        16.3780    7.2160   -0.4690 S.3    74  MET74      -0.1393
     93  CE        16.9850    8.2660    0.8550 C.3    74  MET74       0.0692
     94  N         24.3870    4.5960   -2.0780 N.3    77  ASN77      -0.1225
     95  CA        24.3000    4.2580   -3.4970 C.3    77  ASN77       0.1785
     96  C         24.5230    5.4920   -4.3500 C.2    77  ASN77       0.2597
     97  O         25.2380    5.4510   -5.3400 O.2    77  ASN77      -0.2718
     98  CB        22.9300    3.6610   -3.8540 C.3    77  ASN77       0.1169
     99  CG        22.7400    2.2450   -3.3430 C.2    77  ASN77       0.2627
    100  OD1       23.6840    1.5820   -2.8910 O.2    77  ASN77      -0.2716
    101  ND2       21.5020    1.7600   -3.4380 N.am   77  ASN77      -0.0877
    102  N         23.8990    6.5920   -3.9510 N.am   78  CYS78      -0.1970
    103  CA        24.0060    7.8490   -4.6810 C.3    78  CYS78       0.1712
    104  C         25.4640    8.3430   -4.7160 C.2    78  CYS78       0.2296
    105  O         26.0000    8.6770   -5.7850 O.2    78  CYS78      -0.2864
    106  CB        23.0770    8.8770   -4.0340 C.3    78  CYS78       0.0983
    107  SG        23.0540   10.4700   -4.8390 S.3    78  CYS78      -0.0798
    108  N         27.7470    5.8110   -6.9230 N.3    81  TYR81      -0.1227
    109  CA        27.4990    5.7770   -8.3570 C.3    81  TYR81       0.1736
    110  C         27.8690    7.0900   -9.0430 C.2    81  TYR81       0.2595
    111  O         28.4850    7.0980  -10.1110 O.2    81  TYR81      -0.2718
    112  CB        26.0290    5.4460   -8.6740 C.3    81  TYR81       0.0548
    113  CG        25.8230    5.4260  -10.1700 C.ar   81  TYR81      -0.0200
    114  CD1       26.3590    4.3990  -10.9390 C.ar   81  TYR81      -0.0009
    115  CD2       25.1830    6.4740  -10.8250 C.ar   81  TYR81      -0.0009
    116  CE1       26.2210    4.3840  -12.3120 C.ar   81  TYR81       0.0417
    117  CE2       25.0420    6.4730  -12.2050 C.ar   81  TYR81       0.0417
    118  CZ        25.5670    5.4200  -12.9420 C.ar   81  TYR81       0.1957
    119  OH        25.4410    5.4050  -14.3070 O.3    81  TYR81      -0.2866
    120  N         27.4810    8.2040   -8.4320 N.am   82  ASN82      -0.1974
    121  CA        27.5700    9.4930   -9.1060 C.3    82  ASN82       0.1688
    122  C         28.9410   10.1410   -9.0030 C.2    82  ASN82       0.2292
    123  O         29.7520    9.7770   -8.1530 O.2    82  ASN82      -0.2864
    124  CB        26.4780   10.4150   -8.5800 C.3    82  ASN82       0.1181
    125  CG        25.1060    9.9470   -8.9920 C.2    82  ASN82       0.2629
    126  OD1       24.7560   10.0240  -10.1690 O.2    82  ASN82      -0.2716
    127  ND2       24.3270    9.4320   -8.0390 N.am   82  ASN82      -0.0877
    128  N         28.2840   16.0820   -9.2760 N.3    86  ASP86      -0.1225
    129  CA        26.8740   15.9750   -9.6610 C.3    86  ASP86       0.1805
    130  C         25.9760   16.6030   -8.5920 C.2    86  ASP86       0.2598
    131  O         26.2130   16.4260   -7.3990 O.2    86  ASP86      -0.2718
    132  CB        26.4830   14.5020   -9.8680 C.3    86  ASP86       0.1424
    133  CG        27.0810   13.8970  -11.1330 C.2    86  ASP86       0.3668
    134  OD1       27.4340   14.6540  -12.0620 O.co2  86  ASP86      -0.2456
    135  OD2       27.1830   12.6510  -11.2080 O.co2  86  ASP86      -0.2456
    136  N         24.9460   17.3300   -9.0300 N.am   87  ASP87      -0.1960
    137  CA        24.0000   17.9780   -8.1180 C.3    87  ASP87       0.1840
    138  C         23.2740   16.9850   -7.2080 C.2    87  ASP87       0.2621
    139  O         22.9350   17.3210   -6.0770 O.2    87  ASP87      -0.2715
    140  CB        22.9380   18.7720   -8.8900 C.3    87  ASP87       0.1450
    141  CG        23.4930   20.0120   -9.5710 C.2    87  ASP87       0.3671
    142  OD1       24.6380   20.4270   -9.2910 O.co2  87  ASP87      -0.2456
    143  OD2       22.7560   20.5790  -10.3990 O.co2  87  ASP87      -0.2456
    144  N         23.0200   15.7760   -7.7040 N.am   88  ILE88      -0.1977
    145  CA        22.3200   14.7630   -6.9150 C.3    88  ILE88       0.1596
    146  C         23.0450   14.4690   -5.5900 C.2    88  ILE88       0.2287
    147  O         22.4090   14.2150   -4.5670 O.2    88  ILE88      -0.2864
    148  CB        22.0860   13.4580   -7.7330 C.3    88  ILE88       0.0276
    149  CG1       21.0670   12.5540   -7.0370 C.3    88  ILE88       0.0022
    150  CG2       23.4100   12.7190   -7.9970 C.3    88  ILE88       0.0022
    151  CD1       19.6590   13.1050   -7.0240 C.3    88  ILE88       0.0001
    152  N         22.1530   17.1440   -3.1310 N.3    91  MET91      -0.1245
    153  CA        20.7770   16.9120   -2.7170 C.3    91  MET91       0.1570
    154  C         20.7030   15.7740   -1.6940 C.2    91  MET91       0.2261
    155  O         20.0310   15.8980   -0.6690 O.2    91  MET91      -0.2867
    156  CB        19.9140   16.6160   -3.9460 C.3    91  MET91       0.0387
    157  CG        19.8110   17.7940   -4.9060 C.3    91  MET91       0.0595
    158  SD        19.0010   17.3940   -6.4610 S.3    91  MET91      -0.1393
    159  CE        17.2770   17.6080   -6.0040 C.3    91  MET91       0.0692
@<TRIPOS>BOND
     1    52    51    2
     2    50    49    1
     3    50    51    1
     4    50    53    1
     5    51    58   am
     6    60    61    2
     7    60    59    1
     8    66    67    1
     9    58    59    1
    10    54    53    1
    11    54    55    1
    12    68    67    1
    13    68    69    2
    14    67    70    1
    15    59    62    1
    16    55    56    1
    17    56    57    1
    18    73    71    1
    19    70    71    1
    20    62    63    1
    21    71    72    1
    22    65    63    1
    23    63    64    1
    24   119   118    1
    25    74    75    1
    26   118   116   ar
    27   118   117   ar
    28    75    78    1
    29    75    76    1
    30    78    79    1
    31   116   114   ar
    32   117   115   ar
    33   134   133   ar
    34    76    77    2
    35    79    80   ar
    36    79    81   ar
    37    45    44    2
    38    44    43    1
    39   135   133   ar
    40   133   132    1
    41    47    46    1
    42   114   113   ar
    43   115   113   ar
    44    80    82   ar
    45    14    13   ar
    46    14    12   ar
    47    81    83   ar
    48    13    11   ar
    49   143   141   ar
    50   113   112    1
    51   126   125    2
    52   111   110    2
    53    43    46    1
    54    43    42    1
    55   132   129    1
    56    46    48    1
    57    12    10   ar
    58   129   128    1
    59   129   130    1
    60   141   142   ar
    61   141   140    1
    62    11     8   ar
    63    82    84   ar
    64    83    84   ar
    65   121   122    1
    66   121   124    1
    67   121   120    1
    68   110   120   am
    69   110   109    1
    70   136   130   am
    71   136   137    1
    72   122   123    2
    73   125   124    1
    74   125   127   am
    75   140   137    1
    76    38    39    1
    77    38    37    1
    78    84    85    1
    79    10     8   ar
    80    10     9   ar
    81   112   109    1
    82   130   131    2
    83     8     6   ar
    84   109   108    1
    85    39    41   am
    86    39    40    2
    87   137   138    1
    88   150   148    1
    89    37    34    1
    90   148   149    1
    91   148   145    1
    92   144   138   am
    93   144   145    1
    94     9     7   ar
    95    19    16    1
    96    19    20    1
    97     6     7   ar
    98     6     5    1
    99    16    15    1
   100    16    17    1
   101   138   139    2
   102    18    17    2
   103    20    21    1
   104    36    35    2
   105   149   151    1
   106     4     3    2
   107    35    34    1
   108   145   146    1
   109     5     2    1
   110    15     3   am
   111    15    21    1
   112    34    33    1
   113     3     2    1
   114    17    22   am
   115   158   159    1
   116   158   157    1
   117     2     1    1
   118   105   104    2
   119   146   147    2
   120    97    96    2
   121    22    23    1
   122   157   156    1
   123   107   106    1
   124   104   103    1
   125   103   106    1
   126   103   102    1
   127    23    24    1
   128    23    26    1
   129    96   102   am
   130    96    95    1
   131    24    25    2
   132   156   153    1
   133    98    95    1
   134    98    99    1
   135    32    30   ar
   136    32    31   ar
   137    30    28   ar
   138    31    29   ar
   139    95    94    1
   140   101    99   am
   141    28    27   ar
   142    29    27   ar
   143    99   100    2
   144    27    26    1
   145   152   153    1
   146   153   154    1
   147    89    88    2
   148   154   155    2
   149    91    92    1
   150    91    90    1
   151    88    87    1
   152    87    90    1
   153    87    86    1
   154    92    93    1
