@<TRIPOS>MOLECULE
tmp/4a9oB00.pdb
 118 115 0 0 0
SMALL
GASTEIGER

@<TRIPOS>ATOM
      1  N         41.5090    0.7880   10.3480 N.3    22  TRP22      -0.1228
      2  CA        42.8400    1.4230   10.2960 C.3    22  TRP22       0.1722
      3  C         43.0050    2.5720    9.2740 C.2    22  TRP22       0.2437
      4  O         43.6490    3.5730    9.5960 O.2    22  TRP22      -0.2733
      5  CB        43.9780    0.3930   10.1700 C.3    22  TRP22       0.0563
      6  CG        44.0210   -0.3560    8.8810 C.ar   22  TRP22       0.0003
      7  CD1       43.4490   -1.5650    8.6160 C.ar   22  TRP22       0.0946
      8  CD2       44.6730    0.0540    7.6760 C.ar   22  TRP22       0.0152
      9  NE1       43.6980   -1.9310    7.3150 N.ar   22  TRP22      -0.2442
     10  CE2       44.4490   -0.9550    6.7160 C.ar   22  TRP22       0.0810
     11  CE3       45.4140    1.1850    7.3090 C.ar   22  TRP22       0.0012
     12  CZ2       44.9480   -0.8750    5.4140 C.ar   22  TRP22       0.0191
     13  CZ3       45.9130    1.2620    6.0110 C.ar   22  TRP22       0.0001
     14  CH2       45.6710    0.2400    5.0810 C.ar   22  TRP22       0.0015
     15  N         42.4090    2.4610    8.0650 N.am   23  PRO23      -0.2718
     16  CA        42.5400    3.5930    7.1350 C.3    23  PRO23       0.1535
     17  C         41.8320    4.8740    7.5840 C.2    23  PRO23       0.2598
     18  O         42.1370    5.9460    7.0570 O.2    23  PRO23      -0.2715
     19  CB        41.8890    3.0730    5.8430 C.3    23  PRO23       0.0310
     20  CG        41.8250    1.5810    6.0100 C.3    23  PRO23       0.0237
     21  CD        41.5980    1.3860    7.4690 C.3    23  PRO23       0.0939
     22  N         40.8980    4.7480    8.5300 N.am   24  PHE24      -0.1974
     23  CA        40.0350    5.8400    8.9660 C.3    24  PHE24       0.1639
     24  C         40.4620    6.5100   10.2800 C.2    24  PHE24       0.2290
     25  O         39.8290    7.4700   10.6990 O.2    24  PHE24      -0.2864
     26  CB        38.5920    5.3200    9.1120 C.3    24  PHE24       0.0560
     27  CG        38.0320    4.7450    7.8440 C.ar   24  PHE24      -0.0200
     28  CD1       37.3960    5.5640    6.9200 C.ar   24  PHE24      -0.0042
     29  CD2       38.1510    3.3910    7.5620 C.ar   24  PHE24      -0.0042
     30  CE1       36.8850    5.0400    5.7360 C.ar   24  PHE24      -0.0003
     31  CE2       37.6450    2.8620    6.3730 C.ar   24  PHE24      -0.0003
     32  CZ        37.0130    3.6910    5.4630 C.ar   24  PHE24      -0.0000
     33  N         43.1310    8.2430   10.9970 N.3    26  GLN26      -0.1245
     34  CA        43.9020    9.4640   10.7980 C.3    26  GLN26       0.1566
     35  C         43.5310   10.0360    9.4380 C.2    26  GLN26       0.2260
     36  O         42.9610    9.3260    8.6060 O.2    26  GLN26      -0.2867
     37  CB        45.4130    9.1900   10.8800 C.3    26  GLN26       0.0367
     38  CG        45.9480    8.1970    9.8590 C.3    26  GLN26       0.0905
     39  CD        45.5000    6.7740   10.1380 C.2    26  GLN26       0.2608
     40  OE1       45.6780    6.2640   11.2460 O.2    26  GLN26      -0.2717
     41  NE2       44.9030    6.1280    9.1350 N.am   26  GLN26      -0.0878
     42  N         43.4090   11.1510    5.6000 N.3    28  VAL28      -0.1231
     43  CA        43.9510   10.6170    4.3590 C.3    28  VAL28       0.1692
     44  C         45.2160   11.4030    4.0190 C.2    28  VAL28       0.2592
     45  O         45.1870   12.6320    3.9550 O.2    28  VAL28      -0.2718
     46  CB        42.9380   10.7280    3.2050 C.3    28  VAL28       0.0266
     47  CG1       43.5690   10.3010    1.8780 C.3    28  VAL28       0.0020
     48  CG2       41.6960    9.8830    3.5090 C.3    28  VAL28       0.0020
     49  N         46.3230   10.6850    3.8410 N.am   29  ASP29      -0.1974
     50  CA        47.6080   11.2980    3.4990 C.3    29  ASP29       0.1709
     51  C         47.7950   11.1930    1.9880 C.2    29  ASP29       0.2293
     52  O         48.2670   10.1740    1.4770 O.2    29  ASP29      -0.2864
     53  CB        48.7460   10.5990    4.2520 C.3    29  ASP29       0.1436
     54  CG        50.0700   11.3460    4.1540 C.2    29  ASP29       0.3671
     55  OD1       50.2840   12.0820    3.1670 O.co2  29  ASP29      -0.2456
     56  OD2       50.9070   11.1820    5.0680 O.co2  29  ASP29      -0.2456
     57  N         50.0520    8.4190   -0.1360 N.3    33  LEU33      -0.1245
     58  CA        49.3090    7.5740   -1.0800 C.3    33  LEU33       0.1561
     59  C         49.5270    7.9580   -2.5470 C.2    33  LEU33       0.2260
     60  O         49.1230    7.2210   -3.4480 O.2    33  LEU33      -0.2867
     61  CB        47.8090    7.6180   -0.7650 C.3    33  LEU33       0.0270
     62  CG        47.3720    7.0340    0.5780 C.3    33  LEU33       0.0019
     63  CD1       45.8830    7.2710    0.7880 C.3    33  LEU33       0.0001
     64  CD2       47.7000    5.5480    0.6680 C.3    33  LEU33       0.0001
     65  N         48.2800   10.7250   -4.2880 N.3    35  LEU35      -0.1245
     66  CA        46.9770   11.0910   -4.8420 C.3    35  LEU35       0.1561
     67  C         46.8540   12.6140   -4.9300 C.2    35  LEU35       0.2260
     68  O         46.2750   13.2450   -4.0400 O.2    35  LEU35      -0.2867
     69  CB        45.8580   10.5130   -3.9710 C.3    35  LEU35       0.0270
     70  CG        45.8640    8.9890   -3.8150 C.3    35  LEU35       0.0019
     71  CD1       44.8810    8.5620   -2.7360 C.3    35  LEU35       0.0001
     72  CD2       45.5540    8.3020   -5.1390 C.3    35  LEU35       0.0001
     73  N         43.1850   14.1510   -4.6250 N.3    38  TYR38      -0.1241
     74  CA        42.3160   13.8920   -3.4720 C.3    38  TYR38       0.1605
     75  C         41.7000   15.1760   -2.9230 C.2    38  TYR38       0.2264
     76  O         40.4820   15.2670   -2.7770 O.2    38  TYR38      -0.2867
     77  CB        43.0290   13.1360   -2.3420 C.3    38  TYR38       0.0534
     78  CG        42.0630   12.7760   -1.2300 C.ar   38  TYR38      -0.0201
     79  CD1       41.2360   11.6650   -1.3400 C.ar   38  TYR38      -0.0009
     80  CD2       41.9380   13.5760   -0.0950 C.ar   38  TYR38      -0.0009
     81  CE1       40.3310   11.3410   -0.3400 C.ar   38  TYR38       0.0417
     82  CE2       41.0280   13.2620    0.9130 C.ar   38  TYR38       0.0417
     83  CZ        40.2240   12.1460    0.7790 C.ar   38  TYR38       0.1957
     84  OH        39.3200   11.8210    1.7620 O.3    38  TYR38      -0.2866
     85  N         34.6910    9.0190    1.3680 N.3    77  CYS77      -0.1235
     86  CA        35.2050    7.7450    0.8900 C.3    77  CYS77       0.1677
     87  C         34.4210    7.2590   -0.3280 C.2    77  CYS77       0.2270
     88  O         35.0100    6.8570   -1.3320 O.2    77  CYS77      -0.2867
     89  CB        35.1540    6.7140    2.0120 C.3    77  CYS77       0.0956
     90  SG        35.9410    5.1470    1.6240 S.3    77  CYS77      -0.0801
     91  N         35.0060    9.7790   -3.5370 N.3    80  TYR80      -0.1227
     92  CA        36.3280    9.7960   -4.1700 C.3    80  TYR80       0.1736
     93  C         36.7150    8.4780   -4.8420 C.2    80  TYR80       0.2595
     94  O         37.2750    8.4780   -5.9370 O.2    80  TYR80      -0.2718
     95  CB        37.4210   10.1830   -3.1640 C.3    80  TYR80       0.0548
     96  CG        38.8030   10.1190   -3.7730 C.ar   80  TYR80      -0.0200
     97  CD1       39.2610   11.1360   -4.6060 C.ar   80  TYR80      -0.0009
     98  CD2       39.6350    9.0220   -3.5560 C.ar   80  TYR80      -0.0009
     99  CE1       40.5150   11.0740   -5.1910 C.ar   80  TYR80       0.0417
    100  CE2       40.8950    8.9510   -4.1400 C.ar   80  TYR80       0.0417
    101  CZ        41.3290    9.9840   -4.9550 C.ar   80  TYR80       0.1957
    102  OH        42.5750    9.9290   -5.5420 O.3    80  TYR80      -0.2866
    103  N         36.4410    7.3580   -4.1800 N.am   81  ASN81      -0.1974
    104  CA        36.9530    6.0670   -4.6310 C.3    81  ASN81       0.1688
    105  C         36.0820    5.4020   -5.6900 C.2    81  ASN81       0.2292
    106  O         34.9150    5.7580   -5.8650 O.2    81  ASN81      -0.2864
    107  CB        37.1420    5.1460   -3.4290 C.3    81  ASN81       0.1181
    108  CG        38.2170    5.6530   -2.4920 C.2    81  ASN81       0.2629
    109  OD1       39.4060    5.5770   -2.8040 O.2    81  ASN81      -0.2716
    110  ND2       37.8060    6.1940   -1.3490 N.am   81  ASN81      -0.0877
    111  N         38.2140   -0.2480   -0.0660 N.3    87  ILE87      -0.1245
    112  CA        38.0000    0.7880    0.9420 C.3    87  ILE87       0.1561
    113  C         36.5130    1.1640    1.0580 C.2    87  ILE87       0.2260
    114  O         36.0420    1.4800    2.1470 O.2    87  ILE87      -0.2867
    115  CB        38.8930    2.0360    0.6740 C.3    87  ILE87       0.0252
    116  CG1       38.9270    2.9620    1.8960 C.3    87  ILE87       0.0019
    117  CG2       38.4370    2.7910   -0.5700 C.3    87  ILE87       0.0019
    118  CD1       39.6870    2.3960    3.0790 C.3    87  ILE87       0.0001
@<TRIPOS>BOND
     1    94    93    2
     2   106   105    2
     3   105   104    1
     4   102   101    1
     5    99   101   ar
     6    99    97   ar
     7    72    70    1
     8   101   100   ar
     9    67    66    1
    10    67    68    2
    11    66    65    1
    12    66    69    1
    13    93   103   am
    14    93    92    1
    15   104   103    1
    16   104   107    1
    17    73    74    1
    18    97    96   ar
    19    92    91    1
    20    92    95    1
    21   100    98   ar
    22    69    70    1
    23    70    71    1
    24    96    98   ar
    25    96    95    1
    26    74    75    1
    27    74    77    1
    28    60    59    2
    29   107   108    1
    30    75    76    2
    31   109   108    2
    32    59    58    1
    33   108   110   am
    34    77    78    1
    35    79    78   ar
    36    79    81   ar
    37    88    87    2
    38    78    80   ar
    39    58    61    1
    40    58    57    1
    41    61    62    1
    42   117   115    1
    43    81    83   ar
    44    87    86    1
    45    80    82   ar
    46   111   112    1
    47    62    64    1
    48    62    63    1
    49   115   112    1
    50   115   116    1
    51    83    82   ar
    52    83    84    1
    53    86    85    1
    54    86    89    1
    55   112   113    1
    56   113   114    2
    57    52    51    2
    58    90    89    1
    59    47    46    1
    60   116   118    1
    61    51    50    1
    62    55    54   ar
    63    46    48    1
    64    46    43    1
    65    50    49    1
    66    50    53    1
    67    49    44   am
    68    45    44    2
    69    44    43    1
    70    54    53    1
    71    54    56   ar
    72    43    42    1
    73    14    12   ar
    74    14    13   ar
    75    12    10   ar
    76    32    30   ar
    77    32    31   ar
    78    30    28   ar
    79    19    20    1
    80    19    16    1
    81    20    21    1
    82    13    11   ar
    83    31    29   ar
    84    10     9   ar
    85    10     8   ar
    86    28    27   ar
    87    18    17    2
    88    16    17    1
    89    16    15    1
    90    11     8   ar
    91     9     7   ar
    92    21    15    1
    93    29    27   ar
    94    17    22   am
    95     8     6   ar
    96    27    26    1
    97    15     3   am
    98    22    23    1
    99    36    35    2
   100     7     6   ar
   101     6     5    1
   102    23    26    1
   103    23    24    1
   104    41    39   am
   105     3     4    2
   106     3     2    1
   107    35    34    1
   108    38    39    1
   109    38    37    1
   110    39    40    2
   111     5     2    1
   112    24    25    2
   113     2     1    1
   114    34    37    1
   115    34    33    1
