@<TRIPOS>MOLECULE
tmp/4a9rA00.pdb
 158 145 0 0 0
SMALL
GASTEIGER

@<TRIPOS>ATOM
      1  N         -5.3760   54.7320    6.7490 N.3    17  LEU17      -0.1245
      2  CA        -5.1440   53.5180    7.5210 C.3    17  LEU17       0.1561
      3  C         -4.6710   52.3720    6.6350 C.2    17  LEU17       0.2260
      4  O         -4.3990   51.2750    7.1200 O.2    17  LEU17      -0.2867
      5  CB        -6.4160   53.1180    8.2690 C.3    17  LEU17       0.0270
      6  CG        -7.0160   54.1920    9.1800 C.3    17  LEU17       0.0019
      7  CD1       -8.3980   53.7870    9.6740 C.3    17  LEU17       0.0001
      8  CD2       -6.0870   54.4900   10.3480 C.3    17  LEU17       0.0001
      9  N         -8.1280   53.0030    2.6280 N.3    19  VAL19      -0.1245
     10  CA        -9.0790   53.2200    3.7140 C.3    19  VAL19       0.1561
     11  C         -8.6420   54.3410    4.6480 C.2    19  VAL19       0.2260
     12  O         -7.5180   54.3410    5.1490 O.2    19  VAL19      -0.2867
     13  CB        -9.2890   51.9440    4.5480 C.3    19  VAL19       0.0252
     14  CG1       -9.9030   52.2870    5.8900 C.3    19  VAL19       0.0019
     15  CG2      -10.1650   50.9540    3.7970 C.3    19  VAL19       0.0019
     16  N         -9.7840   57.0870    8.0440 N.3    21  LEU21      -0.1245
     17  CA       -10.6170   57.2570    9.2230 C.3    21  LEU21       0.1561
     18  C        -11.4720   58.5100    9.0700 C.2    21  LEU21       0.2260
     19  O        -11.0040   59.5330    8.5710 O.2    21  LEU21      -0.2867
     20  CB        -9.7390   57.3810   10.4680 C.3    21  LEU21       0.0270
     21  CG       -10.4190   57.8810   11.7430 C.3    21  LEU21       0.0019
     22  CD1      -11.1330   56.7340   12.4430 C.3    21  LEU21       0.0001
     23  CD2       -9.4050   58.5410   12.6690 C.3    21  LEU21       0.0001
     24  N        -16.7750   57.3760   15.2070 N.3    30  LYS30      -0.1245
     25  CA       -15.7410   57.0670   14.2310 C.3    30  LYS30       0.1561
     26  C        -16.2630   56.0890   13.1870 C.2    30  LYS30       0.2260
     27  O        -17.0340   55.1820   13.4990 O.2    30  LYS30      -0.2867
     28  CB       -14.5140   56.4740   14.9230 C.3    30  LYS30       0.0271
     29  CG       -13.9650   57.3160   16.0570 C.3    30  LYS30       0.0035
     30  CD       -12.7530   56.6570   16.6910 C.3    30  LYS30       0.0206
     31  CE       -12.2440   57.4650   17.8740 C.3    30  LYS30       0.1093
     32  NZ       -11.0660   56.8290   18.5320 N.3    30  LYS30      -0.1314
     33  N        -15.0490   54.0640    9.1790 N.3    32  ALA32      -0.1245
     34  CA       -14.0000   53.7650    8.2150 C.3    32  ALA32       0.1562
     35  C        -14.5160   53.9590    6.7990 C.2    32  ALA32       0.2260
     36  O        -15.4260   53.2590    6.3580 O.2    32  ALA32      -0.2867
     37  CB       -13.4940   52.3520    8.4040 C.3    32  ALA32       0.0290
     38  N        -13.8060   53.6200    2.9550 N.3    34  LYS34      -0.1245
     39  CA       -12.9600   53.0340    1.9220 C.3    34  LYS34       0.1561
     40  C        -13.1090   53.7860    0.5980 C.2    34  LYS34       0.2260
     41  O        -14.2170   53.9520    0.0850 O.2    34  LYS34      -0.2867
     42  CB       -13.2690   51.5440    1.7400 C.3    34  LYS34       0.0271
     43  CG       -12.2510   50.8100    0.8890 C.3    34  LYS34       0.0035
     44  CD       -12.4310   49.3000    0.9570 C.3    34  LYS34       0.0206
     45  CE       -13.6220   48.8160    0.1340 C.3    34  LYS34       0.1093
     46  NZ       -13.7160   47.3220    0.1080 N.3    34  LYS34      -0.1314
     47  N        -18.6040   42.7030    8.1250 N.3    59  ILE59      -0.1245
     48  CA       -18.5880   44.1620    8.1280 C.3    59  ILE59       0.1561
     49  C        -19.8820   44.7440    7.5450 C.2    59  ILE59       0.2260
     50  O        -20.4230   44.2260    6.5640 O.2    59  ILE59      -0.2867
     51  CB       -17.3590   44.6940    7.3580 C.3    59  ILE59       0.0252
     52  CG1      -17.1310   46.1760    7.6480 C.3    59  ILE59       0.0019
     53  CG2      -17.4980   44.4270    5.8690 C.3    59  ILE59       0.0019
     54  CD1      -16.6860   46.4400    9.0570 C.3    59  ILE59       0.0001
     55  N        -18.0690   52.4050    6.1990 N.3    74  LEU74      -0.1231
     56  CA       -18.2070   51.1730    6.9620 C.3    74  LEU74       0.1693
     57  C        -17.9580   51.4250    8.4400 C.2    74  LEU74       0.2592
     58  O        -17.3330   52.4190    8.8130 O.2    74  LEU74      -0.2718
     59  CB       -17.2120   50.1380    6.4500 C.3    74  LEU74       0.0284
     60  CG       -17.2710   49.8970    4.9440 C.3    74  LEU74       0.0019
     61  CD1      -15.9710   49.2940    4.4490 C.3    74  LEU74       0.0001
     62  CD2      -18.4690   49.0220    4.5830 C.3    74  LEU74       0.0001
     63  N        -18.4470   50.5230    9.2820 N.am   75  GLU75      -0.1966
     64  CA       -18.1640   50.6070   10.7070 C.3    75  GLU75       0.1733
     65  C        -16.6670   50.4090   10.9590 C.2    75  GLU75       0.2616
     66  O        -16.0160   49.6070   10.2930 O.2    75  GLU75      -0.2715
     67  CB       -19.0050   49.5920   11.4850 C.3    75  GLU75       0.0429
     68  CG       -19.1500   48.2460   10.7950 C.3    75  GLU75       0.1163
     69  CD       -20.1400   47.3300   11.4910 C.2    75  GLU75       0.3649
     70  OE1      -20.8610   47.8040   12.3960 O.co2  75  GLU75      -0.2457
     71  OE2      -20.1960   46.1340   11.1290 O.co2  75  GLU75      -0.2457
     72  N        -16.1190   51.1620   11.9060 N.am   76  LEU76      -0.1963
     73  CA       -14.6890   51.0970   12.1890 C.3    76  LEU76       0.1728
     74  C        -14.3470   49.9530   13.1370 C.2    76  LEU76       0.2616
     75  O        -15.0040   49.7610   14.1610 O.2    76  LEU76      -0.2715
     76  CB       -14.1920   52.4180   12.7730 C.3    76  LEU76       0.0311
     77  CG       -12.7040   52.4440   13.1180 C.3    76  LEU76       0.0022
     78  CD1      -11.8720   52.4250   11.8480 C.3    76  LEU76       0.0001
     79  CD2      -12.3740   53.6630   13.9500 C.3    76  LEU76       0.0001
     80  N        -13.3080   49.2020   12.7890 N.am   77  MET77      -0.1963
     81  CA       -12.8740   48.0660   13.5900 C.3    77  MET77       0.1736
     82  C        -11.5900   48.3830   14.3440 C.2    77  MET77       0.2616
     83  O        -10.4950   48.3310   13.7800 O.2    77  MET77      -0.2715
     84  CB       -12.6820   46.8400   12.7000 C.3    77  MET77       0.0427
     85  CG       -13.9720   46.3250   12.1130 C.3    77  MET77       0.0599
     86  SD       -15.0030   45.5610   13.3700 S.3    77  MET77      -0.1393
     87  CE       -14.2180   43.9570   13.5130 C.3    77  MET77       0.0692
     88  N        -11.7420   48.7060   15.6260 N.am   78  GLU78      -0.1977
     89  CA       -10.6280   49.1140   16.4790 C.3    78  GLU78       0.1602
     90  C         -9.4190   48.1800   16.3780 C.2    78  GLU78       0.2287
     91  O         -8.2770   48.6300   16.4220 O.2    78  GLU78      -0.2864
     92  CB       -11.0900   49.2020   17.9380 C.3    78  GLU78       0.0415
     93  CG       -12.4230   49.9220   18.1490 C.3    78  GLU78       0.1163
     94  CD       -12.2900   51.4340   18.1760 C.2    78  GLU78       0.3649
     95  OE1      -11.1460   51.9340   18.1980 O.co2  78  GLU78      -0.2457
     96  OE2      -13.3320   52.1240   18.1820 O.co2  78  GLU78      -0.2457
     97  N         -8.1800   46.4900   13.9230 N.3    80  GLY80      -0.1210
     98  CA        -7.4030   46.5300   12.6990 C.3    80  GLY80       0.1956
     99  C         -7.4210   45.2030   11.9620 C.2    80  GLY80       0.2611
    100  O         -8.2990   44.3660   12.1930 O.2    80  GLY80      -0.2717
    101  N         -6.4450   45.0110   11.0780 N.am   81  GLU81      -0.1979
    102  CA        -6.3750   43.8160   10.2430 C.3    81  GLU81       0.1602
    103  C         -5.6600   42.6810   10.9570 C.2    81  GLU81       0.2287
    104  O         -4.6720   42.9000   11.6510 O.2    81  GLU81      -0.2864
    105  CB        -5.6520   44.1230    8.9300 C.3    81  GLU81       0.0415
    106  CG        -6.2830   45.2410    8.1170 C.3    81  GLU81       0.1163
    107  CD        -5.4080   45.6970    6.9580 C.2    81  GLU81       0.3649
    108  OE1       -4.2880   45.1550    6.7980 O.co2  81  GLU81      -0.2457
    109  OE2       -5.8450   46.6030    6.2110 O.co2  81  GLU81      -0.2457
    110  N         -5.5370   40.1160    5.3850 N.3   124  GLU124     -0.1231
    111  CA        -5.7530   41.5330    5.1150 C.3   124  GLU124      0.1699
    112  C         -7.2410   41.9030    5.1380 C.2   124  GLU124      0.2592
    113  O         -7.5940   43.0650    5.3400 O.2   124  GLU124     -0.2718
    114  CB        -5.1250   41.9300    3.7710 C.3   124  GLU124      0.0402
    115  CG        -3.6000   41.7970    3.6920 C.3   124  GLU124      0.1161
    116  CD        -3.1340   40.3870    3.3480 C.2   124  GLU124      0.3649
    117  OE1       -3.6770   39.4170    3.9180 O.co2 124  GLU124     -0.2457
    118  OE2       -2.2180   40.2480    2.5090 O.co2 124  GLU124     -0.2457
    119  N         -8.1080   40.9130    4.9310 N.am  125  ASN125     -0.1974
    120  CA        -9.5520   41.1470    4.8650 C.3   125  ASN125      0.1688
    121  C        -10.2980   40.6410    6.0890 C.2   125  ASN125      0.2292
    122  O        -11.5270   40.5810    6.0980 O.2   125  ASN125     -0.2864
    123  CB       -10.1550   40.5090    3.6140 C.3   125  ASN125      0.1181
    124  CG        -9.6450   41.1300    2.3410 C.2   125  ASN125      0.2629
    125  OD1       -9.3830   42.3300    2.2860 O.2   125  ASN125     -0.2716
    126  ND2       -9.4960   40.3130    1.3040 N.am  125  ASN125     -0.0877
    127  N        -10.9140   41.6270    9.8960 N.3   127  LEU127     -0.1245
    128  CA       -10.7690   42.7560   10.8070 C.3   127  LEU127      0.1561
    129  C        -11.1160   42.3780   12.2390 C.2   127  LEU127      0.2260
    130  O        -12.0600   41.6280   12.4800 O.2   127  LEU127     -0.2867
    131  CB       -11.6540   43.9130   10.3540 C.3   127  LEU127      0.0270
    132  CG       -11.4040   44.3910    8.9270 C.3   127  LEU127      0.0019
    133  CD1      -12.3270   45.5460    8.5680 C.3   127  LEU127      0.0001
    134  CD2       -9.9550   44.7910    8.7690 C.3   127  LEU127      0.0001
    135  N         -8.5590   46.2090   20.2320 N.3   131  GLN131     -0.1245
    136  CA        -7.1390   46.0400   20.4850 C.3   131  GLN131      0.1566
    137  C         -6.9010   44.8780   21.4530 C.2   131  GLN131      0.2260
    138  O         -5.7700   44.4330   21.6390 O.2   131  GLN131     -0.2867
    139  CB        -6.5360   47.3440   21.0210 C.3   131  GLN131      0.0367
    140  CG        -6.5260   48.4290   19.9610 C.3   131  GLN131      0.0905
    141  CD        -5.5650   48.1280   18.8280 C.2   131  GLN131      0.2608
    142  OE1       -4.5040   47.5250   19.0330 O.2   131  GLN131     -0.2717
    143  NE2       -5.9020   48.5440   17.6650 N.am  131  GLN131     -0.0878
    144  N        -14.4340   41.2170    5.4460 N.3   140  THR140     -0.1203
    145  CA       -14.6590   42.3870    4.6120 C.3   140  THR140      0.1994
    146  C        -14.1090   42.2180    3.2000 C.2   140  THR140      0.2617
    147  O        -13.5660   41.1730    2.8530 O.2   140  THR140     -0.2717
    148  CB       -14.0440   43.6440    5.2450 C.3   140  THR140      0.1784
    149  OG1      -14.3130   44.7760    4.4120 O.3   140  THR140     -0.2211
    150  CG2      -12.5420   43.4800    5.3950 C.3   140  THR140      0.0376
    151  N        -14.2590   43.2680    2.3980 N.am  141  ASP141     -0.1973
    152  CA       -13.8250   43.2800    1.0010 C.3   141  ASP141      0.1709
    153  C        -14.5270   42.2390    0.1360 C.2   141  ASP141      0.2293
    154  O        -13.9820   41.1700   -0.1380 O.2   141  ASP141     -0.2864
    155  CB       -12.3100   43.1250    0.8770 C.3   141  ASP141      0.1436
    156  CG       -11.8290   43.3470   -0.5370 C.2   141  ASP141      0.3671
    157  OD1      -12.5940   43.9410   -1.3290 O.co2 141  ASP141     -0.2456
    158  OD2      -10.6940   42.9370   -0.8600 O.co2 141  ASP141     -0.2456
@<TRIPOS>BOND
     1   157   156   ar
     2   158   156   ar
     3   156   155    1
     4   154   153    2
     5    41    40    2
     6    46    45    1
     7    45    44    1
     8   153   152    1
     9    40    39    1
    10   155   152    1
    11    43    44    1
    12    43    42    1
    13   152   151    1
    14   126   124   am
    15    42    39    1
    16    39    38    1
    17   125   124    2
    18   124   123    1
    19   151   146   am
    20   118   116   ar
    21     9    10    1
    22   147   146    2
    23   146   145    1
    24   116   115    1
    25   116   117   ar
    26   123   120    1
    27   115   114    1
    28    10    13    1
    29    10    11    1
    30   114   111    1
    31    15    13    1
    32   149   148    1
    33    61    60    1
    34    13    14    1
    35    62    60    1
    36   145   148    1
    37   145   144    1
    38    11    12    2
    39   120   119    1
    40   120   121    1
    41   119   112   am
    42    60    59    1
    43   111   112    1
    44   111   110    1
    45   112   113    2
    46   148   150    1
    47    53    51    1
    48   121   122    2
    49    55    56    1
    50   109   107   ar
    51    36    35    2
    52    59    56    1
    53    50    49    2
    54     3     4    2
    55     3     2    1
    56     1     2    1
    57   108   107   ar
    58    35    34    1
    59   107   106    1
    60    56    57    1
    61    51    52    1
    62    51    48    1
    63     2     5    1
    64    49    48    1
    65    52    54    1
    66    16    17    1
    67   106   105    1
    68    47    48    1
    69    34    37    1
    70    34    33    1
    71     5     6    1
    72    57    58    2
    73    57    63   am
    74   133   132    1
    75    19    18    2
    76   134   132    1
    77   132   131    1
    78   105   102    1
    79    18    17    1
    80     6     7    1
    81     6     8    1
    82    17    20    1
    83    63    64    1
    84   127   128    1
    85   102   103    1
    86   102   101    1
    87    66    65    2
    88   131   128    1
    89    20    21    1
    90    64    65    1
    91    64    67    1
    92    68    67    1
    93    68    69    1
    94   128   129    1
    95   103   104    2
    96    65    72   am
    97   101    99   am
    98    71    69   ar
    99    69    70   ar
   100    21    22    1
   101    21    23    1
   102    78    77    1
   103    72    73    1
   104    99   100    2
   105    99    98    1
   106    85    84    1
   107    85    86    1
   108    73    76    1
   109    73    74    1
   110   129   130    2
   111    98    97    1
   112    84    81    1
   113    76    77    1
   114    80    74   am
   115    80    81    1
   116    77    79    1
   117    74    75    2
   118    26    27    2
   119    26    25    1
   120    86    87    1
   121    81    82    1
   122    83    82    2
   123    25    28    1
   124    25    24    1
   125    82    88   am
   126    28    29    1
   127    88    89    1
   128    29    30    1
   129    90    91    2
   130    90    89    1
   131    89    92    1
   132    30    31    1
   133   143   141   am
   134    31    32    1
   135    92    93    1
   136    93    94    1
   137    94    96   ar
   138    94    95   ar
   139   141   142    2
   140   141   140    1
   141   140   139    1
   142   135   136    1
   143   136   139    1
   144   136   137    1
   145   137   138    2
