@<TRIPOS>MOLECULE
tmp/4a9tA00.pdb
 179 165 0 0 0
SMALL
GASTEIGER

@<TRIPOS>ATOM
      1  N          7.0130  -60.6450    9.3990 N.3    16  LYS16      -0.1245
      2  CA         5.8000  -59.9230    9.0190 C.3    16  LYS16       0.1561
      3  C          6.0490  -58.6890    8.1570 C.2    16  LYS16       0.2260
      4  O          7.1490  -58.1380    8.1330 O.2    16  LYS16      -0.2867
      5  CB         5.0030  -59.5240   10.2660 C.3    16  LYS16       0.0271
      6  CG         5.8080  -58.7490   11.2970 C.3    16  LYS16       0.0035
      7  CD         4.9060  -58.0380   12.2930 C.3    16  LYS16       0.0206
      8  CE         5.7180  -57.3690   13.3930 C.3    16  LYS16       0.1093
      9  NZ         4.8930  -56.4210   14.1920 N.3    16  LYS16      -0.1314
     10  N          5.6860  -54.8110    7.4760 N.3    18  LEU18      -0.1231
     11  CA         5.5850  -53.6120    8.2980 C.3    18  LEU18       0.1693
     12  C          4.8640  -52.5020    7.5320 C.2    18  LEU18       0.2592
     13  O          4.0610  -51.7580    8.0990 O.2    18  LEU18      -0.2718
     14  CB         6.9740  -53.1530    8.7470 C.3    18  LEU18       0.0284
     15  CG         7.7470  -54.1450    9.6260 C.3    18  LEU18       0.0019
     16  CD1        9.2190  -53.7740    9.7190 C.3    18  LEU18       0.0001
     17  CD2        7.1260  -54.2640   11.0170 C.3    18  LEU18       0.0001
     18  N          5.1560  -52.4080    6.2380 N.am   19  GLY19      -0.1957
     19  CA         4.4920  -51.4650    5.3540 C.3    19  GLY19       0.1869
     20  C          4.3010  -52.0370    3.9570 C.2    19  GLY19       0.2309
     21  O          5.1140  -52.8370    3.4910 O.2    19  GLY19      -0.2863
     22  N          7.5420  -49.1720   -1.6010 N.3    21  GLY21      -0.1225
     23  CA         7.4230  -50.5330   -2.0950 C.3    21  GLY21       0.1811
     24  C          6.8100  -51.4570   -1.0600 C.2    21  GLY21       0.2280
     25  O          5.6170  -51.3710   -0.7670 O.2    21  GLY21      -0.2866
     26  N          7.9830  -53.3230    2.9090 N.3    23  VAL23      -0.1245
     27  CA         8.9700  -53.4380    3.9710 C.3    23  VAL23       0.1561
     28  C          8.6230  -54.5780    4.9160 C.2    23  VAL23       0.2260
     29  O          7.5050  -54.6580    5.4230 O.2    23  VAL23      -0.2867
     30  CB         9.0820  -52.1260    4.7740 C.3    23  VAL23       0.0252
     31  CG1       10.0740  -52.2820    5.9070 C.3    23  VAL23       0.0019
     32  CG2        9.4960  -50.9780    3.8610 C.3    23  VAL23       0.0019
     33  N         14.9780  -54.1010    9.2520 N.3    36  ALA36      -0.1245
     34  CA        13.9130  -53.8620    8.2830 C.3    36  ALA36       0.1562
     35  C         14.4540  -54.0810    6.8780 C.2    36  ALA36       0.2260
     36  O         15.5000  -53.5430    6.5200 O.2    36  ALA36      -0.2867
     37  CB        13.3520  -52.4540    8.4290 C.3    36  ALA36       0.0290
     38  N         13.6360  -53.6040    2.9420 N.3    38  LYS38      -0.1245
     39  CA        12.7950  -53.0470    1.8890 C.3    38  LYS38       0.1561
     40  C         12.9260  -53.8450    0.5970 C.2    38  LYS38       0.2260
     41  O         14.0320  -54.1170    0.1190 O.2    38  LYS38      -0.2867
     42  CB        13.1070  -51.5710    1.6360 C.3    38  LYS38       0.0271
     43  CG        12.0700  -50.8810    0.7600 C.3    38  LYS38       0.0035
     44  CD        12.2410  -49.3650    0.7510 C.3    38  LYS38       0.0206
     45  CE        13.3010  -48.9180   -0.2420 C.3    38  LYS38       0.1093
     46  NZ        13.5430  -47.4470   -0.1720 N.3    38  LYS38      -0.1314
     47  N         20.2560  -44.9730   -4.6720 N.3    50  GLU50      -0.1245
     48  CA        19.8090  -45.0250   -3.2840 C.3    50  GLU50       0.1567
     49  C         20.8410  -45.7610   -2.4340 C.2    50  GLU50       0.2260
     50  O         21.1620  -45.3380   -1.3210 O.2    50  GLU50      -0.2867
     51  CB        18.4350  -45.6860   -3.1430 C.3    50  GLU50       0.0388
     52  CG        17.9700  -45.8020   -1.6870 C.3    50  GLU50       0.1160
     53  CD        16.5130  -46.2080   -1.5520 C.2    50  GLU50       0.3649
     54  OE1       15.9300  -46.6800   -2.5500 O.co2  50  GLU50      -0.2457
     55  OE2       15.9470  -46.0540   -0.4450 O.co2  50  GLU50      -0.2457
     56  N         18.7240  -42.8520    8.0290 N.3    63  ILE63      -0.1245
     57  CA        18.7790  -44.3060    8.1720 C.3    63  ILE63       0.1561
     58  C         19.9970  -44.9300    7.4840 C.2    63  ILE63       0.2260
     59  O         20.4660  -44.4400    6.4550 O.2    63  ILE63      -0.2867
     60  CB        17.4950  -44.9750    7.6510 C.3    63  ILE63       0.0252
     61  CG1       17.3200  -46.3490    8.2990 C.3    63  ILE63       0.0019
     62  CG2       17.5130  -45.0600    6.1310 C.3    63  ILE63       0.0019
     63  CD1       15.9960  -46.9950    7.9980 C.3    63  ILE63       0.0001
     64  N         17.9760  -52.5520    6.1070 N.3    78  LEU78      -0.1231
     65  CA        18.1440  -51.3120    6.8580 C.3    78  LEU78       0.1693
     66  C         17.9080  -51.4950    8.3540 C.2    78  LEU78       0.2592
     67  O         17.3930  -52.5260    8.7980 O.2    78  LEU78      -0.2718
     68  CB        17.1750  -50.2530    6.3340 C.3    78  LEU78       0.0284
     69  CG        17.1420  -50.0450    4.8210 C.3    78  LEU78       0.0019
     70  CD1       15.7170  -49.8160    4.3620 C.3    78  LEU78       0.0001
     71  CD2       18.0510  -48.8960    4.3950 C.3    78  LEU78       0.0001
     72  N         18.2860  -50.4790    9.1230 N.am   79  GLU79      -0.1966
     73  CA        17.9800  -50.4420   10.5450 C.3    79  GLU79       0.1733
     74  C         16.4750  -50.4770   10.7360 C.2    79  GLU79       0.2616
     75  O         15.7350  -49.8970    9.9470 O.2    79  GLU79      -0.2715
     76  CB        18.5200  -49.1580   11.1700 C.3    79  GLU79       0.0429
     77  CG        20.0260  -49.0080   11.1270 C.3    79  GLU79       0.1163
     78  CD        20.4710  -47.6320   11.5790 C.2    79  GLU79       0.3649
     79  OE1       19.9870  -46.6390   10.9870 O.co2  79  GLU79      -0.2457
     80  OE2       21.2970  -47.5460   12.5200 O.co2  79  GLU79      -0.2457
     81  N         16.0180  -51.1500   11.7840 N.am   80  LEU80      -0.1963
     82  CA        14.5970  -51.1560   12.1090 C.3    80  LEU80       0.1728
     83  C         14.2260  -49.9870   13.0140 C.2    80  LEU80       0.2616
     84  O         14.7880  -49.8280   14.1000 O.2    80  LEU80      -0.2715
     85  CB        14.1940  -52.4610   12.7890 C.3    80  LEU80       0.0311
     86  CG        12.7420  -52.4690   13.2720 C.3    80  LEU80       0.0022
     87  CD1       11.7880  -52.3310   12.0840 C.3    80  LEU80       0.0001
     88  CD2       12.4340  -53.7250   14.0810 C.3    80  LEU80       0.0001
     89  N         13.2820  -49.1710   12.5550 N.am   81  MET81      -0.1963
     90  CA        12.7230  -48.0930   13.3610 C.3    81  MET81       0.1736
     91  C         11.4020  -48.5600   13.9550 C.2    81  MET81       0.2616
     92  O         10.4050  -48.7070   13.2470 O.2    81  MET81      -0.2715
     93  CB        12.5180  -46.8350   12.5170 C.3    81  MET81       0.0427
     94  CG        13.8060  -46.2380   12.0060 C.3    81  MET81       0.0599
     95  SD        14.8910  -45.6680   13.3300 S.3    81  MET81      -0.1393
     96  CE        14.2650  -44.0100   13.5830 C.3    81  MET81       0.0692
     97  N         11.4060  -48.7900   15.2620 N.am   82  GLU82      -0.1963
     98  CA        10.2760  -49.4170   15.9410 C.3    82  GLU82       0.1733
     99  C          9.0550  -48.5050   16.0790 C.2    82  GLU82       0.2617
    100  O          7.9510  -48.9800   16.3400 O.2    82  GLU82      -0.2715
    101  CB        10.7200  -49.9430   17.3090 C.3    82  GLU82       0.0429
    102  CG        12.0890  -50.6210   17.2740 C.3    82  GLU82       0.1163
    103  CD        12.3060  -51.5840   18.4240 C.2    82  GLU82       0.3649
    104  OE1       12.1960  -51.1570   19.5960 O.co2  82  GLU82      -0.2457
    105  OE2       12.5820  -52.7740   18.1520 O.co2  82  GLU82      -0.2457
    106  N          9.2500  -47.2030   15.8980 N.am   83  GLY83      -0.1940
    107  CA         8.1510  -46.2580   15.9850 C.3    83  GLY83       0.2014
    108  C          7.2830  -46.2630   14.7410 C.2    83  GLY83       0.2639
    109  O          6.1390  -45.8000   14.7550 O.2    83  GLY83      -0.2714
    110  N          7.8310  -46.7920   13.6530 N.am   84  GLY84      -0.1939
    111  CA         7.1230  -46.8090   12.3910 C.3    84  GLY84       0.2014
    112  C          7.1610  -45.4440   11.7330 C.2    84  GLY84       0.2638
    113  O          8.0170  -44.6140   12.0460 O.2    84  GLY84      -0.2714
    114  N          6.2180  -45.2040   10.8280 N.am   85  GLU85      -0.1977
    115  CA         6.2030  -43.9670   10.0610 C.3    85  GLU85       0.1602
    116  C          5.4800  -42.8250   10.7700 C.2    85  GLU85       0.2287
    117  O          4.4500  -43.0220   11.4190 O.2    85  GLU85      -0.2864
    118  CB         5.5860  -44.2080    8.6860 C.3    85  GLU85       0.0415
    119  CG         6.3620  -45.2010    7.8440 C.3    85  GLU85       0.1163
    120  CD         5.5090  -45.8590    6.7690 C.2    85  GLU85       0.3649
    121  OE1        4.3850  -45.3630    6.4980 O.co2  85  GLU85      -0.2457
    122  OE2        5.9680  -46.8790    6.2020 O.co2  85  GLU85      -0.2457
    123  N          1.6060  -42.3220   10.3030 N.3    88  ASP88      -0.1239
    124  CA         0.5570  -42.9190   11.1230 C.3    88  ASP88       0.1674
    125  C          0.2930  -42.1190   12.3960 C.2    88  ASP88       0.2266
    126  O         -0.6400  -42.4160   13.1430 O.2    88  ASP88      -0.2867
    127  CB         0.8780  -44.3800   11.4490 C.3    88  ASP88       0.1410
    128  CG         0.8760  -45.2660   10.2120 C.2    88  ASP88       0.3668
    129  OD1       -0.2210  -45.6570    9.7580 O.co2  88  ASP88      -0.2456
    130  OD2        1.9710  -45.5680    9.6910 O.co2  88  ASP88      -0.2456
    131  N          5.4800  -40.2900    5.4150 N.3   128  GLU128     -0.1231
    132  CA         5.7640  -41.7220    5.2990 C.3   128  GLU128      0.1699
    133  C          7.2500  -42.0510    5.0850 C.2   128  GLU128      0.2592
    134  O          7.6410  -43.2200    5.1260 O.2   128  GLU128     -0.2718
    135  CB         4.8690  -42.4160    4.2510 C.3   128  GLU128      0.0402
    136  CG         4.5280  -41.5930    3.0200 C.3   128  GLU128      0.1161
    137  CD         3.3180  -40.6950    3.2220 C.2   128  GLU128      0.3649
    138  OE1        3.4840  -39.5720    3.7420 O.co2 128  GLU128     -0.2457
    139  OE2        2.1990  -41.1090    2.8530 O.co2 128  GLU128     -0.2457
    140  N          8.0730  -41.0240    4.8730 N.am  129  ASN129     -0.1974
    141  CA         9.5240  -41.2020    4.7670 C.3   129  ASN129      0.1688
    142  C         10.2650  -40.7210    6.0130 C.2   129  ASN129      0.2292
    143  O         11.4950  -40.7120    6.0560 O.2   129  ASN129     -0.2864
    144  CB        10.0810  -40.5100    3.5200 C.3   129  ASN129      0.1181
    145  CG         9.7040  -41.2260    2.2420 C.2   129  ASN129      0.2629
    146  OD1        9.5110  -42.4410    2.2350 O.2   129  ASN129     -0.2716
    147  ND2        9.5930  -40.4760    1.1520 N.am  129  ASN129     -0.0877
    148  N         10.7510  -41.7570    9.8850 N.3   131  LEU131     -0.1245
    149  CA        10.5540  -42.9080   10.7610 C.3   131  LEU131      0.1561
    150  C         10.8870  -42.5720   12.2060 C.2   131  LEU131      0.2260
    151  O         11.8520  -41.8590   12.4760 O.2   131  LEU131     -0.2867
    152  CB        11.4240  -44.0780   10.3030 C.3   131  LEU131      0.0270
    153  CG        11.3640  -44.4580    8.8230 C.3   131  LEU131      0.0019
    154  CD1       12.4730  -45.4380    8.4790 C.3   131  LEU131      0.0001
    155  CD2       10.0170  -45.0380    8.4730 C.3   131  LEU131      0.0001
    156  N          8.2140  -46.3000   20.2580 N.3   135  GLN135     -0.1245
    157  CA         6.7950  -46.0630   20.4690 C.3   135  GLN135      0.1566
    158  C          6.5700  -44.9040   21.4450 C.2   135  GLN135      0.2260
    159  O          5.4410  -44.4390   21.6290 O.2   135  GLN135     -0.2867
    160  CB         6.1130  -47.3440   20.9570 C.3   135  GLN135      0.0367
    161  CG         6.4780  -48.5930   20.2300 C.3   135  GLN135      0.0905
    162  CD         5.5660  -48.8670   19.0910 C.2   135  GLN135      0.2608
    163  OE1        4.5030  -48.2590   18.9240 O.2   135  GLN135     -0.2717
    164  NE2        5.8690  -49.8550   18.2800 N.am  135  GLN135     -0.0878
    165  N         14.3410  -41.4950    5.4470 N.3   144  THR144     -0.1203
    166  CA        14.5770  -42.6460    4.5870 C.3   144  THR144      0.1994
    167  C         14.0470  -42.4310    3.1600 C.2   144  THR144      0.2617
    168  O         13.4230  -41.4100    2.8600 O.2   144  THR144     -0.2717
    169  CB        13.9550  -43.9330    5.1890 C.3   144  THR144      0.1784
    170  OG1       14.2370  -45.0540    4.3390 O.3   144  THR144     -0.2211
    171  CG2       12.4480  -43.7850    5.3470 C.3   144  THR144      0.0376
    172  N         14.3240  -43.4030    2.2930 N.am  145  ASP145     -0.1973
    173  CA        13.8220  -43.4340    0.9140 C.3   145  ASP145      0.1709
    174  C         14.5000  -42.4340   -0.0200 C.2   145  ASP145      0.2293
    175  O         13.9640  -41.3590   -0.2990 O.2   145  ASP145     -0.2864
    176  CB        12.3040  -43.2630    0.8630 C.3   145  ASP145      0.1436
    177  CG        11.7130  -43.7700   -0.4340 C.2   145  ASP145      0.3671
    178  OD1       12.5000  -44.0530   -1.3640 O.co2 145  ASP145     -0.2456
    179  OD2       10.4720  -43.8870   -0.5260 O.co2 145  ASP145     -0.2456
@<TRIPOS>BOND
     1    47    48    1
     2    48    51    1
     3    48    49    1
     4    51    52    1
     5    54    53   ar
     6    49    50    2
     7    23    22    1
     8    23    24    1
     9    52    53    1
    10    53    55   ar
    11   178   177   ar
    12    24    25    2
    13   179   177   ar
    14   177   176    1
    15   175   174    2
    16    45    46    1
    17    45    44    1
    18   174   173    1
    19    41    40    2
    20    40    39    1
    21    44    43    1
    22    43    42    1
    23   176   173    1
    24   173   172    1
    25   147   145   am
    26    42    39    1
    27    39    38    1
    28   146   145    2
    29   145   144    1
    30   172   167   am
    31   139   137   ar
    32   168   167    2
    33    26    27    1
    34   136   137    1
    35   136   135    1
    36   167   166    1
    37   137   138   ar
    38    21    20    2
    39   144   141    1
    40    32    30    1
    41    20    19    1
    42    27    30    1
    43    27    28    1
    44   135   132    1
    45   170   169    1
    46    70    69    1
    47    71    69    1
    48   166   169    1
    49   166   165    1
    50   141   140    1
    51   141   142    1
    52    30    31    1
    53    69    68    1
    54   140   133   am
    55    28    29    2
    56   133   134    2
    57   133   132    1
    58   169   171    1
    59   132   131    1
    60    19    18    1
    61   142   143    2
    62    64    65    1
    63    62    60    1
    64   122   120   ar
    65    18    12   am
    66    68    65    1
    67    59    58    2
    68   121   120   ar
    69    36    35    2
    70   120   119    1
    71    65    66    1
    72    35    34    1
    73    10    11    1
    74    58    57    1
    75    12    13    2
    76    12    11    1
    77    60    57    1
    78    60    61    1
    79   119   118    1
    80    63    61    1
    81    56    57    1
    82     4     3    2
    83     3     2    1
    84    34    37    1
    85    34    33    1
    86    11    14    1
    87    66    67    2
    88    66    72   am
    89   155   153    1
    90   154   153    1
    91   118   115    1
    92    14    15    1
    93   153   152    1
    94     2     1    1
    95     2     5    1
    96    72    73    1
    97    15    16    1
    98    15    17    1
    99   130   128   ar
   100   129   128   ar
   101   148   149    1
   102    75    74    2
   103   115   116    1
   104   115   114    1
   105   128   127    1
   106     5     6    1
   107   123   124    1
   108   152   149    1
   109    73    74    1
   110    73    76    1
   111    74    81   am
   112   149   150    1
   113   116   117    2
   114   114   112   am
   115    79    78   ar
   116   124   127    1
   117   124   125    1
   118    77    76    1
   119    77    78    1
   120     6     7    1
   121    78    80   ar
   122   112   113    2
   123   112   111    1
   124    81    82    1
   125    94    93    1
   126    94    95    1
   127    87    86    1
   128    82    85    1
   129    82    83    1
   130   150   151    2
   131     7     8    1
   132   111   110    1
   133   125   126    2
   134    93    90    1
   135    89    83   am
   136    89    90    1
   137    85    86    1
   138    83    84    2
   139    92    91    2
   140    86    88    1
   141    95    96    1
   142    90    91    1
   143     8     9    1
   144   110   108   am
   145    91    97   am
   146   108   109    2
   147   108   107    1
   148    97    98    1
   149   106   107    1
   150   106    99   am
   151    98    99    1
   152    98   101    1
   153    99   100    2
   154   102   101    1
   155   102   103    1
   156   105   103   ar
   157   164   162   am
   158   103   104   ar
   159   163   162    2
   160   162   161    1
   161   161   160    1
   162   156   157    1
   163   157   160    1
   164   157   158    1
   165   158   159    2
