@<TRIPOS>MOLECULE
tmp/4aa0A00.pdb
 214 202 0 0 0
SMALL
GASTEIGER

@<TRIPOS>ATOM
      1  N         -9.7620    2.4310   28.4440 N.3    26  VAL26      -0.1231
      2  CA        -8.3500    2.1620   28.7910 C.3    26  VAL26       0.1692
      3  C         -7.3870    3.3480   28.6530 C.2    26  VAL26       0.2593
      4  O         -6.1780    3.1910   28.8770 O.2    26  VAL26      -0.2718
      5  CB        -7.7600    0.9290   28.0520 C.3    26  VAL26       0.0266
      6  CG1       -8.3380   -0.3670   28.5930 C.3    26  VAL26       0.0020
      7  CG2       -7.9270    1.0220   26.5310 C.3    26  VAL26       0.0020
      8  N         -7.9030    4.5260   28.2800 N.am   27  GLY27      -0.1942
      9  CA        -7.0600    5.7390   28.1520 C.3    27  GLY27       0.2014
     10  C         -6.9470    6.3070   26.7350 C.2    27  GLY27       0.2640
     11  O         -7.7610    5.9780   25.8710 O.2    27  GLY27      -0.2714
     12  N         -5.9460    7.1560   26.4950 N.am   28  SER28      -0.1935
     13  CA        -5.8040    7.8430   25.1860 C.3    28  SER28       0.2055
     14  C         -4.7710    7.2160   24.2570 C.2    28  SER28       0.2644
     15  O         -3.6470    6.8890   24.6750 O.2    28  SER28      -0.2714
     16  CB        -5.4030    9.3320   25.3300 C.3    28  SER28       0.2130
     17  OG        -5.7050    9.8780   26.6000 O.3    28  SER28      -0.2179
     18  N         -5.1130    7.1360   22.9750 N.am   29  GLY29      -0.1939
     19  CA        -4.1400    6.7260   21.9530 C.3    29  GLY29       0.2014
     20  C         -3.7390    7.9170   21.0890 C.2    29  GLY29       0.2638
     21  O         -3.9070    9.0800   21.5000 O.2    29  GLY29      -0.2714
     22  N         -3.2080    7.6480   19.8990 N.am   30  ALA30      -0.1977
     23  CA        -2.8560    8.7390   18.9990 C.3    30  ALA30       0.1597
     24  C         -4.1340    9.3640   18.4010 C.2    30  ALA30       0.2287
     25  O         -4.8630    8.7050   17.6410 O.2    30  ALA30      -0.2864
     26  CB        -1.8740    8.3030   17.9100 C.3    30  ALA30       0.0319
     27  N         -9.4700    5.2750   23.7060 N.3    34  VAL34      -0.1245
     28  CA        -9.4620    3.8360   23.4310 C.3    34  VAL34       0.1561
     29  C        -10.2460    3.0160   24.4730 C.2    34  VAL34       0.2260
     30  O        -10.1440    3.2690   25.6760 O.2    34  VAL34      -0.2867
     31  CB        -8.0050    3.3070   23.3050 C.3    34  VAL34       0.0252
     32  CG1       -7.9770    1.8180   22.9820 C.3    34  VAL34       0.0019
     33  CG2       -7.2210    4.0920   22.2440 C.3    34  VAL34       0.0019
     34  N         -8.8870   -3.8060   20.8380 N.3    47  ALA47      -0.1231
     35  CA        -8.8360   -2.4090   21.2380 C.3    47  ALA47       0.1694
     36  C         -9.5950   -1.5940   20.1730 C.2    47  ALA47       0.2592
     37  O         -9.4220   -1.8290   18.9850 O.2    47  ALA47      -0.2718
     38  CB        -7.3860   -1.9540   21.3470 C.3    47  ALA47       0.0304
     39  N        -10.4750   -0.6980   20.6140 N.am   48  VAL48      -0.1966
     40  CA       -11.2570    0.1470   19.7060 C.3    48  VAL48       0.1727
     41  C        -10.8820    1.5980   20.0100 C.2    48  VAL48       0.2616
     42  O        -10.9740    2.0140   21.1730 O.2    48  VAL48      -0.2715
     43  CB       -12.7850   -0.0540   19.8830 C.3    48  VAL48       0.0290
     44  CG1      -13.5510    0.7260   18.8190 C.3    48  VAL48       0.0023
     45  CG2      -13.1410   -1.5290   19.7600 C.3    48  VAL48       0.0023
     46  N        -10.4110    2.3280   18.9860 N.am   49  LYS49      -0.1977
     47  CA       -10.0740    3.7540   19.1210 C.3    49  LYS49       0.1596
     48  C        -11.0730    4.6170   18.3370 C.2    49  LYS49       0.2287
     49  O        -11.2380    4.4140   17.1400 O.2    49  LYS49      -0.2864
     50  CB        -8.6350    4.0760   18.6470 C.3    49  LYS49       0.0298
     51  CG        -8.3150    5.5910   18.7130 C.3    49  LYS49       0.0038
     52  CD        -6.8260    5.9040   18.5410 C.3    49  LYS49       0.0206
     53  CE        -6.3100    5.6290   17.1300 C.3    49  LYS49       0.1093
     54  NZ        -4.8660    6.0020   16.9040 N.3    49  LYS49      -0.1314
     55  N         -3.4410    8.0250    8.9270 N.3    67  GLU67      -0.1245
     56  CA        -3.4320    6.8580    9.8150 C.3    67  GLU67       0.1567
     57  C         -4.2060    5.6770    9.2260 C.2    67  GLU67       0.2260
     58  O         -3.7480    4.5410    9.2800 O.2    67  GLU67      -0.2867
     59  CB        -3.9220    7.2260   11.2500 C.3    67  GLU67       0.0388
     60  CG        -3.7570    6.0270   12.2180 C.3    67  GLU67       0.1160
     61  CD        -4.1620    6.2750   13.6740 C.2    67  GLU67       0.3649
     62  OE1       -4.5260    7.4010   14.0470 O.co2  67  GLU67      -0.2457
     63  OE2       -4.1090    5.3360   14.4890 O.co2  67  GLU67      -0.2457
     64  N         -2.1600    4.0870    6.3600 N.3    70  LEU70      -0.1231
     65  CA        -1.0130    3.3630    6.9190 C.3    70  LEU70       0.1693
     66  C         -1.3980    2.0050    7.5330 C.2    70  LEU70       0.2591
     67  O         -0.7860    0.9600    7.2030 O.2    70  LEU70      -0.2718
     68  CB        -0.2660    4.2390    7.9520 C.3    70  LEU70       0.0284
     69  CG         1.1580    3.9240    8.4030 C.3    70  LEU70       0.0019
     70  CD1        2.1040    4.4030    7.2910 C.3    70  LEU70       0.0001
     71  CD2        1.5010    4.6290    9.7190 C.3    70  LEU70       0.0001
     72  N         -2.3850    2.0290    8.4340 N.am   71  LEU71      -0.1980
     73  CA        -2.8720    0.8160    9.1190 C.3    71  LEU71       0.1596
     74  C         -3.4280   -0.2120    8.1060 C.2    71  LEU71       0.2287
     75  O         -3.2160   -1.4240    8.2690 O.2    71  LEU71      -0.2864
     76  CB        -3.9220    1.1430   10.1970 C.3    71  LEU71       0.0297
     77  CG        -3.4530    1.9250   11.4450 C.3    71  LEU71       0.0022
     78  CD1       -4.6260    2.2070   12.3840 C.3    71  LEU71       0.0001
     79  CD2       -2.3380    1.2050   12.1790 C.3    71  LEU71       0.0001
     80  N         -0.1070   -2.0430    6.5620 N.3    74  MET74      -0.1245
     81  CA         0.9560   -2.7310    7.2990 C.3    74  MET74       0.1570
     82  C          0.4790   -4.1310    7.6830 C.2    74  MET74       0.2261
     83  O         -0.4950   -4.2460    8.4440 O.2    74  MET74      -0.2867
     84  CB         1.4200   -1.8710    8.5140 C.3    74  MET74       0.0387
     85  CG         2.4780   -0.8110    8.1150 C.3    74  MET74       0.0595
     86  SD         2.8480    0.4720    9.3230 S.3    74  MET74      -0.1393
     87  CE         1.3260    0.5800   10.2630 C.3    74  MET74       0.0692
     88  N          4.4810   -5.7330   13.6100 N.3    79  VAL79      -0.1231
     89  CA         3.9190   -4.3630   13.3850 C.3    79  VAL79       0.1692
     90  C          2.3980   -4.4560   13.5730 C.2    79  VAL79       0.2591
     91  O          1.7840   -5.4000   13.0890 O.2    79  VAL79      -0.2718
     92  CB         4.1820   -3.8370   11.9350 C.3    79  VAL79       0.0266
     93  CG1        3.6620   -2.3800   11.7760 C.3    79  VAL79       0.0020
     94  CG2        5.6740   -3.9020   11.5710 C.3    79  VAL79       0.0020
     95  N          1.7950   -3.4700   14.2500 N.am   80  ILE80      -0.1980
     96  CA         0.3370   -3.4210   14.4490 C.3    80  ILE80       0.1595
     97  C         -0.3770   -3.4010   13.0800 C.2    80  ILE80       0.2287
     98  O          0.0670   -2.7170   12.1320 O.2    80  ILE80      -0.2864
     99  CB        -0.0470   -2.2500   15.4050 C.3    80  ILE80       0.0276
    100  CG1       -1.4360   -2.4860   16.0570 C.3    80  ILE80       0.0022
    101  CG2        0.1810   -0.8910   14.7190 C.3    80  ILE80       0.0022
    102  CD1       -1.8660   -1.3480   16.9740 C.3    80  ILE80       0.0001
    103  N        -11.2770    2.7570   14.7290 N.3   100  LEU100     -0.1245
    104  CA       -10.2470    1.8150   14.2730 C.3   100  LEU100      0.1561
    105  C        -10.1000    0.6840   15.2760 C.2   100  LEU100      0.2260
    106  O         -9.9190    0.9480   16.4710 O.2   100  LEU100     -0.2867
    107  CB        -8.8950    2.5140   14.1220 C.3   100  LEU100      0.0270
    108  CG        -8.8230    3.7430   13.1950 C.3   100  LEU100      0.0019
    109  CD1       -7.5580    4.5820   13.3940 C.3   100  LEU100      0.0001
    110  CD2       -9.0070    3.3680   11.7130 C.3   100  LEU100      0.0001
    111  N         -8.0660   -2.9300   16.3990 N.3   102  THR102     -0.1218
    112  CA        -6.8300   -3.7700   16.3170 C.3   102  THR102      0.1862
    113  C         -6.8910   -4.8560   17.3950 C.2   102  THR102      0.2287
    114  O         -7.7670   -4.8140   18.3050 O.2   102  THR102     -0.2866
    115  CB        -5.5360   -2.9270   16.5620 C.3   102  THR102      0.1770
    116  OG1       -5.4100   -2.5640   17.9530 O.3   102  THR102     -0.2211
    117  CG2       -5.5130   -1.6270   15.7170 C.3   102  THR102      0.0375
    118  N         -5.8780   -6.4590   20.9010 N.3   104  LEU104     -0.1231
    119  CA        -5.6090   -5.7370   22.1580 C.3   104  LEU104      0.1693
    120  C         -4.1350   -5.8080   22.4950 C.2   104  LEU104      0.2592
    121  O         -3.6560   -6.8450   22.9500 O.2   104  LEU104     -0.2718
    122  CB        -6.4420   -6.2400   23.3500 C.3   104  LEU104      0.0284
    123  CG        -6.2130   -5.5370   24.7230 C.3   104  LEU104      0.0019
    124  CD1       -6.5610   -4.0380   24.7050 C.3   104  LEU104      0.0001
    125  CD2       -6.9900   -6.1950   25.8520 C.3   104  LEU104      0.0001
    126  N         -3.4410   -4.6840   22.3080 N.am  105  MET105     -0.1965
    127  CA        -1.9960   -4.6170   22.5160 C.3   105  MET105      0.1736
    128  C         -1.6770   -4.8060   23.9980 C.2   105  MET105      0.2617
    129  O         -2.4430   -4.3600   24.8690 O.2   105  MET105     -0.2715
    130  CB        -1.4330   -3.2750   22.0160 C.3   105  MET105      0.0427
    131  CG        -1.4240   -3.1000   20.4970 C.3   105  MET105      0.0599
    132  SD        -0.4240   -4.2850   19.5410 S.3   105  MET105     -0.1393
    133  CE        -1.6830   -5.4310   18.9590 C.3   105  MET105      0.0692
    134  N         -0.5510   -5.4560   24.2790 N.am  106  GLY106     -0.1955
    135  CA        -0.1880   -5.7800   25.6750 C.3   106  GLY106      0.1869
    136  C          0.4730   -4.6330   26.4280 C.2   106  GLY106      0.2309
    137  O          0.3780   -3.4690   26.0180 O.2   106  GLY106     -0.2863
    138  N          3.5880   -2.2870   27.5780 N.3   108  ASP108     -0.1239
    139  CA         4.7610   -1.8070   26.8300 C.3   108  ASP108      0.1674
    140  C          6.1050   -2.2760   27.4150 C.2   108  ASP108      0.2266
    141  O          6.1490   -2.9370   28.4760 O.2   108  ASP108     -0.2867
    142  CB         4.7150   -0.2810   26.6370 C.3   108  ASP108      0.1410
    143  CG         4.8740    0.4980   27.9360 C.2   108  ASP108      0.3668
    144  OD1        5.6430    0.0980   28.8230 O.co2 108  ASP108     -0.2456
    145  OD2        4.2240    1.5490   28.0530 O.co2 108  ASP108     -0.2456
    146  N          8.9070   -1.9780    7.5750 N.3   130  ILE130     -0.1245
    147  CA         8.3990   -0.6070    7.3210 C.3   130  ILE130      0.1561
    148  C          9.3600    0.2040    6.4360 C.2   130  ILE130      0.2260
    149  O          8.9150    0.8470    5.4830 O.2   130  ILE130     -0.2867
    150  CB         7.9220    0.1550    8.5780 C.3   130  ILE130      0.0252
    151  CG1        9.0070    0.3200    9.6300 C.3   130  ILE130      0.0019
    152  CG2        6.7290   -0.5730    9.2110 C.3   130  ILE130      0.0019
    153  CD1        8.7040    1.4930   10.5760 C.3   130  ILE130      0.0001
    154  N          8.5290    3.8960    4.8450 N.3   135  ILE135     -0.1231
    155  CA         7.7550    4.3590    5.9970 C.3   135  ILE135      0.1692
    156  C          8.7690    4.4830    7.1480 C.2   135  ILE135      0.2592
    157  O          9.4680    3.5010    7.4630 O.2   135  ILE135     -0.2718
    158  CB         6.6520    3.3260    6.3780 C.3   135  ILE135      0.0266
    159  CG1        5.5540    3.2420    5.2970 C.3   135  ILE135      0.0019
    160  CG2        6.0590    3.5860    7.7800 C.3   135  ILE135      0.0020
    161  CD1        4.7670    1.9270    5.3110 C.3   135  ILE135      0.0001
    162  N          8.8480    5.6690    7.7530 N.am  136  ILE136     -0.1966
    163  CA         9.7180    5.9220    8.9250 C.3   136  ILE136      0.1727
    164  C          8.8710    6.1890   10.1780 C.2   136  ILE136      0.2616
    165  O          7.9420    6.9980   10.1550 O.2   136  ILE136     -0.2715
    166  CB        10.6760    7.1140    8.6560 C.3   136  ILE136      0.0290
    167  CG1       11.4310    6.8720    7.3460 C.3   136  ILE136      0.0022
    168  CG2       11.6760    7.2550    9.8000 C.3   136  ILE136      0.0023
    169  CD1       12.1390    8.0770    6.7550 C.3   136  ILE136      0.0001
    170  N          9.1570    5.4730   11.2590 N.am  137  HIS137     -0.1973
    171  CA         8.3990    5.6680   12.5010 C.3   137  HIS137      0.1656
    172  C          8.6190    7.0410   13.1200 C.2   137  HIS137      0.2291
    173  O          7.6460    7.7900   13.3350 O.2   137  HIS137     -0.2864
    174  CB         8.7200    4.5420   13.5000 C.3   137  HIS137      0.0771
    175  CG         7.7980    4.5210   14.6910 C.ar  137  HIS137      0.0820
    176  ND1        7.8330    5.4610   15.6420 N.ar  137  HIS137     -0.2267
    177  CD2        6.7800    3.6200   15.0470 C.ar  137  HIS137      0.1154
    178  CE1        6.8820    5.1890   16.5770 C.ar  137  HIS137      0.1986
    179  NE2        6.2380    4.0550   16.2080 N.ar  137  HIS137     -0.2212
    180  N          5.4970   -3.2190   16.9970 N.3   155  ILE155     -0.1231
    181  CA         5.7120   -1.7730   16.9260 C.3   155  ILE155      0.1692
    182  C          4.3620   -1.0830   16.6640 C.2   155  ILE155      0.2592
    183  O          3.5900   -1.4780   15.7690 O.2   155  ILE155     -0.2718
    184  CB         6.7370   -1.4020   15.8200 C.3   155  ILE155      0.0266
    185  CG1        8.0750   -2.1760   15.9750 C.3   155  ILE155      0.0019
    186  CG2        6.9410    0.0980   15.6470 C.3   155  ILE155      0.0020
    187  CD1        8.8610   -2.1720   14.6600 C.3   155  ILE155      0.0001
    188  N          4.0690   -0.0750   17.4740 N.am  156  LEU156     -0.1966
    189  CA         2.8570    0.7290   17.2420 C.3   156  LEU156      0.1728
    190  C          3.0840    2.2070   17.5640 C.2   156  LEU156      0.2616
    191  O          4.2330    2.6650   17.6350 O.2   156  LEU156     -0.2715
    192  CB         1.6480    0.1460   17.9760 C.3   156  LEU156      0.0311
    193  CG         1.7230    0.2600   19.5000 C.3   156  LEU156      0.0022
    194  CD1        0.3240    0.4310   20.0740 C.3   156  LEU156      0.0001
    195  CD2        2.4320   -0.9220   20.1380 C.3   156  LEU156      0.0001
    196  N          1.9990    2.9600   17.6660 N.am  157  ASP157     -0.1957
    197  CA         2.1120    4.3660   18.0710 C.3   157  ASP157      0.1840
    198  C          0.9070    4.7590   18.9320 C.2   157  ASP157      0.2622
    199  O         -0.2270    4.8330   18.4440 O.2   157  ASP157     -0.2715
    200  CB         2.3050    5.3040   16.8730 C.3   157  ASP157      0.1450
    201  CG         2.8170    6.7040   17.2960 C.2   157  ASP157      0.3671
    202  OD1        2.5730    7.1240   18.4320 O.co2 157  ASP157     -0.2456
    203  OD2        3.4410    7.3980   16.4670 O.co2 157  ASP157     -0.2456
    204  N          1.1760    4.9850   20.2170 N.am  158  PHE158     -0.1974
    205  CA         0.1490    5.4340   21.1750 C.3   158  PHE158      0.1639
    206  C         -0.0120    6.9610   21.2060 C.2   158  PHE158      0.2290
    207  O         -0.8440    7.4870   21.9680 O.2   158  PHE158     -0.2864
    208  CB         0.4970    4.9780   22.5930 C.3   158  PHE158      0.0560
    209  CG         0.3600    3.4930   22.8500 C.ar  158  PHE158     -0.0200
    210  CD1       -0.8100    2.7960   22.5510 C.ar  158  PHE158     -0.0042
    211  CD2        1.3760    2.8080   23.4970 C.ar  158  PHE158     -0.0042
    212  CE1       -0.9310    1.4390   22.8600 C.ar  158  PHE158     -0.0003
    213  CE2        1.2690    1.4530   23.7940 C.ar  158  PHE158     -0.0003
    214  CZ         0.1080    0.7680   23.4950 C.ar  158  PHE158     -0.0000
@<TRIPOS>BOND
     1   154   155    1
     2   159   161    1
     3   159   158    1
     4   149   148    2
     5   155   158    1
     6   155   156    1
     7    64    65    1
     8   158   160    1
     9   148   147    1
    10    80    81    1
    11   169   167    1
    12    65    66    1
    13    65    68    1
    14   156   157    2
    15   156   162   am
    16    67    66    2
    17    70    69    1
    18    81    82    1
    19    81    84    1
    20   147   146    1
    21   147   150    1
    22   167   166    1
    23    66    72   am
    24    82    83    2
    25   162   163    1
    26    68    69    1
    27    74    75    2
    28    74    73    1
    29    85    84    1
    30    85    86    1
    31    69    71    1
    32    72    73    1
    33   150   152    1
    34   150   151    1
    35   166   163    1
    36   166   168    1
    37   163   164    1
    38    55    56    1
    39    73    76    1
    40    57    58    2
    41    57    56    1
    42    86    87    1
    43   151   153    1
    44    56    59    1
    45   165   164    2
    46   164   170   am
    47    76    77    1
    48    59    60    1
    49   170   171    1
    50    77    79    1
    51    77    78    1
    52    94    92    1
    53   110   108    1
    54    93    92    1
    55    92    89    1
    56    98    97    2
    57    60    61    1
    58   171   172    1
    59   171   174    1
    60    97    96    1
    61    91    90    2
    62   172   173    2
    63   108   109    1
    64   108   107    1
    65    89    90    1
    66    89    88    1
    67   174   175    1
    68    90    95   am
    69    61    62   ar
    70    61    63   ar
    71   107   104    1
    72    95    96    1
    73   104   103    1
    74   104   105    1
    75    96    99    1
    76   187   185    1
    77   175   177   ar
    78   175   176   ar
    79   101    99    1
    80   177   179   ar
    81   105   106    2
    82    99   100    1
    83   176   178   ar
    84   186   184    1
    85   117   115    1
    86   183   182    2
    87   184   185    1
    88   184   181    1
    89   100   102    1
    90   179   178   ar
    91   112   111    1
    92   112   115    1
    93   112   113    1
    94   203   201   ar
    95   115   116    1
    96   182   181    1
    97   182   188   am
    98   200   201    1
    99   200   197    1
   100    54    53    1
   101   181   180    1
   102    53    52    1
   103    49    48    2
   104   189   188    1
   105   189   190    1
   106   189   192    1
   107   201   202   ar
   108   113   114    2
   109   190   191    2
   110   190   196   am
   111    25    24    2
   112   196   197    1
   113    26    23    1
   114   192   193    1
   115   197   198    1
   116    48    47    1
   117    24    23    1
   118   199   198    2
   119    52    51    1
   120    50    51    1
   121    50    47    1
   122    44    43    1
   123   198   204   am
   124   133   132    1
   125    37    36    2
   126    46    47    1
   127    46    41   am
   128    23    22    1
   129   193   194    1
   130   193   195    1
   131   132   131    1
   132    40    43    1
   133    40    41    1
   134    40    39    1
   135    45    43    1
   136    22    20   am
   137    41    42    2
   138    36    39   am
   139    36    35    1
   140   204   205    1
   141   131   130    1
   142    34    35    1
   143   118   119    1
   144    20    21    2
   145    20    19    1
   146   205   206    1
   147   205   208    1
   148   206   207    2
   149    35    38    1
   150    19    18    1
   151   130   127    1
   152   119   120    1
   153   119   122    1
   154    33    31    1
   155   126   120   am
   156   126   127    1
   157   120   121    2
   158   127   128    1
   159   210   209   ar
   160   210   212   ar
   161   208   209    1
   162   209   211   ar
   163   212   214   ar
   164    18    14   am
   165    32    31    1
   166    31    28    1
   167   122   123    1
   168    28    27    1
   169    28    29    1
   170   214   213   ar
   171   211   213   ar
   172   128   134   am
   173   128   129    2
   174    14    15    2
   175    14    13    1
   176   134   135    1
   177    29    30    2
   178   124   123    1
   179   123   125    1
   180    13    16    1
   181    13    12    1
   182    16    17    1
   183   135   136    1
   184    11    10    2
   185   137   136    2
   186    12    10   am
   187     7     5    1
   188   142   139    1
   189   142   143    1
   190    10     9    1
   191   139   140    1
   192   139   138    1
   193   140   141    2
   194   143   145   ar
   195   143   144   ar
   196     5     6    1
   197     5     2    1
   198     9     8    1
   199     8     3   am
   200     1     2    1
   201     3     2    1
   202     3     4    2
