@<TRIPOS>MOLECULE
tmp/4aa4A00.pdb
 189 178 0 0 0
SMALL
GASTEIGER

@<TRIPOS>ATOM
      1  N         -8.4060    2.7560   28.1580 N.3    26  VAL26      -0.1231
      2  CA        -7.0340    2.5450   28.6260 C.3    26  VAL26       0.1692
      3  C         -6.0860    3.7540   28.4910 C.2    26  VAL26       0.2593
      4  O         -4.8880    3.6220   28.7630 O.2    26  VAL26      -0.2718
      5  CB        -6.3860    1.2690   28.0230 C.3    26  VAL26       0.0266
      6  CG1       -7.2480    0.0520   28.3270 C.3    26  VAL26       0.0020
      7  CG2       -6.1590    1.4160   26.5120 C.3    26  VAL26       0.0020
      8  N         -6.6110    4.9120   28.0970 N.am   27  GLY27      -0.1942
      9  CA        -5.8050    6.1120   27.8920 C.3    27  GLY27       0.2014
     10  C         -5.7390    6.5490   26.4410 C.2    27  GLY27       0.2640
     11  O         -6.4350    6.0000   25.5810 O.2    27  GLY27      -0.2714
     12  N         -4.8590    7.5130   26.1680 N.am   28  SER28      -0.1935
     13  CA        -4.6940    8.1060   24.8510 C.3    28  SER28       0.2055
     14  C         -3.8010    7.3240   23.9100 C.2    28  SER28       0.2644
     15  O         -2.7020    6.9380   24.2690 O.2    28  SER28      -0.2714
     16  CB        -4.0500    9.4770   24.9880 C.3    28  SER28       0.2130
     17  OG        -4.7770   10.2310   25.8870 O.3    28  SER28      -0.2179
     18  N         -4.2690    7.1520   22.6850 N.am   29  GLY29      -0.1939
     19  CA        -3.4230    6.6900   21.5880 C.3    29  GLY29       0.2014
     20  C         -3.1100    7.8950   20.7120 C.2    29  GLY29       0.2638
     21  O         -3.3500    9.0230   21.1010 O.2    29  GLY29      -0.2714
     22  N         -2.5490    7.6630   19.5390 N.am   30  ALA30      -0.1977
     23  CA        -2.2360    8.7380   18.5950 C.3    30  ALA30       0.1597
     24  C         -3.5430    9.3960   18.0920 C.2    30  ALA30       0.2287
     25  O         -4.2920    8.7480   17.3370 O.2    30  ALA30      -0.2864
     26  CB        -1.4310    8.1790   17.4090 C.3    30  ALA30       0.0319
     27  N         -8.4290    5.3520   23.5060 N.3    34  VAL34      -0.1245
     28  CA        -8.4210    3.9310   23.2110 C.3    34  VAL34       0.1561
     29  C         -9.2110    3.1980   24.3000 C.2    34  VAL34       0.2260
     30  O         -8.9680    3.3940   25.4870 O.2    34  VAL34      -0.2867
     31  CB        -6.9810    3.4140   23.1490 C.3    34  VAL34       0.0252
     32  CG1       -6.9490    1.8980   22.9760 C.3    34  VAL34       0.0019
     33  CG2       -6.2450    4.1540   22.0290 C.3    34  VAL34       0.0019
     34  N         -8.3350   -3.4240   20.7360 N.3    47  ALA47      -0.1231
     35  CA        -8.1980   -2.0510   21.2080 C.3    47  ALA47       0.1694
     36  C         -9.0040   -1.2560   20.2070 C.2    47  ALA47       0.2592
     37  O         -8.8390   -1.4880   19.0070 O.2    47  ALA47      -0.2718
     38  CB        -6.7360   -1.6160   21.1840 C.3    47  ALA47       0.0304
     39  N         -9.8730   -0.3630   20.6790 N.am   48  VAL48      -0.1966
     40  CA       -10.6350    0.5500   19.8210 C.3    48  VAL48       0.1727
     41  C        -10.1760    2.0060   20.0700 C.2    48  VAL48       0.2616
     42  O        -10.3280    2.5220   21.1550 O.2    48  VAL48      -0.2715
     43  CB       -12.1720    0.3700   20.0480 C.3    48  VAL48       0.0290
     44  CG1      -12.9950    1.2210   19.0930 C.3    48  VAL48       0.0023
     45  CG2      -12.5790   -1.0840   19.8370 C.3    48  VAL48       0.0023
     46  N         -9.5630    2.6490   19.0950 N.am   49  LYS49      -0.1977
     47  CA        -9.3040    4.0900   19.1680 C.3    49  LYS49       0.1596
     48  C        -10.4270    4.9020   18.4770 C.2    49  LYS49       0.2287
     49  O        -10.7100    4.6990   17.2660 O.2    49  LYS49      -0.2864
     50  CB        -7.9860    4.4260   18.4590 C.3    49  LYS49       0.0298
     51  CG        -7.6300    5.9100   18.5660 C.3    49  LYS49       0.0038
     52  CD        -6.1590    6.1220   18.3690 C.3    49  LYS49       0.0206
     53  CE        -5.7710    5.9960   16.8850 C.3    49  LYS49       0.1093
     54  NZ        -4.3450    6.3580   16.6560 N.3    49  LYS49      -0.1314
     55  N         -3.2780    7.9810    8.6310 N.3    67  GLU67      -0.1245
     56  CA        -3.3020    6.8470    9.5680 C.3    67  GLU67       0.1567
     57  C         -4.0710    5.6510    8.9760 C.2    67  GLU67       0.2260
     58  O         -3.5650    4.5480    8.9850 O.2    67  GLU67      -0.2867
     59  CB        -3.8940    7.2530   10.9300 C.3    67  GLU67       0.0388
     60  CG        -4.0680    6.0550   11.8450 C.3    67  GLU67       0.1160
     61  CD        -4.3080    6.4060   13.2960 C.2    67  GLU67       0.3649
     62  OE1       -4.8110    7.5130   13.6360 O.co2  67  GLU67      -0.2457
     63  OE2       -4.0010    5.5520   14.1180 O.co2  67  GLU67      -0.2457
     64  N         -2.0290    3.9820    6.3110 N.3    70  LEU70      -0.1231
     65  CA        -0.9170    3.2910    6.9430 C.3    70  LEU70       0.1693
     66  C         -1.3150    1.9410    7.4970 C.2    70  LEU70       0.2591
     67  O         -0.7020    0.9080    7.1650 O.2    70  LEU70      -0.2718
     68  CB        -0.2510    4.1710    8.0030 C.3    70  LEU70       0.0284
     69  CG         0.6260    5.3070    7.4940 C.3    70  LEU70       0.0019
     70  CD1        1.0520    6.2310    8.6200 C.3    70  LEU70       0.0001
     71  CD2        1.8640    4.7260    6.8030 C.3    70  LEU70       0.0001
     72  N         -2.3660    1.9530    8.3010 N.am   71  LEU71      -0.1980
     73  CA        -2.9000    0.7580    8.9160 C.3    71  LEU71       0.1596
     74  C         -3.3980   -0.2830    7.9350 C.2    71  LEU71       0.2287
     75  O         -3.1430   -1.4570    8.1030 O.2    71  LEU71      -0.2864
     76  CB        -3.9920    1.1230    9.9260 C.3    71  LEU71       0.0297
     77  CG        -3.4100    1.7250   11.2110 C.3    71  LEU71       0.0022
     78  CD1       -4.4710    2.4440   12.0170 C.3    71  LEU71       0.0001
     79  CD2       -2.6910    0.6950   12.0350 C.3    71  LEU71       0.0001
     80  N          1.6900   -3.3740   13.8720 N.3    80  ILE80      -0.1245
     81  CA         0.2760   -3.3940   14.2200 C.3    80  ILE80       0.1561
     82  C         -0.5030   -3.3840   12.9150 C.2    80  ILE80       0.2260
     83  O         -0.1070   -2.7160   11.9400 O.2    80  ILE80      -0.2867
     84  CB        -0.0870   -2.1570   15.0700 C.3    80  ILE80       0.0252
     85  CG1       -1.4140   -2.3160   15.8040 C.3    80  ILE80       0.0019
     86  CG2       -0.1330   -0.9040   14.1980 C.3    80  ILE80       0.0019
     87  CD1       -1.4260   -3.4220   16.8560 C.3    80  ILE80       0.0001
     88  N        -10.9000    2.9770   14.9510 N.3   100  LEU100     -0.1245
     89  CA        -9.9110    2.0520   14.3900 C.3   100  LEU100      0.1561
     90  C         -9.7290    0.9230   15.4020 C.2   100  LEU100      0.2260
     91  O         -9.6200    1.1800   16.5880 O.2   100  LEU100     -0.2867
     92  CB        -8.5920    2.7960   14.0990 C.3   100  LEU100      0.0270
     93  CG        -8.6730    4.0020   13.1150 C.3   100  LEU100      0.0019
     94  CD1       -7.4820    4.9330   13.2120 C.3   100  LEU100      0.0001
     95  CD2       -8.7740    3.5050   11.6910 C.3   100  LEU100      0.0001
     96  N         -7.7220   -2.6870   16.5130 N.3   102  THR102     -0.1203
     97  CA        -6.5190   -3.5200   16.3340 C.3   102  THR102      0.1994
     98  C         -6.4920   -4.5720   17.4390 C.2   102  THR102      0.2618
     99  O         -7.3910   -4.5810   18.2560 O.2   102  THR102     -0.2717
    100  CB        -5.2120   -2.7020   16.4540 C.3   102  THR102      0.1784
    101  OG1       -4.9380   -2.4310   17.8360 O.3   102  THR102     -0.2211
    102  CG2       -5.2880   -1.4190   15.6960 C.3   102  THR102      0.0376
    103  N         -5.4570   -5.4260   17.4820 N.am  103  HIS103     -0.1961
    104  CA        -5.3130   -6.4390   18.5620 C.3   103  HIS103      0.1787
    105  C         -4.9900   -5.6860   19.8280 C.2   103  HIS103      0.2620
    106  O         -4.4450   -4.5840   19.7810 O.2   103  HIS103     -0.2715
    107  CB        -4.1780   -7.4370   18.2940 C.3   103  HIS103      0.0785
    108  CG        -4.4710   -8.4550   17.2130 C.ar  103  HIS103      0.0821
    109  ND1       -5.3680   -9.4700   17.3800 N.ar  103  HIS103     -0.2267
    110  CD2       -3.9250   -8.6140   15.9170 C.ar  103  HIS103      0.1154
    111  CE1       -5.4190  -10.2200   16.2460 C.ar  103  HIS103      0.1986
    112  NE2       -4.5350   -9.6910   15.3490 N.ar  103  HIS103     -0.2212
    113  N         -5.3170   -6.2500   20.9750 N.am  104  LEU104     -0.1963
    114  CA        -4.8800   -5.6290   22.2160 C.3   104  LEU104      0.1728
    115  C         -3.6540   -6.3830   22.6880 C.2   104  LEU104      0.2616
    116  O         -3.7780   -7.4870   23.1890 O.2   104  LEU104     -0.2715
    117  CB        -5.9570   -5.7250   23.2900 C.3   104  LEU104      0.0311
    118  CG        -5.6640   -5.0490   24.6210 C.3   104  LEU104      0.0022
    119  CD1       -5.9120   -3.5390   24.5000 C.3   104  LEU104      0.0001
    120  CD2       -6.5770   -5.6760   25.6650 C.3   104  LEU104      0.0001
    121  N         -2.4690   -5.8150   22.5320 N.am  105  MET105     -0.1977
    122  CA        -1.2900   -6.4460   23.1430 C.3   105  MET105      0.1605
    123  C         -1.3880   -6.1190   24.6360 C.2   105  MET105      0.2287
    124  O         -1.9120   -5.0640   25.0160 O.2   105  MET105     -0.2864
    125  CB         0.0110   -5.9260   22.5140 C.3   105  MET105      0.0413
    126  CG         0.0890   -6.0560   21.0000 C.3   105  MET105      0.0598
    127  SD         0.6440   -7.6960   20.4870 S.3   105  MET105     -0.1393
    128  CE        -0.8730   -8.6250   20.4080 C.3   105  MET105      0.0692
    129  N          0.5140   -4.8090   26.8390 N.3   107  ALA107     -0.1231
    130  CA         1.3890   -3.8250   27.4950 C.3   107  ALA107      0.1694
    131  C          2.2630   -3.0880   26.4980 C.2   107  ALA107      0.2592
    132  O          2.2350   -3.3810   25.3110 O.2   107  ALA107     -0.2718
    133  CB         2.2700   -4.5170   28.5490 C.3   107  ALA107      0.0304
    134  N          3.0560   -2.1340   26.9720 N.am  108  ASP108     -0.1974
    135  CA         4.0990   -1.5680   26.1210 C.3   108  ASP108      0.1709
    136  C          5.4680   -1.6630   26.8100 C.2   108  ASP108      0.2293
    137  O          5.5560   -2.1950   27.9160 O.2   108  ASP108     -0.2864
    138  CB         3.7300   -0.1710   25.5890 C.3   108  ASP108      0.1436
    139  CG         3.4630    0.8630   26.6970 C.2   108  ASP108      0.3671
    140  OD1        4.2800    0.9930   27.6330 O.co2 108  ASP108     -0.2456
    141  OD2        2.4470    1.5950   26.5740 O.co2 108  ASP108     -0.2456
    142  N          6.0910   -0.4670   30.7070 N.3   111  ASN111     -0.1240
    143  CA         5.5480   -1.4080   31.7040 C.3   111  ASN111      0.1653
    144  C          6.4960   -2.5690   31.9810 C.2   111  ASN111      0.2266
    145  O          6.7090   -2.9180   33.1420 O.2   111  ASN111     -0.2867
    146  CB         4.1470   -1.9380   31.3140 C.3   111  ASN111      0.1155
    147  CG         3.2950   -0.9070   30.5660 C.2   111  ASN111      0.2627
    148  OD1        3.4610    0.3070   30.7230 O.2   111  ASN111     -0.2716
    149  ND2        2.3790   -1.3940   29.7400 N.am  111  ASN111     -0.0877
    150  N          4.3800   -2.3590   21.4990 N.3   149  ALA149     -0.1245
    151  CA         3.3730   -3.1230   22.2690 C.3   149  ALA149      0.1562
    152  C          3.8150   -4.5810   22.3570 C.2   149  ALA149      0.2260
    153  O          4.2540   -5.1540   21.3540 O.2   149  ALA149     -0.2867
    154  CB         1.9870   -2.9910   21.6430 C.3   149  ALA149      0.0290
    155  N          3.6760    0.2700   16.9920 N.3   159  LEU159     -0.1231
    156  CA         2.5510    1.1910   16.7740 C.3   159  LEU159      0.1693
    157  C          3.0010    2.5440   16.3480 C.2   159  LEU159      0.2592
    158  O          4.1580    2.8790   16.5250 O.2   159  LEU159     -0.2718
    159  CB         1.8010    1.4440   18.0780 C.3   159  LEU159      0.0284
    160  CG         1.4070    0.2860   18.9590 C.3   159  LEU159      0.0019
    161  CD1        0.5320    0.7760   20.1310 C.3   159  LEU159      0.0001
    162  CD2        0.6580   -0.6500   18.0730 C.3   159  LEU159      0.0001
    163  N          2.0710    3.3160   15.7790 N.am  160  ASP160     -0.1960
    164  CA         2.2020    4.7740   15.6120 C.3   160  ASP160      0.1840
    165  C          3.2860    5.2600   14.6280 C.2   160  ASP160      0.2622
    166  O          3.6130    6.4400   14.6100 O.2   160  ASP160     -0.2715
    167  CB         2.3190    5.4710   16.9640 C.3   160  ASP160      0.1450
    168  CG         1.0580    5.3030   17.8120 C.2   160  ASP160      0.3671
    169  OD1        0.0570    4.8110   17.2580 O.co2 160  ASP160     -0.2456
    170  OD2        1.0570    5.6120   19.0280 O.co2 160  ASP160     -0.2456
    171  N          3.7920    4.3710   13.7830 N.am  161  PHE161     -0.1974
    172  CA         4.7550    4.7460   12.7330 C.3   161  PHE161      0.1639
    173  C          4.1220    5.7000   11.7370 C.2   161  PHE161      0.2290
    174  O          2.8950    5.6840   11.5680 O.2   161  PHE161     -0.2864
    175  CB         5.2720    3.4940   11.9580 C.3   161  PHE161      0.0560
    176  CG         4.1880    2.4660   11.6730 C.ar  161  PHE161     -0.0200
    177  CD1        3.8300    1.5250   12.6310 C.ar  161  PHE161     -0.0042
    178  CD2        3.5010    2.4700   10.4670 C.ar  161  PHE161     -0.0042
    179  CE1        2.8200    0.5910   12.3950 C.ar  161  PHE161     -0.0003
    180  CE2        2.4850    1.5470   10.2280 C.ar  161  PHE161     -0.0003
    181  CZ         2.1610    0.6130   11.1990 C.ar  161  PHE161     -0.0000
    182  N          3.5550    8.8930   11.4600 N.3   163  LEU163     -0.1245
    183  CA         2.6570    9.9950   11.8150 C.3   163  LEU163      0.1561
    184  C          3.4140   11.2990   12.0750 C.2   163  LEU163      0.2260
    185  O          2.9550   12.3620   11.6820 O.2   163  LEU163     -0.2867
    186  CB         1.8460    9.6490   13.0860 C.3   163  LEU163      0.0270
    187  CG         0.9560    8.3930   13.0300 C.3   163  LEU163      0.0019
    188  CD1        0.2330    8.2420   14.3740 C.3   163  LEU163      0.0001
    189  CD2       -0.0010    8.4270   11.8130 C.3   163  LEU163      0.0001
@<TRIPOS>BOND
     1    64    65    1
     2    71    69    1
     3    65    66    1
     4    65    68    1
     5    67    66    2
     6    69    68    1
     7    69    70    1
     8    66    72   am
     9    74    75    2
    10    74    73    1
    11    72    73    1
    12    55    56    1
    13    73    76    1
    14    57    58    2
    15    57    56    1
    16    56    59    1
    17    76    77    1
    18   180   178   ar
    19   180   181   ar
    20   178   176   ar
    21    59    60    1
    22   181   179   ar
    23    77    78    1
    24    77    79    1
    25   182   183    1
    26   174   173    2
    27   176   175    1
    28   176   177   ar
    29   185   184    2
    30    95    93    1
    31   173   172    1
    32   189   187    1
    33   183   184    1
    34   183   186    1
    35    60    61    1
    36    83    82    2
    37   175   172    1
    38   179   177   ar
    39   172   171    1
    40    82    81    1
    41   187   186    1
    42   187   188    1
    43    93    94    1
    44    93    92    1
    45    61    62   ar
    46    61    63   ar
    47   171   165   am
    48    80    81    1
    49    92    89    1
    50    86    84    1
    51    81    84    1
    52    89    88    1
    53    89    90    1
    54   166   165    2
    55   165   164    1
    56    84    85    1
    57   112   110   ar
    58   112   111   ar
    59    90    91    2
    60   164   163    1
    61   164   167    1
    62   102   100    1
    63   163   157   am
    64    85    87    1
    65   110   108   ar
    66   111   109   ar
    67    97   100    1
    68    97    96    1
    69    97    98    1
    70   157   158    2
    71   157   156    1
    72   100   101    1
    73    54    53    1
    74   156   155    1
    75   156   159    1
    76    53    52    1
    77   167   168    1
    78   108   109   ar
    79   108   107    1
    80   169   168   ar
    81    49    48    2
    82    25    24    2
    83    26    23    1
    84    98   103   am
    85    98    99    2
    86   103   104    1
    87   168   170   ar
    88   162   160    1
    89   159   160    1
    90    24    23    1
    91   107   104    1
    92    52    51    1
    93    50    51    1
    94    50    47    1
    95    48    47    1
    96   104   105    1
    97    23    22    1
    98   160   161    1
    99    37    36    2
   100    44    43    1
   101    46    47    1
   102    46    41   am
   103    22    20   am
   104   106   105    2
   105    40    43    1
   106    40    41    1
   107    40    39    1
   108   105   113   am
   109    45    43    1
   110    41    42    2
   111    36    39   am
   112    36    35    1
   113   128   127    1
   114   127   126    1
   115    20    21    2
   116    20    19    1
   117    34    35    1
   118   113   114    1
   119   126   125    1
   120    38    35    1
   121   153   152    2
   122   150   151    1
   123    19    18    1
   124   154   151    1
   125    33    31    1
   126   114   115    1
   127   114   117    1
   128   151   152    1
   129   125   122    1
   130   121   115   am
   131   121   122    1
   132    18    14   am
   133   115   116    2
   134    32    31    1
   135   122   123    1
   136    31    28    1
   137    28    27    1
   138    28    29    1
   139   117   118    1
   140    14    15    2
   141    14    13    1
   142    29    30    2
   143   119   118    1
   144   118   120    1
   145   123   124    2
   146    13    16    1
   147    13    12    1
   148    16    17    1
   149   132   131    2
   150    11    10    2
   151   138   135    1
   152   138   139    1
   153   135   136    1
   154   135   134    1
   155    12    10   am
   156    10     9    1
   157   131   134   am
   158   131   130    1
   159     7     5    1
   160   141   139   ar
   161   139   140   ar
   162   136   137    2
   163   129   130    1
   164   130   133    1
   165     9     8    1
   166     5     6    1
   167     5     2    1
   168     8     3   am
   169     1     2    1
   170     3     2    1
   171     3     4    2
   172   149   147   am
   173   147   148    2
   174   147   146    1
   175   142   143    1
   176   146   143    1
   177   143   144    1
   178   144   145    2
