@<TRIPOS>MOLECULE
tmp/4aa5A00.pdb
 176 165 0 0 0
SMALL
GASTEIGER

@<TRIPOS>ATOM
      1  N         -8.0780    2.1690   28.2900 N.3    26  VAL26      -0.1231
      2  CA        -6.6870    1.9090   28.6360 C.3    26  VAL26       0.1692
      3  C         -5.7830    3.1100   28.3670 C.2    26  VAL26       0.2593
      4  O         -4.5420    2.9410   28.1730 O.2    26  VAL26      -0.2718
      5  CB        -6.1240    0.6520   27.8990 C.3    26  VAL26       0.0266
      6  CG1       -6.8160   -0.6050   28.4210 C.3    26  VAL26       0.0020
      7  CG2       -6.2450    0.7770   26.3770 C.3    26  VAL26       0.0020
      8  N         -6.3770    4.3100   28.3590 N.am   27  GLY27      -0.1942
      9  CA        -5.6410    5.5760   28.0840 C.3    27  GLY27       0.2014
     10  C         -5.5020    5.9260   26.6010 C.2    27  GLY27       0.2640
     11  O         -6.2110    5.4170   25.7540 O.2    27  GLY27      -0.2714
     12  N         -4.5700    6.8020   26.2870 N.am   28  SER28      -0.1935
     13  CA        -4.4620    7.3950   24.9760 C.3    28  SER28       0.2055
     14  C         -3.5980    6.5720   24.0040 C.2    28  SER28       0.2644
     15  O         -2.5660    6.0460   24.3800 O.2    28  SER28      -0.2714
     16  CB        -3.8440    8.8120   25.0880 C.3    28  SER28       0.2130
     17  OG        -4.6870    9.7020   25.8180 O.3    28  SER28      -0.2179
     18  N         -4.0310    6.5130   22.7440 N.am   29  GLY29      -0.1939
     19  CA        -3.1670    6.1580   21.6320 C.3    29  GLY29       0.2014
     20  C         -2.9280    7.4190   20.7840 C.2    29  GLY29       0.2638
     21  O         -3.2450    8.5180   21.2030 O.2    29  GLY29      -0.2714
     22  N         -2.3970    7.2510   19.5850 N.am   30  ALA30      -0.1977
     23  CA        -2.1840    8.3780   18.7180 C.3    30  ALA30       0.1597
     24  C         -3.5050    8.8690   18.1880 C.2    30  ALA30       0.2287
     25  O         -4.2130    8.1040   17.4760 O.2    30  ALA30      -0.2864
     26  CB        -1.2610    8.0160   17.5750 C.3    30  ALA30       0.0319
     27  N         -8.2460    4.7400   23.4750 N.3    34  VAL34      -0.1245
     28  CA        -8.3220    3.3330   23.1880 C.3    34  VAL34       0.1561
     29  C         -9.0200    2.5820   24.3120 C.2    34  VAL34       0.2260
     30  O         -8.7420    2.7920   25.4970 O.2    34  VAL34      -0.2867
     31  CB        -6.9120    2.7570   22.9610 C.3    34  VAL34       0.0252
     32  CG1       -6.9430    1.2280   22.8360 C.3    34  VAL34       0.0019
     33  CG2       -6.2990    3.3940   21.7240 C.3    34  VAL34       0.0019
     34  N         -8.0440   -3.9650   20.5390 N.3    47  ALA47      -0.1245
     35  CA        -7.9510   -2.5790   20.8920 C.3    47  ALA47       0.1562
     36  C         -8.8330   -1.7970   19.9210 C.2    47  ALA47       0.2260
     37  O         -8.7430   -1.9690   18.6970 O.2    47  ALA47      -0.2867
     38  CB        -6.5080   -2.1180   20.8080 C.3    47  ALA47       0.0290
     39  N         -9.7250    2.0530   18.8510 N.3    49  LYS49      -0.1245
     40  CA        -9.3840    3.4560   18.9830 C.3    49  LYS49       0.1561
     41  C        -10.4210    4.3310   18.2970 C.2    49  LYS49       0.2260
     42  O        -10.5750    4.2590   17.0790 O.2    49  LYS49      -0.2867
     43  CB        -8.0080    3.7520   18.3970 C.3    49  LYS49       0.0271
     44  CG        -7.5880    5.2160   18.5040 C.3    49  LYS49       0.0035
     45  CD        -6.0860    5.3790   18.2650 C.3    49  LYS49       0.0206
     46  CE        -5.6960    5.2540   16.7800 C.3    49  LYS49       0.1093
     47  NZ        -4.2210    5.4000   16.5990 N.3    49  LYS49      -0.1314
     48  N         -3.6420    7.4140    8.4690 N.3    67  GLU67      -0.1245
     49  CA        -3.6130    6.3110    9.3840 C.3    67  GLU67       0.1567
     50  C         -4.3970    5.1560    8.7990 C.2    67  GLU67       0.2260
     51  O         -3.9430    4.0340    8.8750 O.2    67  GLU67      -0.2867
     52  CB        -4.1230    6.6730   10.7940 C.3    67  GLU67       0.0388
     53  CG        -3.7190    5.6200   11.8130 C.3    67  GLU67       0.1160
     54  CD        -4.1750    5.9130   13.2360 C.2    67  GLU67       0.3649
     55  OE1       -4.7580    7.0130   13.4940 O.co2  67  GLU67      -0.2457
     56  OE2       -3.9460    5.0400   14.1050 O.co2  67  GLU67      -0.2457
     57  N         -2.4320    3.4290    5.9800 N.3    70  LEU70      -0.1231
     58  CA        -1.3390    2.6700    6.5950 C.3    70  LEU70       0.1693
     59  C         -1.8140    1.3310    7.1110 C.2    70  LEU70       0.2591
     60  O         -1.2580    0.2960    6.7550 O.2    70  LEU70      -0.2718
     61  CB        -0.7010    3.4430    7.7500 C.3    70  LEU70       0.0284
     62  CG         0.3430    4.5070    7.3710 C.3    70  LEU70       0.0019
     63  CD1        0.4520    5.6100    8.4030 C.3    70  LEU70       0.0001
     64  CD2        1.6920    3.8810    7.1070 C.3    70  LEU70       0.0001
     65  N         -2.8610    1.3390    7.9180 N.am   71  LEU71      -0.1980
     66  CA        -3.3350    0.1400    8.5770 C.3    71  LEU71       0.1596
     67  C         -3.8180   -0.9110    7.5730 C.2    71  LEU71       0.2287
     68  O         -3.5220   -2.0690    7.7230 O.2    71  LEU71      -0.2864
     69  CB        -4.4820    0.4770    9.5310 C.3    71  LEU71       0.0297
     70  CG        -4.2460    0.7310   11.0260 C.3    71  LEU71       0.0022
     71  CD1       -2.8180    0.5150   11.5400 C.3    71  LEU71       0.0001
     72  CD2       -4.7880    2.0770   11.4090 C.3    71  LEU71       0.0001
     73  N          1.5820   -3.9330   13.4060 N.3    80  ILE80      -0.1245
     74  CA         0.1630   -3.8700   13.6950 C.3    80  ILE80       0.1561
     75  C         -0.6050   -3.6960   12.4030 C.2    80  ILE80       0.2260
     76  O         -0.1690   -2.9610   11.4900 O.2    80  ILE80      -0.2867
     77  CB        -0.1550   -2.7570   14.7520 C.3    80  ILE80       0.0252
     78  CG1       -1.5260   -2.9570   15.4050 C.3    80  ILE80       0.0019
     79  CG2       -0.0680   -1.3620   14.1760 C.3    80  ILE80       0.0019
     80  CD1       -1.5890   -4.1690   16.3090 C.3    80  ILE80       0.0001
     81  N        -11.0420    2.3950   14.7950 N.3   100  LEU100     -0.1245
     82  CA       -10.0490    1.5150   14.2460 C.3   100  LEU100      0.1561
     83  C         -9.7760    0.3800   15.2180 C.2   100  LEU100      0.2260
     84  O         -9.4940    0.6270   16.3870 O.2   100  LEU100     -0.2867
     85  CB        -8.7500    2.2800   13.9810 C.3   100  LEU100      0.0270
     86  CG        -8.7240    3.4310   12.9760 C.3   100  LEU100      0.0019
     87  CD1       -7.3800    4.1510   13.0560 C.3   100  LEU100      0.0001
     88  CD2       -9.0140    2.9440   11.5610 C.3   100  LEU100      0.0001
     89  N         -7.7310   -3.1890   16.0510 N.3   102  THR102     -0.1203
     90  CA        -6.5490   -4.0240   15.8440 C.3   102  THR102      0.1994
     91  C         -6.5060   -5.1390   16.9210 C.2   102  THR102      0.2618
     92  O         -7.3660   -5.2050   17.7950 O.2   102  THR102     -0.2717
     93  CB        -5.2360   -3.1710   15.9340 C.3   102  THR102      0.1784
     94  OG1       -4.9000   -2.9110   17.3260 O.3   102  THR102     -0.2211
     95  CG2       -5.4090   -1.8560   15.2250 C.3   102  THR102      0.0376
     96  N         -5.4720   -5.9800   16.8620 N.am  103  HIS103     -0.1961
     97  CA        -5.1940   -6.9640   17.9250 C.3   103  HIS103      0.1787
     98  C         -4.8720   -6.2200   19.2030 C.2   103  HIS103      0.2620
     99  O         -4.3670   -5.0720   19.1690 O.2   103  HIS103     -0.2715
    100  CB        -4.0100   -7.8640   17.5790 C.3   103  HIS103      0.0785
    101  CG        -4.2830   -8.8860   16.5050 C.ar  103  HIS103      0.0821
    102  ND1       -4.9810  -10.0270   16.7350 N.ar  103  HIS103     -0.2267
    103  CD2       -3.8830   -8.9360   15.1550 C.ar  103  HIS103      0.1154
    104  CE1       -5.0420  -10.7700   15.6000 C.ar  103  HIS103      0.1986
    105  NE2       -4.3680  -10.1010   14.6310 N.ar  103  HIS103     -0.2212
    106  N         -5.1380   -6.8480   20.3360 N.am  104  LEU104     -0.1963
    107  CA        -4.7500   -6.2950   21.6300 C.3   104  LEU104      0.1728
    108  C         -3.5890   -7.1320   22.1990 C.2   104  LEU104      0.2616
    109  O         -3.7860   -8.2800   22.6840 O.2   104  LEU104     -0.2715
    110  CB        -5.9390   -6.3350   22.6120 C.3   104  LEU104      0.0311
    111  CG        -5.6080   -5.8370   24.0300 C.3   104  LEU104      0.0022
    112  CD1       -5.3730   -4.3180   24.0510 C.3   104  LEU104      0.0001
    113  CD2       -6.6880   -6.2460   25.0450 C.3   104  LEU104      0.0001
    114  N         -2.4010   -6.5470   22.1970 N.am  105  MET105     -0.1963
    115  CA        -1.1900   -7.2890   22.5990 C.3   105  MET105      0.1736
    116  C         -1.0620   -7.4880   24.1080 C.2   105  MET105      0.2617
    117  O         -0.5830   -8.5800   24.5670 O.2   105  MET105     -0.2715
    118  CB         0.0660   -6.6230   22.0190 C.3   105  MET105      0.0427
    119  CG         0.2070   -6.7410   20.5070 C.3   105  MET105      0.0599
    120  SD         0.5740   -8.4670   20.0560 S.3   105  MET105     -0.1393
    121  CE        -0.9060   -8.9680   19.1720 C.3   105  MET105      0.0692
    122  N         -1.4800   -6.4820   24.8930 N.am  106  GLY106     -0.1955
    123  CA        -1.5530   -6.6940   26.3480 C.3   106  GLY106      0.1869
    124  C         -0.5140   -5.9680   27.1860 C.2   106  GLY106      0.2309
    125  O         -0.7280   -5.7720   28.3770 O.2   106  GLY106     -0.2863
    126  N          3.5060   -3.2950   26.7130 N.3   108  ASP108     -0.1239
    127  CA         4.5350   -2.7800   25.8400 C.3   108  ASP108      0.1674
    128  C          5.9310   -2.8850   26.4630 C.2   108  ASP108      0.2266
    129  O          6.0560   -3.3670   27.5890 O.2   108  ASP108     -0.2867
    130  CB         4.2250   -1.3720   25.2890 C.3   108  ASP108      0.1410
    131  CG         3.8610   -0.3640   26.3580 C.2   108  ASP108      0.3668
    132  OD1        4.7100   -0.0590   27.2180 O.co2 108  ASP108     -0.2456
    133  OD2        2.7190    0.1880   26.2920 O.co2 108  ASP108     -0.2456
    134  N          6.6520   -0.8910   29.6810 N.3   111  ASN111     -0.1240
    135  CA         6.3040   -1.5960   30.9620 C.3   111  ASN111      0.1653
    136  C          7.3670   -2.5860   31.3710 C.2   111  ASN111      0.2266
    137  O          7.6560   -2.7600   32.5850 O.2   111  ASN111     -0.2867
    138  CB         5.0000   -2.4240   30.8340 C.3   111  ASN111      0.1155
    139  CG         3.7580   -1.5550   30.5980 C.2   111  ASN111      0.2627
    140  OD1        3.6260   -0.4250   31.1550 O.2   111  ASN111     -0.2716
    141  ND2        2.8320   -2.0790   29.8170 N.am  111  ASN111     -0.0877
    142  N          3.7400   -0.3710   16.6160 N.3   158  LEU158     -0.1231
    143  CA         2.6280    0.5270   16.4280 C.3   158  LEU158      0.1693
    144  C          3.1000    1.9390   16.0800 C.2   158  LEU158      0.2592
    145  O          4.2530    2.3050   16.3460 O.2   158  LEU158     -0.2718
    146  CB         1.8130    0.6330   17.6980 C.3   158  LEU158      0.0284
    147  CG         1.3670   -0.5760   18.5220 C.3   158  LEU158      0.0019
    148  CD1        0.1170   -0.2220   19.3510 C.3   158  LEU158      0.0001
    149  CD2        1.0640   -1.7430   17.6330 C.3   158  LEU158      0.0001
    150  N          2.1850    2.7140   15.5010 N.am  159  ASP159     -0.1960
    151  CA         2.3040    4.1850   15.4300 C.3   159  ASP159      0.1840
    152  C          3.3340    4.7040   14.4190 C.2   159  ASP159      0.2622
    153  O          3.6900    5.8510   14.4730 O.2   159  ASP159     -0.2715
    154  CB         2.5550    4.7930   16.8270 C.3   159  ASP159      0.1450
    155  CG         1.3210    4.7240   17.7470 C.2   159  ASP159      0.3671
    156  OD1        0.2020    4.3770   17.3030 O.co2 159  ASP159     -0.2456
    157  OD2        1.4670    5.0880   18.9400 O.co2 159  ASP159     -0.2456
    158  N          3.7930    3.8220   13.5140 N.am  160  PHE160     -0.1974
    159  CA         4.6370    4.1690   12.3980 C.3   160  PHE160      0.1639
    160  C          3.8680    5.0070   11.3890 C.2   160  PHE160      0.2290
    161  O          2.6170    4.9530   11.3260 O.2   160  PHE160     -0.2864
    162  CB         5.1800    2.9050   11.6840 C.3   160  PHE160      0.0560
    163  CG         4.1100    1.8720   11.3830 C.ar  160  PHE160     -0.0200
    164  CD1        3.3160    1.9770   10.2460 C.ar  160  PHE160     -0.0042
    165  CD2        3.8610    0.8450   12.2740 C.ar  160  PHE160     -0.0042
    166  CE1        2.3090    1.0640   10.0130 C.ar  160  PHE160     -0.0003
    167  CE2        2.8620   -0.0930   12.0210 C.ar  160  PHE160     -0.0003
    168  CZ         2.0780    0.0240   10.9100 C.ar  160  PHE160     -0.0000
    169  N          3.2530    8.0750   11.2730 N.3   162  LEU162     -0.1245
    170  CA         2.4320    9.1850   11.7810 C.3   162  LEU162      0.1561
    171  C          3.1900   10.5010   12.0440 C.2   162  LEU162      0.2260
    172  O          2.6370   11.6190   11.8450 O.2   162  LEU162     -0.2867
    173  CB         1.6350    8.7670   13.0250 C.3   162  LEU162      0.0270
    174  CG         0.6980    7.5500   12.8700 C.3   162  LEU162      0.0019
    175  CD1       -0.0630    7.3060   14.1480 C.3   162  LEU162      0.0001
    176  CD2       -0.2650    7.7090   11.6930 C.3   162  LEU162      0.0001
@<TRIPOS>BOND
     1    57    58    1
     2    58    59    1
     3    58    61    1
     4    60    59    2
     5    64    62    1
     6    59    65   am
     7    62    61    1
     8    62    63    1
     9    67    68    2
    10    67    66    1
    11    65    66    1
    12    48    49    1
    13    66    69    1
    14    50    51    2
    15    50    49    1
    16    49    52    1
    17    69    70    1
    18   166   164   ar
    19   166   168   ar
    20   164   163   ar
    21    52    53    1
    22   168   167   ar
    23    70    72    1
    24    70    71    1
    25   169   170    1
    26   161   160    2
    27   163   162    1
    28   163   165   ar
    29   160   159    1
    30    76    75    2
    31    88    86    1
    32   162   159    1
    33   176   174    1
    34   170   171    1
    35   170   173    1
    36    53    54    1
    37   172   171    2
    38   167   165   ar
    39   159   158    1
    40    75    74    1
    41   174   173    1
    42   174   175    1
    43    86    87    1
    44    86    85    1
    45    54    55   ar
    46    54    56   ar
    47    73    74    1
    48   158   152   am
    49    74    77    1
    50    85    82    1
    51    79    77    1
    52    82    81    1
    53    82    83    1
    54   152   153    2
    55   152   151    1
    56   105   103   ar
    57   105   104   ar
    58    77    78    1
    59   103   101   ar
    60    83    84    2
    61    95    93    1
    62    78    80    1
    63   151   150    1
    64   151   154    1
    65   150   144   am
    66   104   102   ar
    67    90    93    1
    68    90    89    1
    69    90    91    1
    70    93    94    1
    71   144   145    2
    72   144   143    1
    73   143   142    1
    74   143   146    1
    75   101   102   ar
    76   101   100    1
    77    47    46    1
    78    46    45    1
    79   154   155    1
    80    96    91   am
    81    96    97    1
    82    91    92    2
    83    42    41    2
    84   156   155   ar
    85    25    24    2
    86    26    23    1
    87   100    97    1
    88   149   147    1
    89   146   147    1
    90   155   157   ar
    91    97    98    1
    92    24    23    1
    93    45    44    1
    94    41    40    1
    95    43    44    1
    96    43    40    1
    97   147   148    1
    98    37    36    2
    99    23    22    1
   100    39    40    1
   101    99    98    2
   102   121   120    1
   103    98   106   am
   104    22    20   am
   105    36    35    1
   106   120   119    1
   107   106   107    1
   108   119   118    1
   109    34    35    1
   110    20    21    2
   111    20    19    1
   112    38    35    1
   113   107   108    1
   114   107   110    1
   115    19    18    1
   116    33    31    1
   117   118   115    1
   118   114   108   am
   119   114   115    1
   120   108   109    2
   121   115   116    1
   122   110   111    1
   123    18    14   am
   124    32    31    1
   125    31    28    1
   126    28    27    1
   127    28    29    1
   128    14    15    2
   129    14    13    1
   130   111   112    1
   131   111   113    1
   132   116   117    2
   133   116   122   am
   134    29    30    2
   135   122   123    1
   136    13    16    1
   137    13    12    1
   138    16    17    1
   139   130   127    1
   140   130   131    1
   141    11    10    2
   142   127   128    1
   143   127   126    1
   144    12    10   am
   145   133   131   ar
   146   123   124    1
   147   131   132   ar
   148     7     5    1
   149   128   129    2
   150    10     9    1
   151   124   125    2
   152     5     6    1
   153     5     2    1
   154     9     8    1
   155     4     3    2
   156     1     2    1
   157     8     3   am
   158     3     2    1
   159   134   135    1
   160   141   139   am
   161   139   138    1
   162   139   140    2
   163   138   135    1
   164   135   136    1
   165   136   137    2
