@<TRIPOS>MOLECULE
tmp/4aa7B00.pdb
 86 85 0 0 0
SMALL
GASTEIGER

@<TRIPOS>ATOM
      1  N         37.7790  -16.2090  -11.5800 N.3   151  ILE151     -0.1231
      2  CA        38.9190  -15.4060  -11.1110 C.3   151  ILE151      0.1692
      3  C         38.9950  -14.0940  -11.8710 C.2   151  ILE151      0.2593
      4  O         38.9420  -14.0910  -13.1240 O.2   151  ILE151     -0.2718
      5  CB        40.2310  -16.2230  -11.2310 C.3   151  ILE151      0.0266
      6  CG1       40.3040  -17.2480  -10.0380 C.3   151  ILE151      0.0019
      7  CG2       41.4620  -15.2990  -11.2780 C.3   151  ILE151      0.0020
      8  CD1       41.2010  -18.4350  -10.3250 C.3   151  ILE151      0.0001
      9  N         39.0690  -12.9780  -11.1180 N.am  152  THR152     -0.1939
     10  CA        39.4500  -11.7020  -11.7150 C.3   152  THR152      0.2028
     11  C         40.9700  -11.6800  -11.9450 C.2   152  THR152      0.2642
     12  O         41.7850  -11.7730  -10.9730 O.2   152  THR152     -0.2714
     13  CB        39.1230  -10.5190  -10.7970 C.3   152  THR152      0.1808
     14  OG1       39.6890  -10.8130   -9.5080 O.3   152  THR152     -0.2208
     15  CG2       37.6360  -10.3100  -10.6660 C.3   152  THR152      0.0379
     16  N         41.3710  -11.5450  -13.2120 N.am  153  CYS153     -0.1953
     17  CA        42.7600  -11.3370  -13.5720 C.3   153  CYS153      0.1843
     18  C         42.9770   -9.8290  -13.4610 C.2   153  CYS153      0.2625
     19  O         42.7880   -9.0890  -14.4360 O.2   153  CYS153     -0.2714
     20  CB        43.0510  -11.8410  -14.9880 C.3   153  CYS153      0.0997
     21  SG        42.7100  -13.6330  -15.1100 S.3   153  CYS153     -0.0797
     22  N         43.3600   -9.3880  -12.2520 N.am  154  ASN154     -0.1958
     23  CA        43.3460   -7.9560  -11.9180 C.3   154  ASN154      0.1819
     24  C         44.7170   -7.3070  -11.9470 C.2   154  ASN154      0.2621
     25  O         44.8150   -6.0840  -11.9400 O.2   154  ASN154     -0.2715
     26  CB        42.6720   -7.7210  -10.5360 C.3   154  ASN154      0.1195
     27  CG        43.4370   -8.3730   -9.3950 C.2   154  ASN154      0.2630
     28  OD1       43.7530   -9.5310   -9.4630 O.2   154  ASN154     -0.2716
     29  ND2       43.7270   -7.6140   -8.3440 N.am  154  ASN154     -0.0877
     30  N         45.7710   -8.1080  -11.9960 N.am  155  TYR155     -0.1960
     31  CA        47.1030   -7.6180  -11.7290 C.3   155  TYR155      0.1771
     32  C         47.9590   -8.1530  -12.8340 C.2   155  TYR155      0.2619
     33  O         47.9830   -9.3640  -13.0380 O.2   155  TYR155     -0.2715
     34  CB        47.5750   -8.1530  -10.3770 C.3   155  TYR155      0.0574
     35  CG        49.0840   -7.9450  -10.1220 C.ar  155  TYR155     -0.0198
     36  CD1       49.6510   -6.6590  -10.1050 C.ar  155  TYR155     -0.0009
     37  CD2       49.9310   -9.0490   -9.8970 C.ar  155  TYR155     -0.0009
     38  CE1       50.9990   -6.4690   -9.8470 C.ar  155  TYR155      0.0417
     39  CE2       51.2860   -8.8790   -9.6510 C.ar  155  TYR155      0.0417
     40  CZ        51.8210   -7.6070   -9.6410 C.ar  155  TYR155      0.1957
     41  OH        53.1790   -7.4570   -9.4460 O.3   155  TYR155     -0.2866
     42  N         48.6580   -7.3020  -13.5530 N.am  156  ASP156     -0.1971
     43  CA        49.4800   -7.7740  -14.7080 C.3   156  ASP156      0.1709
     44  C         50.9820   -7.7750  -14.4180 C.2   156  ASP156      0.2293
     45  O         51.7890   -7.8270  -15.3400 O.2   156  ASP156     -0.2864
     46  CB        49.1720   -6.9550  -15.9670 C.3   156  ASP156      0.1436
     47  CG        49.5880   -5.4730  -15.8340 C.2   156  ASP156      0.3671
     48  OD1       50.1120   -5.0260  -14.7740 O.co2 156  ASP156     -0.2456
     49  OD2       49.4380   -4.7150  -16.8150 O.co2 156  ASP156     -0.2456
     50  N         43.8660   -3.5600  -12.2920 N.3   161  PHE161     -0.1241
     51  CA        42.7900   -3.0880  -13.1840 C.3   161  PHE161      0.1605
     52  C         41.4260   -3.5670  -12.7270 C.2   161  PHE161      0.2264
     53  O         41.3200   -4.6160  -12.0770 O.2   161  PHE161     -0.2867
     54  CB        43.0510   -3.5090  -14.6440 C.3   161  PHE161      0.0534
     55  CG        44.3260   -2.9450  -15.2240 C.ar  161  PHE161     -0.0203
     56  CD1       44.3390   -1.7010  -15.8440 C.ar  161  PHE161     -0.0042
     57  CD2       45.5310   -3.6830  -15.1450 C.ar  161  PHE161     -0.0042
     58  CE1       45.4930   -1.1940  -16.3750 C.ar  161  PHE161     -0.0003
     59  CE2       46.7040   -3.1800  -15.7110 C.ar  161  PHE161     -0.0003
     60  CZ        46.6740   -1.9460  -16.3330 C.ar  161  PHE161     -0.0000
     61  N         39.6220  -11.0510  -17.6210 N.3   178  VAL178     -0.1231
     62  CA        40.8700  -10.3270  -17.7900 C.3   178  VAL178      0.1692
     63  C         40.6380   -8.8030  -17.7420 C.2   178  VAL178      0.2592
     64  O         40.1760   -8.1700  -18.7220 O.2   178  VAL178     -0.2718
     65  CB        41.5950  -10.6970  -19.1100 C.3   178  VAL178      0.0266
     66  CG1       42.9550  -10.0150  -19.1920 C.3   178  VAL178      0.0020
     67  CG2       41.6990  -12.2220  -19.2120 C.3   178  VAL178      0.0020
     68  N         40.9330   -8.2190  -16.5990 N.am  179  ALA179     -0.1966
     69  CA        40.6680   -6.7710  -16.3980 C.3   179  ALA179      0.1713
     70  C         41.6650   -5.8770  -17.1560 C.2   179  ALA179      0.2458
     71  O         42.8000   -6.3190  -17.4400 O.2   179  ALA179     -0.2730
     72  CB        40.6720   -6.4840  -14.8920 C.3   179  ALA179      0.0333
     73  N         41.2730   -4.6140  -17.5480 N.am  180  PRO180     -0.2727
     74  CA        39.9380   -4.0110  -17.3210 C.3   180  PRO180      0.1402
     75  C         38.8980   -4.6390  -18.2810 C.2   180  PRO180      0.2269
     76  O         39.1870   -4.8300  -19.4800 O.2   180  PRO180     -0.2865
     77  CB        40.1720   -2.5330  -17.6250 C.3   180  PRO180      0.0296
     78  CG        41.2430   -2.5520  -18.6850 C.3   180  PRO180      0.0237
     79  CD        42.1430   -3.7080  -18.3220 C.3   180  PRO180      0.0939
     80  N         38.3860  -11.5110  -22.5400 N.3   196  THR196     -0.1218
     81  CA        39.3560  -10.4660  -22.8300 C.3   196  THR196      0.1862
     82  C         38.6690   -9.2070  -23.3530 C.2   196  THR196      0.2287
     83  O         39.3130   -8.1500  -23.3530 O.2   196  THR196     -0.2866
     84  CB        40.4250  -10.9090  -23.8640 C.3   196  THR196      0.1770
     85  OG1       39.7710  -11.2520  -25.0810 O.3   196  THR196     -0.2211
     86  CG2       41.2070  -12.1750  -23.3570 C.3   196  THR196      0.0375
@<TRIPOS>BOND
     1    85    84    1
     2    84    86    1
     3    84    81    1
     4    83    82    2
     5    82    81    1
     6    81    80    1
     7    76    75    2
     8    67    65    1
     9    66    65    1
    10    65    62    1
    11    64    63    2
    12    78    79    1
    13    78    77    1
    14    79    73    1
    15    75    74    1
    16    62    63    1
    17    62    61    1
    18    63    68   am
    19    77    74    1
    20    73    74    1
    21    73    70   am
    22    71    70    2
    23    70    69    1
    24    49    47   ar
    25    68    69    1
    26    69    72    1
    27    58    60   ar
    28    58    56   ar
    29    60    59   ar
    30    46    47    1
    31    46    43    1
    32    56    55   ar
    33    47    48   ar
    34    59    57   ar
    35    45    44    2
    36    55    57   ar
    37    55    54    1
    38    21    20    1
    39    20    17    1
    40    43    44    1
    41    43    42    1
    42    54    51    1
    43    19    18    2
    44    17    18    1
    45    17    16    1
    46    42    32   am
    47    18    22   am
    48    16    11   am
    49    51    52    1
    50    51    50    1
    51     4     3    2
    52    33    32    2
    53    32    31    1
    54    52    53    2
    55    22    23    1
    56    30    24   am
    57    30    31    1
    58    24    25    2
    59    24    23    1
    60    11    10    1
    61    11    12    2
    62    23    26    1
    63     3     9   am
    64     3     2    1
    65    31    34    1
    66    10     9    1
    67    10    13    1
    68     1     2    1
    69     7     5    1
    70     5     2    1
    71     5     6    1
    72    13    15    1
    73    13    14    1
    74    26    27    1
    75    34    35    1
    76     8     6    1
    77    35    36   ar
    78    35    37   ar
    79    36    38   ar
    80    37    39   ar
    81    38    40   ar
    82    39    40   ar
    83    40    41    1
    84    28    27    2
    85    27    29   am
