@<TRIPOS>MOLECULE
tmp/4aaaA00.pdb
 184 177 0 0 0
SMALL
GASTEIGER

@<TRIPOS>ATOM
      1  N         26.9310    6.8540   72.8590 N.3    15  VAL15      -0.1231
      2  CA        27.1260    8.1840   73.4580 C.3    15  VAL15       0.1692
      3  C         27.1300    9.3420   72.4290 C.2    15  VAL15       0.2593
      4  O         27.9040    9.3390   71.4720 O.2    15  VAL15      -0.2718
      5  CB        28.4110    8.1850   74.2600 C.3    15  VAL15       0.0266
      6  CG1       28.6610    9.6120   74.8310 C.3    15  VAL15       0.0020
      7  CG2       28.3450    7.0810   75.3230 C.3    15  VAL15       0.0020
      8  N         26.2070   10.2900   72.5530 N.am   16  GLY16      -0.1942
      9  CA        26.0800   11.3640   71.5540 C.3    16  GLY16       0.2014
     10  C         25.4660   11.0090   70.1900 C.2    16  GLY16       0.2638
     11  O         25.5530   11.7870   69.2420 O.2    16  GLY16      -0.2714
     12  N         24.8430    9.8340   70.0790 N.am   17  GLU17      -0.1977
     13  CA        24.0620    9.4850   68.8940 C.3    17  GLU17       0.1602
     14  C         24.8770    9.6140   67.5980 C.2    17  GLU17       0.2287
     15  O         24.3490   10.0510   66.5580 O.2    17  GLU17      -0.2864
     16  CB        22.8030   10.3650   68.7990 C.3    17  GLU17       0.0415
     17  CG        21.8020   10.1410   69.9230 C.3    17  GLU17       0.1163
     18  CD        22.0900   10.9540   71.1540 C.2    17  GLU17       0.3649
     19  OE1       22.4060   12.1380   71.0140 O.co2  17  GLU17      -0.2457
     20  OE2       21.9690   10.4140   72.2570 O.co2  17  GLU17      -0.2457
     21  N         27.8830   11.3580   67.3040 N.3    19  SER19      -0.1202
     22  CA        28.7730   12.4800   67.1820 C.3    19  SER19       0.2020
     23  C         30.1510   12.1740   67.7900 C.2    19  SER19       0.2618
     24  O         31.1140   12.8940   67.5190 O.2    19  SER19      -0.2717
     25  CB        28.1180   13.7420   67.7940 C.3    19  SER19       0.2103
     26  OG        28.1140   13.6540   69.1710 O.3    19  SER19      -0.2182
     27  N         30.2680   11.0830   68.5730 N.am   20  TYR20      -0.1975
     28  CA        31.5480   10.6430   69.0840 C.3    20  TYR20       0.1639
     29  C         32.0880    9.3620   68.4630 C.2    20  TYR20       0.2290
     30  O         33.0470    8.7670   68.9330 O.2    20  TYR20      -0.2864
     31  CB        31.4860   10.4420   70.6230 C.3    20  TYR20       0.0560
     32  CG        31.1400   11.6670   71.4490 C.ar   20  TYR20      -0.0198
     33  CD1       29.8090   12.0990   71.6090 C.ar   20  TYR20      -0.0009
     34  CD2       32.1060   12.3800   72.0430 C.ar   20  TYR20      -0.0009
     35  CE1       29.4930   13.2230   72.3470 C.ar   20  TYR20       0.0417
     36  CE2       31.8080   13.4700   72.8410 C.ar   20  TYR20       0.0417
     37  CZ        30.5070   13.8740   73.0370 C.ar   20  TYR20       0.1957
     38  OH        30.2630   14.9700   73.8090 O.3    20  TYR20      -0.2866
     39  N         31.3780    4.8820   70.6020 N.3    23  VAL23      -0.1245
     40  CA        31.4970    4.9090   72.0580 C.3    23  VAL23       0.1561
     41  C         30.1130    4.4970   72.5350 C.2    23  VAL23       0.2260
     42  O         29.1310    5.1880   72.2190 O.2    23  VAL23      -0.2867
     43  CB        31.8320    6.2730   72.5650 C.3    23  VAL23       0.0252
     44  CG1       31.8290    6.2520   74.1050 C.3    23  VAL23       0.0019
     45  CG2       33.1970    6.7580   72.0170 C.3    23  VAL23       0.0019
     46  N         30.4800    4.2940   79.7810 N.3    36  ALA36      -0.1245
     47  CA        30.8670    4.5540   78.3930 C.3    36  ALA36       0.1562
     48  C         32.0400    3.6290   78.0590 C.2    36  ALA36       0.2260
     49  O         33.0100    3.5520   78.8130 O.2    36  ALA36      -0.2867
     50  CB        31.2340    6.0040   78.2700 C.3    36  ALA36       0.0290
     51  N         34.8450    2.3540   75.0430 N.3    38  LYS38      -0.1245
     52  CA        35.4980    2.7380   73.7760 C.3    38  LYS38       0.1561
     53  C         36.6190    1.7270   73.5090 C.2    38  LYS38       0.2260
     54  O         37.3100    1.2840   74.4230 O.2    38  LYS38      -0.2867
     55  CB        36.0310    4.1710   73.8180 C.3    38  LYS38       0.0271
     56  CG        36.4230    4.7160   72.4690 C.3    38  LYS38       0.0035
     57  CD        37.3900    5.8940   72.6040 C.3    38  LYS38       0.0206
     58  CE        38.1300    6.1680   71.2820 C.3    38  LYS38       0.1093
     59  NZ        38.6520    4.9030   70.6430 N.3    38  LYS38      -0.1314
     60  N         37.2160   12.2990   84.3170 N.3    69  VAL69      -0.1245
     61  CA        36.4140   11.0930   84.1430 C.3    69  VAL69       0.1561
     62  C         37.0970    9.8720   84.7290 C.2    69  VAL69       0.2260
     63  O         38.3180    9.6990   84.5980 O.2    69  VAL69      -0.2867
     64  CB        36.0380   10.8520   82.6710 C.3    69  VAL69       0.0252
     65  CG1       37.2310   10.4100   81.8590 C.3    69  VAL69       0.0019
     66  CG2       34.8480    9.8840   82.5550 C.3    69  VAL69       0.0019
     67  N         34.5780    3.6040   81.1860 N.3    85  PHE85      -0.1227
     68  CA        34.5540    4.7930   82.0130 C.3    85  PHE85       0.1736
     69  C         33.1800    4.9480   82.6530 C.2    85  PHE85       0.2595
     70  O         32.1860    4.4920   82.1020 O.2    85  PHE85      -0.2718
     71  CB        34.8110    6.0240   81.1390 C.3    85  PHE85       0.0547
     72  CG        36.1830    6.0660   80.5750 C.ar   85  PHE85      -0.0202
     73  CD1       37.2250    6.6300   81.3230 C.ar   85  PHE85      -0.0042
     74  CD2       36.4380    5.5590   79.3130 C.ar   85  PHE85      -0.0042
     75  CE1       38.5320    6.6250   80.8090 C.ar   85  PHE85      -0.0003
     76  CE2       37.7350    5.6210   78.7970 C.ar   85  PHE85      -0.0003
     77  CZ        38.7590    6.1200   79.5620 C.ar   85  PHE85      -0.0000
     78  N         33.1190    5.5990   83.8090 N.am   86  GLU86      -0.1965
     79  CA        31.8690    6.0170   84.4350 C.3    86  GLU86       0.1733
     80  C         31.1090    6.8830   83.4480 C.2    86  GLU86       0.2616
     81  O         31.7010    7.7790   82.8840 O.2    86  GLU86      -0.2715
     82  CB        32.1640    6.8860   85.6710 C.3    86  GLU86       0.0429
     83  CG        32.8000    8.2530   85.3640 C.3    86  GLU86       0.1163
     84  CD        32.9340    9.1840   86.5690 C.2    86  GLU86       0.3649
     85  OE1       32.0110    9.2820   87.3790 O.co2  86  GLU86      -0.2457
     86  OE2       33.9370    9.8970   86.6760 O.co2  86  GLU86      -0.2457
     87  N         29.8140    6.6520   83.2300 N.am   87  PHE87      -0.1960
     88  CA        29.0530    7.5070   82.3730 C.3    87  PHE87       0.1771
     89  C         28.6570    8.7430   83.1430 C.2    87  PHE87       0.2619
     90  O         28.1470    8.6580   84.2700 O.2    87  PHE87      -0.2715
     91  CB        27.7590    6.7800   81.8760 C.3    87  PHE87       0.0574
     92  CG        26.9200    7.6630   80.9680 C.ar   87  PHE87      -0.0200
     93  CD1       27.2760    7.8150   79.6340 C.ar   87  PHE87      -0.0042
     94  CD2       25.7930    8.2920   81.4440 C.ar   87  PHE87      -0.0042
     95  CE1       26.5230    8.6530   78.7900 C.ar   87  PHE87      -0.0003
     96  CE2       25.0130    9.0910   80.5920 C.ar   87  PHE87      -0.0003
     97  CZ        25.4020    9.2730   79.2990 C.ar   87  PHE87      -0.0000
     98  N         28.8160    9.9090   82.4980 N.am   88  VAL88      -0.1963
     99  CA        28.5370   11.2010   83.1130 C.3    88  VAL88       0.1727
    100  C         27.2830   11.7050   82.4100 C.2    88  VAL88       0.2616
    101  O         27.1480   11.6030   81.1970 O.2    88  VAL88      -0.2715
    102  CB        29.7080   12.1440   82.9780 C.3    88  VAL88       0.0290
    103  CG1       29.3830   13.4640   83.7030 C.3    88  VAL88       0.0023
    104  CG2       31.0020   11.5050   83.5110 C.3    88  VAL88       0.0023
    105  N         26.3710   12.3050   83.1720 N.am   89  ASP89      -0.1957
    106  CA        25.0410   12.4740   82.5720 C.3    89  ASP89       0.1840
    107  C         24.9360   13.4690   81.3820 C.2    89  ASP89       0.2622
    108  O         24.1470   13.1810   80.4700 O.2    89  ASP89      -0.2715
    109  CB        23.9300   12.6680   83.6210 C.3    89  ASP89       0.1450
    110  CG        23.1380   11.3740   83.8940 C.2    89  ASP89       0.3671
    111  OD1       23.6130   10.2760   83.5780 O.co2  89  ASP89      -0.2456
    112  OD2       22.0230   11.4440   84.4320 O.co2  89  ASP89      -0.2456
    113  N         25.6820   14.5540   81.3510 N.am   90  HIS90      -0.1959
    114  CA        25.5970   15.4850   80.2090 C.3    90  HIS90       0.1787
    115  C         26.8770   16.1780   79.9360 C.2    90  HIS90       0.2620
    116  O         27.9290   15.7980   80.4360 O.2    90  HIS90      -0.2715
    117  CB        24.4470   16.4840   80.3270 C.3    90  HIS90       0.0785
    118  CG        24.6000   17.4960   81.4400 C.ar   90  HIS90       0.0821
    119  ND1       24.3290   17.1930   82.7240 N.ar   90  HIS90      -0.2267
    120  CD2       24.9620   18.8400   81.4250 C.ar   90  HIS90       0.1154
    121  CE1       24.5220   18.2810   83.4890 C.ar   90  HIS90       0.1986
    122  NE2       24.8960   19.2910   82.6970 N.ar   90  HIS90      -0.2212
    123  N         26.8680   17.1260   78.9820 N.am   91  THR91      -0.1951
    124  CA        28.0150   17.9630   78.6610 C.3    91  THR91       0.1897
    125  C         27.6030   19.4110   78.7070 C.2    91  THR91       0.2313
    126  O         26.4070   19.7080   78.7530 O.2    91  THR91      -0.2863
    127  CB        28.6080   17.6440   77.2750 C.3    91  THR91       0.1794
    128  OG1       27.8190   18.2830   76.2700 O.3    91  THR91      -0.2208
    129  CG2       28.7110   16.1750   77.0020 C.3    91  THR91       0.0378
    130  N         27.4930   21.3460   76.3570 N.3    93  LEU93      -0.1231
    131  CA        26.6650   21.6540   75.1840 C.3    93  LEU93       0.1693
    132  C         25.1750   21.4380   75.4380 C.2    93  LEU93       0.2592
    133  O         24.3360   22.0800   74.7970 O.2    93  LEU93      -0.2718
    134  CB        27.1400   20.8440   73.9560 C.3    93  LEU93       0.0284
    135  CG        28.5070   21.2510   73.4370 C.3    93  LEU93       0.0019
    136  CD1       28.9360   20.3440   72.2900 C.3    93  LEU93       0.0001
    137  CD2       28.5170   22.7350   73.0280 C.3    93  LEU93       0.0001
    138  N         24.8430   20.5320   76.3520 N.am   94  ASP94      -0.1974
    139  CA        23.4740   20.3200   76.7770 C.3    94  ASP94       0.1709
    140  C         22.9210   21.5800   77.4660 C.2    94  ASP94       0.2293
    141  O         21.7820   21.9890   77.2140 O.2    94  ASP94      -0.2864
    142  CB        23.3670   19.0270   77.6240 C.3    94  ASP94       0.1436
    143  CG        23.6930   17.7650   76.7960 C.2    94  ASP94       0.3671
    144  OD1       23.0690   17.5540   75.7540 O.co2  94  ASP94      -0.2456
    145  OD2       24.6120   16.9870   77.1100 O.co2  94  ASP94      -0.2456
    146  N         32.4570   19.5400   73.7420 N.3   135  GLU135     -0.1231
    147  CA        32.0030   18.1630   73.7130 C.3   135  GLU135      0.1699
    148  C         32.7560   17.2380   74.6440 C.2   135  GLU135      0.2592
    149  O         32.2130   16.1740   74.9620 O.2   135  GLU135     -0.2718
    150  CB        32.0480   17.5980   72.2980 C.3   135  GLU135      0.0402
    151  CG        33.4470   17.4150   71.7920 C.3   135  GLU135      0.1161
    152  CD        33.4430   17.2680   70.2730 C.2   135  GLU135      0.3649
    153  OE1       33.2620   18.2910   69.5620 O.co2 135  GLU135     -0.2457
    154  OE2       33.5750   16.1220   69.8130 O.co2 135  GLU135     -0.2457
    155  N         33.9260   17.6310   75.1440 N.am  136  ASN136     -0.1974
    156  CA        34.5980   16.7770   76.1430 C.3   136  ASN136      0.1688
    157  C         34.5910   17.3550   77.5650 C.2   136  ASN136      0.2292
    158  O         35.2910   16.8310   78.4520 O.2   136  ASN136     -0.2864
    159  CB        35.9980   16.3040   75.6970 C.3   136  ASN136      0.1181
    160  CG        36.9530   17.4070   75.3120 C.2   136  ASN136      0.2629
    161  OD1       37.1430   18.3650   76.0390 O.2   136  ASN136     -0.2716
    162  ND2       37.6500   17.1940   74.1250 N.am  136  ASN136     -0.0877
    163  N         32.3590   17.1910   80.3110 N.3   138  LEU138     -0.1245
    164  CA        31.1880   16.5070   80.8210 C.3   138  LEU138      0.1561
    165  C         30.7400   17.1260   82.1620 C.2   138  LEU138      0.2260
    166  O         31.5460   17.7600   82.8490 O.2   138  LEU138     -0.2867
    167  CB        31.4720   15.0140   81.0080 C.3   138  LEU138      0.0270
    168  CG        32.3030   14.3240   79.9080 C.3   138  LEU138      0.0019
    169  CD1       32.5870   12.8960   80.3070 C.3   138  LEU138      0.0001
    170  CD2       31.5850   14.3900   78.5650 C.3   138  LEU138      0.0001
    171  N         37.6610   14.7530   79.8590 N.3   148  CYS148     -0.1221
    172  CA        37.9580   13.5030   79.1960 C.3   148  CYS148      0.1808
    173  C         38.6110   13.6910   77.8250 C.2   148  CYS148      0.2601
    174  O         38.7170   14.8230   77.3390 O.2   148  CYS148     -0.2717
    175  CB        36.6910   12.6850   79.0720 C.3   148  CYS148      0.0970
    176  SG        35.5280   13.2610   77.8660 S.3   148  CYS148     -0.0800
    177  N         39.0050   12.5560   77.2310 N.am  149  ASP149     -0.1973
    178  CA        39.5360   12.4970   75.8770 C.3   149  ASP149      0.1709
    179  C         40.8310   13.2860   75.7130 C.2   149  ASP149      0.2293
    180  O         41.0240   14.0610   74.7590 O.2   149  ASP149     -0.2864
    181  CB        38.5180   12.9080   74.8680 C.3   149  ASP149      0.1436
    182  CG        38.8670   12.3800   73.4520 C.2   149  ASP149      0.3671
    183  OD1       39.5050   11.3110   73.3720 O.co2 149  ASP149     -0.2456
    184  OD2       38.4520   13.0150   72.5200 O.co2 149  ASP149     -0.2456
@<TRIPOS>BOND
     1    15    14    2
     2    22    21    1
     3    22    23    1
     4    22    25    1
     5    24    23    2
     6    14    13    1
     7    23    27   am
     8    25    26    1
     9    29    30    2
    10    29    28    1
    11    27    28    1
    12    16    13    1
    13    16    17    1
    14    13    12    1
    15    28    31    1
    16    11    10    2
    17   153   152   ar
    18   154   152   ar
    19    17    18    1
    20    12    10   am
    21    10     9    1
    22   152   151    1
    23    39    40    1
    24    31    32    1
    25    59    58    1
    26    19    18   ar
    27    18    20   ar
    28    58    57    1
    29    32    33   ar
    30    32    34   ar
    31     4     3    2
    32     9     8    1
    33    33    35   ar
    34   151   150    1
    35    45    43    1
    36    34    36   ar
    37    40    41    1
    38    40    43    1
    39    42    41    2
    40   136   135    1
    41   150   147    1
    42    35    37   ar
    43     3     8   am
    44     3     2    1
    45    56    57    1
    46    56    55    1
    47   184   182   ar
    48    43    44    1
    49    36    37   ar
    50     1     2    1
    51   137   135    1
    52    37    38    1
    53   183   182   ar
    54   135   134    1
    55   182   181    1
    56     2     5    1
    57    53    52    1
    58    53    54    2
    59   147   146    1
    60   147   148    1
    61    52    55    1
    62    52    51    1
    63   134   131    1
    64   162   160   am
    65     5     6    1
    66     5     7    1
    67   148   149    2
    68   148   155   am
    69   180   179    2
    70   133   132    2
    71   181   178    1
    72   155   156    1
    73   131   132    1
    74   131   130    1
    75   160   159    1
    76   160   161    2
    77   132   138   am
    78   159   156    1
    79   179   178    1
    80   144   143   ar
    81   178   177    1
    82   156   157    1
    83   128   127    1
    84   138   139    1
    85   139   140    1
    86   139   142    1
    87   143   145   ar
    88   143   142    1
    89   129   127    1
    90   141   140    2
    91   177   173   am
    92   127   124    1
    93   174   173    2
    94   157   158    2
    95   173   172    1
    96   176   175    1
    97    48    47    1
    98    48    49    2
    99    50    47    1
   100    47    46    1
   101   170   168    1
   102   124   125    1
   103   124   123    1
   104   125   126    2
   105    95    97   ar
   106    95    93   ar
   107    76    74   ar
   108    76    77   ar
   109   123   115   am
   110   175   172    1
   111   172   171    1
   112    97    96   ar
   113    74    72   ar
   114    77    75   ar
   115    93    92   ar
   116   168   169    1
   117   168   167    1
   118   115   114    1
   119   115   116    2
   120   114   117    1
   121   114   113    1
   122   163   164    1
   123   117   118    1
   124   108   107    2
   125    72    71    1
   126    72    73   ar
   127    96    94   ar
   128    75    73   ar
   129   164   167    1
   130   164   165    1
   131    92    94   ar
   132    92    91    1
   133    71    68    1
   134    67    68    1
   135   101   100    2
   136   113   107   am
   137   107   106    1
   138   120   118   ar
   139   120   122   ar
   140   118   119   ar
   141    65    64    1
   142    91    88    1
   143    68    69    1
   144    70    69    2
   145   165   166    2
   146    88    89    1
   147    88    87    1
   148   100    99    1
   149   100   105   am
   150    98    99    1
   151    98    89   am
   152    66    64    1
   153   106   105    1
   154   106   109    1
   155    69    78   am
   156    64    61    1
   157   122   121   ar
   158   119   121   ar
   159    81    80    2
   160   102    99    1
   161   102   104    1
   162   102   103    1
   163    89    90    2
   164    87    80   am
   165    80    79    1
   166   111   110   ar
   167   109   110    1
   168    78    79    1
   169   110   112   ar
   170    61    60    1
   171    61    62    1
   172    79    82    1
   173    63    62    2
   174    83    82    1
   175    83    84    1
   176    84    86   ar
   177    84    85   ar
