@<TRIPOS>MOLECULE
tmp/4aacA00.pdb
 193 183 0 0 0
SMALL
GASTEIGER

@<TRIPOS>ATOM
      1  N         -8.0430    2.4440   28.5240 N.3    26  VAL26      -0.1231
      2  CA        -6.6200    2.1980   28.8870 C.3    26  VAL26       0.1692
      3  C         -5.6480    3.3790   28.6150 C.2    26  VAL26       0.2593
      4  O         -4.4180    3.2160   28.6390 O.2    26  VAL26      -0.2718
      5  CB        -6.0750    0.8990   28.2340 C.3    26  VAL26       0.0266
      6  CG1       -6.7830   -0.3270   28.7860 C.3    26  VAL26       0.0020
      7  CG2       -6.1710    0.9510   26.7050 C.3    26  VAL26       0.0020
      8  N         -6.2110    4.5590   28.3470 N.am   27  GLY27      -0.1942
      9  CA        -5.4440    5.7840   28.1360 C.3    27  GLY27       0.2014
     10  C         -5.4020    6.1810   26.6830 C.2    27  GLY27       0.2640
     11  O         -6.0510    5.5620   25.8290 O.2    27  GLY27      -0.2714
     12  N         -4.6060    7.2000   26.3930 N.am   28  SER28      -0.1935
     13  CA        -4.5450    7.7720   25.0580 C.3    28  SER28       0.2055
     14  C         -3.6670    6.9570   24.1680 C.2    28  SER28       0.2644
     15  O         -2.6210    6.5010   24.6180 O.2    28  SER28      -0.2714
     16  CB        -3.9530    9.1740   25.1280 C.3    28  SER28       0.2130
     17  OG        -4.8030   10.0310   25.8570 O.3    28  SER28      -0.2179
     18  N         -4.1030    6.7700   22.9150 N.am   29  GLY29      -0.1939
     19  CA        -3.2370    6.3460   21.8120 C.3    29  GLY29       0.2014
     20  C         -3.0690    7.5250   20.8330 C.2    29  GLY29       0.2638
     21  O         -3.3780    8.6900   21.1650 O.2    29  GLY29      -0.2714
     22  N         -2.6010    7.2700   19.6180 N.am   30  ALA30      -0.1977
     23  CA        -2.2850    8.4120   18.7720 C.3    30  ALA30       0.1597
     24  C         -3.5400    9.0200   18.1770 C.2    30  ALA30       0.2287
     25  O         -4.1810    8.4020   17.3020 O.2    30  ALA30      -0.2864
     26  CB        -1.2840    8.0540   17.6890 C.3    30  ALA30       0.0319
     27  N         -8.3020    5.0880   23.7400 N.3    34  VAL34      -0.1245
     28  CA        -8.2880    3.6580   23.3930 C.3    34  VAL34       0.1561
     29  C         -9.0870    2.8480   24.4270 C.2    34  VAL34       0.2260
     30  O         -8.9960    3.0840   25.6330 O.2    34  VAL34      -0.2867
     31  CB        -6.8250    3.1140   23.2400 C.3    34  VAL34       0.0252
     32  CG1       -6.7850    1.5930   23.0960 C.3    34  VAL34       0.0019
     33  CG2       -6.1550    3.7780   22.0590 C.3    34  VAL34       0.0019
     34  N         -8.2590   -3.7840   20.7320 N.3    47  ALA47      -0.1231
     35  CA        -8.1640   -2.4060   21.1650 C.3    47  ALA47       0.1694
     36  C         -8.9950   -1.5920   20.1860 C.2    47  ALA47       0.2592
     37  O         -8.8830   -1.7870   18.9730 O.2    47  ALA47      -0.2718
     38  CB        -6.7050   -1.9440   21.1720 C.3    47  ALA47       0.0304
     39  N         -9.8460   -0.7010   20.6910 N.am   48  VAL48      -0.1966
     40  CA       -10.6330    0.1540   19.7970 C.3    48  VAL48       0.1727
     41  C        -10.2040    1.5840   20.0200 C.2    48  VAL48       0.2616
     42  O        -10.2300    2.0420   21.1520 O.2    48  VAL48      -0.2715
     43  CB       -12.1740    0.0330   20.0460 C.3    48  VAL48       0.0290
     44  CG1      -12.9540    0.5150   18.8280 C.3    48  VAL48       0.0023
     45  CG2      -12.5900   -1.3890   20.4020 C.3    48  VAL48       0.0023
     46  N         -9.7960    2.2970   18.9770 N.am   49  LYS49      -0.1977
     47  CA        -9.4670    3.7170   19.1470 C.3    49  LYS49       0.1596
     48  C        -10.5350    4.6460   18.5940 C.2    49  LYS49       0.2287
     49  O        -10.8210    4.6010   17.3850 O.2    49  LYS49      -0.2864
     50  CB        -8.1390    4.0640   18.4760 C.3    49  LYS49       0.0298
     51  CG        -7.7050    5.5170   18.7070 C.3    49  LYS49       0.0038
     52  CD        -6.2070    5.7110   18.5210 C.3    49  LYS49       0.0206
     53  CE        -5.8490    5.5240   17.0430 C.3    49  LYS49       0.1093
     54  NZ        -4.5040    5.9770   16.6330 N.3    49  LYS49      -0.1314
     55  N         -3.6560    7.6250    8.6470 N.3    67  GLU67      -0.1245
     56  CA        -3.6960    6.4980    9.5920 C.3    67  GLU67       0.1567
     57  C         -4.3990    5.3100    8.9770 C.2    67  GLU67       0.2260
     58  O         -3.8660    4.1960    8.9660 O.2    67  GLU67      -0.2867
     59  CB        -4.3050    6.8860   10.9650 C.3    67  GLU67       0.0388
     60  CG        -4.5150    5.6630   11.8780 C.3    67  GLU67       0.1160
     61  CD        -4.5060    5.9460   13.3800 C.2    67  GLU67       0.3649
     62  OE1       -4.6810    7.1290   13.7730 O.co2  67  GLU67      -0.2457
     63  OE2       -4.3450    4.9660   14.1690 O.co2  67  GLU67      -0.2457
     64  N         -2.4600    3.6420    6.1190 N.3    70  LEU70      -0.1231
     65  CA        -1.3070    2.9240    6.6710 C.3    70  LEU70       0.1693
     66  C         -1.7600    1.5870    7.2180 C.2    70  LEU70       0.2591
     67  O         -1.3170    0.5410    6.7510 O.2    70  LEU70      -0.2718
     68  CB        -0.6000    3.7510    7.7530 C.3    70  LEU70       0.0284
     69  CG         0.3680    4.8050    7.2070 C.3    70  LEU70       0.0019
     70  CD1        0.7820    5.8530    8.2430 C.3    70  LEU70       0.0001
     71  CD2        1.6080    4.1490    6.6290 C.3    70  LEU70       0.0001
     72  N         -2.6990    1.6470    8.1620 N.am   71  LEU71      -0.1980
     73  CA        -3.2860    0.4730    8.7980 C.3    71  LEU71       0.1596
     74  C         -3.8220   -0.5320    7.7950 C.2    71  LEU71       0.2287
     75  O         -3.5860   -1.7200    7.9430 O.2    71  LEU71      -0.2864
     76  CB        -4.4240    0.9090    9.7210 C.3    71  LEU71       0.0297
     77  CG        -4.1670    1.1380   11.2100 C.3    71  LEU71       0.0022
     78  CD1       -2.7190    0.9470   11.6430 C.3    71  LEU71       0.0001
     79  CD2       -4.7030    2.4950   11.5910 C.3    71  LEU71       0.0001
     80  N          1.5970   -3.6910   13.5460 N.3    80  ILE80      -0.1245
     81  CA         0.1700   -3.6440   13.8760 C.3    80  ILE80       0.1561
     82  C         -0.6580   -3.4770   12.6100 C.2    80  ILE80       0.2260
     83  O         -0.2950   -2.7010   11.7120 O.2    80  ILE80      -0.2867
     84  CB        -0.1500   -2.5760   14.9200 C.3    80  ILE80       0.0252
     85  CG1       -1.4950   -2.8720   15.5740 C.3    80  ILE80       0.0019
     86  CG2       -0.1600   -1.1810   14.2920 C.3    80  ILE80       0.0019
     87  CD1       -1.4950   -4.0140   16.5290 C.3    80  ILE80       0.0001
     88  N        -10.9790    2.7910   14.9850 N.3   100  LEU100     -0.1245
     89  CA       -10.0900    1.7720   14.4340 C.3   100  LEU100      0.1561
     90  C         -9.8800    0.5910   15.4050 C.2   100  LEU100      0.2260
     91  O         -9.7490    0.7810   16.6140 O.2   100  LEU100     -0.2867
     92  CB        -8.7690    2.3980   14.0330 C.3   100  LEU100      0.0270
     93  CG        -8.8940    3.6750   13.2150 C.3   100  LEU100      0.0019
     94  CD1       -7.5950    4.4550   13.2600 C.3   100  LEU100      0.0001
     95  CD2       -9.3600    3.4590   11.7770 C.3   100  LEU100      0.0001
     96  N         -7.7940   -2.9860   16.3630 N.3   102  THR102     -0.1203
     97  CA        -6.5730   -3.7610   16.1980 C.3   102  THR102      0.1994
     98  C         -6.5860   -4.8540   17.2630 C.2   102  THR102      0.2618
     99  O         -7.4890   -4.8710   18.0930 O.2   102  THR102     -0.2717
    100  CB        -5.2850   -2.9090   16.3820 C.3   102  THR102      0.1784
    101  OG1       -5.0390   -2.6920   17.7830 O.3   102  THR102     -0.2211
    102  CG2       -5.3790   -1.5520   15.6550 C.3   102  THR102      0.0376
    103  N         -5.5840   -5.7470   17.2310 N.am  103  HIS103     -0.1961
    104  CA        -5.3830   -6.7490   18.2630 C.3   103  HIS103      0.1787
    105  C         -5.0000   -5.9930   19.4990 C.2   103  HIS103      0.2620
    106  O         -4.4110   -4.9070   19.4100 O.2   103  HIS103     -0.2715
    107  CB        -4.2240   -7.6840   17.9110 C.3   103  HIS103      0.0785
    108  CG        -4.5040   -8.6450   16.7780 C.ar  103  HIS103      0.0821
    109  ND1       -5.0810   -9.8580   16.9750 N.ar  103  HIS103     -0.2267
    110  CD2       -4.2250   -8.5600   15.4050 C.ar  103  HIS103      0.1154
    111  CE1       -5.1810  -10.5040   15.7920 C.ar  103  HIS103      0.1986
    112  NE2       -4.6460   -9.7120   14.8350 N.ar  103  HIS103     -0.2212
    113  N         -5.2960   -6.5720   20.6570 N.am  104  LEU104     -0.1963
    114  CA        -4.9060   -5.9970   21.9510 C.3   104  LEU104      0.1728
    115  C         -3.7040   -6.7450   22.5170 C.2   104  LEU104      0.2616
    116  O         -3.8600   -7.8420   23.0510 O.2   104  LEU104     -0.2715
    117  CB        -6.0630   -6.0610   22.9650 C.3   104  LEU104      0.0311
    118  CG        -5.7270   -5.5290   24.3670 C.3   104  LEU104      0.0022
    119  CD1       -5.7120   -4.0120   24.3910 C.3   104  LEU104      0.0001
    120  CD2       -6.7070   -6.0530   25.3930 C.3   104  LEU104      0.0001
    121  N         -2.5140   -6.1600   22.4140 N.am  105  MET105     -0.1963
    122  CA        -1.3210   -6.8130   22.9880 C.3   105  MET105      0.1736
    123  C         -1.2620   -6.4990   24.4820 C.2   105  MET105      0.2617
    124  O         -1.5730   -5.3520   24.9000 O.2   105  MET105     -0.2715
    125  CB        -0.0200   -6.3510   22.3170 C.3   105  MET105      0.0427
    126  CG        -0.0080   -6.3750   20.7920 C.3   105  MET105      0.0599
    127  SD        -0.0130   -8.0230   20.0820 S.3   105  MET105     -0.1393
    128  CE         1.6170   -8.6190   20.5520 C.3   105  MET105      0.0692
    129  N         -0.8810   -7.4930   25.2830 N.am  106  GLY106     -0.1940
    130  CA        -0.7060   -7.2640   26.7250 C.3   106  GLY106      0.2014
    131  C         -0.2780   -5.8380   27.1020 C.2   106  GLY106      0.2639
    132  O         -1.0180   -5.0860   27.7210 O.2   106  GLY106     -0.2714
    133  N          0.9220   -5.4570   26.7120 N.am  107  ALA107     -0.1963
    134  CA         1.5260   -4.2530   27.2430 C.3   107  ALA107      0.1728
    135  C          2.3830   -3.6120   26.1620 C.2   107  ALA107      0.2616
    136  O          2.1670   -3.8640   24.9780 O.2   107  ALA107     -0.2715
    137  CB         2.3720   -4.6240   28.4600 C.3   107  ALA107      0.0334
    138  N          3.3550   -2.7920   26.5630 N.am  108  ASP108     -0.1971
    139  CA         4.3880   -2.3250   25.6400 C.3   108  ASP108      0.1709
    140  C          5.7520   -2.2700   26.3050 C.2   108  ASP108      0.2293
    141  O          5.8620   -2.4740   27.5240 O.2   108  ASP108     -0.2864
    142  CB         4.0210   -0.9860   24.9910 C.3   108  ASP108      0.1436
    143  CG         3.5780    0.0580   26.0000 C.2   108  ASP108      0.3671
    144  OD1        4.4510    0.6180   26.7190 O.co2 108  ASP108     -0.2456
    145  OD2        2.3470    0.3290   26.0470 O.co2 108  ASP108     -0.2456
    146  N          6.2690   -0.5780   29.6030 N.3   111  ASN111     -0.1240
    147  CA         5.8910   -1.3570   30.7960 C.3   111  ASN111      0.1653
    148  C          7.0030   -2.3240   31.2110 C.2   111  ASN111      0.2266
    149  O          7.4730   -2.3130   32.3660 O.2   111  ASN111     -0.2867
    150  CB         4.6190   -2.1890   30.5240 C.3   111  ASN111      0.1155
    151  CG         3.4440   -1.3500   30.0210 C.2   111  ASN111      0.2627
    152  OD1        2.8450   -0.5780   30.7720 O.2   111  ASN111     -0.2716
    153  ND2        3.0980   -1.5160   28.7510 N.am  111  ASN111     -0.0877
    154  N          4.3210   -2.6380   21.2730 N.3   148  ALA148     -0.1245
    155  CA         3.4140   -3.5400   22.0070 C.3   148  ALA148      0.1562
    156  C          3.8790   -5.0140   21.9980 C.2   148  ALA148      0.2260
    157  O          4.2840   -5.5430   20.9540 O.2   148  ALA148     -0.2867
    158  CB         1.9960   -3.4200   21.4600 C.3   148  ALA148      0.0290
    159  N          3.5850   -0.1270   16.5910 N.3   158  LEU158     -0.1231
    160  CA         2.4430    0.7630   16.4370 C.3   158  LEU158      0.1693
    161  C          2.8560    2.1880   16.0090 C.2   158  LEU158      0.2592
    162  O          3.9810    2.6160   16.2330 O.2   158  LEU158     -0.2718
    163  CB         1.6780    0.8580   17.7710 C.3   158  LEU158      0.0284
    164  CG         1.3200   -0.3770   18.6180 C.3   158  LEU158      0.0019
    165  CD1        0.3800   -0.0670   19.7680 C.3   158  LEU158      0.0001
    166  CD2        0.7250   -1.4780   17.7880 C.3   158  LEU158      0.0001
    167  N          1.9080    2.9170   15.4280 N.am  159  ASP159     -0.1960
    168  CA         1.9980    4.3810   15.1960 C.3   159  ASP159      0.1840
    169  C          3.0770    4.8610   14.2190 C.2   159  ASP159      0.2622
    170  O          3.4190    6.0360   14.2340 O.2   159  ASP159     -0.2715
    171  CB         2.1410    5.1810   16.5020 C.3   159  ASP159      0.1450
    172  CG         1.0270    4.9220   17.5010 C.2   159  ASP159      0.3671
    173  OD1       -0.0560    4.3970   17.1540 O.co2 159  ASP159     -0.2456
    174  OD2        1.2600    5.2810   18.6640 O.co2 159  ASP159     -0.2456
    175  N          3.5780    3.9790   13.3620 N.am  160  PHE160     -0.1974
    176  CA         4.5630    4.3720   12.3430 C.3   160  PHE160      0.1639
    177  C          3.9350    5.3320   11.3360 C.2   160  PHE160      0.2290
    178  O          2.7130    5.3090   11.1070 O.2   160  PHE160     -0.2864
    179  CB         5.1170    3.1200   11.6260 C.3   160  PHE160      0.0560
    180  CG         4.0500    2.1480   11.2360 C.ar  160  PHE160     -0.0200
    181  CD1        3.6430    1.1460   12.1330 C.ar  160  PHE160     -0.0042
    182  CD2        3.4160    2.2580   10.0120 C.ar  160  PHE160     -0.0042
    183  CE1        2.6230    0.2920   11.8070 C.ar  160  PHE160     -0.0003
    184  CE2        2.3980    1.3900    9.6770 C.ar  160  PHE160     -0.0003
    185  CZ         2.0120    0.4010   10.5680 C.ar  160  PHE160     -0.0000
    186  N          3.3670    8.6140   11.3980 N.3   162  LEU162     -0.1245
    187  CA         2.4750    9.7130   11.7680 C.3   162  LEU162      0.1561
    188  C          3.2110   11.0010   11.9930 C.2   162  LEU162      0.2260
    189  O          2.7070   12.0540   11.6250 O.2   162  LEU162     -0.2867
    190  CB         1.5980    9.3430   12.9750 C.3   162  LEU162      0.0270
    191  CG         0.6890    8.1050   12.8240 C.3   162  LEU162      0.0019
    192  CD1       -0.1210    7.8600   14.0970 C.3   162  LEU162      0.0001
    193  CD2       -0.2030    8.1730   11.5820 C.3   162  LEU162      0.0001
@<TRIPOS>BOND
     1    64    65    1
     2    71    69    1
     3    65    66    1
     4    65    68    1
     5    67    66    2
     6    69    68    1
     7    69    70    1
     8    66    72   am
     9    74    75    2
    10    74    73    1
    11    72    73    1
    12    55    56    1
    13    73    76    1
    14    58    57    2
    15    57    56    1
    16    56    59    1
    17   184   182   ar
    18   184   185   ar
    19    76    77    1
    20   182   180   ar
    21   185   183   ar
    22    59    60    1
    23   178   177    2
    24    77    79    1
    25    77    78    1
    26   180   179    1
    27   180   181   ar
    28   177   176    1
    29   186   187    1
    30   193   191    1
    31   189   188    2
    32   179   176    1
    33    83    82    2
    34   187   188    1
    35   187   190    1
    36    95    93    1
    37   183   181   ar
    38    60    61    1
    39   176   175    1
    40    82    81    1
    41   191   190    1
    42   191   192    1
    43    93    94    1
    44    93    92    1
    45   175   169   am
    46    61    62   ar
    47    61    63   ar
    48    80    81    1
    49    81    84    1
    50    92    89    1
    51   169   170    2
    52   169   168    1
    53    86    84    1
    54    89    88    1
    55    89    90    1
    56   112   110   ar
    57   112   111   ar
    58    84    85    1
    59   168   167    1
    60   168   171    1
    61    90    91    2
    62   110   108   ar
    63   167   161   am
    64    85    87    1
    65   102   100    1
    66   111   109   ar
    67   161   162    2
    68   161   160    1
    69    97    96    1
    70    97   100    1
    71    97    98    1
    72   100   101    1
    73   160   159    1
    74   160   163    1
    75   171   172    1
    76    54    53    1
    77   108   109   ar
    78   108   107    1
    79    53    52    1
    80   173   172   ar
    81   103    98   am
    82   103   104    1
    83    98    99    2
    84    25    24    2
    85    49    48    2
    86   172   174   ar
    87    26    23    1
    88   163   164    1
    89   166   164    1
    90   107   104    1
    91    24    23    1
    92   104   105    1
    93    50    51    1
    94    50    47    1
    95    52    51    1
    96    48    47    1
    97   164   165    1
    98    23    22    1
    99    44    43    1
   100    37    36    2
   101    46    47    1
   102    46    41   am
   103   106   105    2
   104   105   113   am
   105    22    20   am
   106    40    41    1
   107    40    43    1
   108    40    39    1
   109    41    42    2
   110    43    45    1
   111   127   128    1
   112   127   126    1
   113    36    39   am
   114    36    35    1
   115   113   114    1
   116    34    35    1
   117   126   125    1
   118    20    21    2
   119    20    19    1
   120   157   156    2
   121    35    38    1
   122   154   155    1
   123   158   155    1
   124    19    18    1
   125   114   115    1
   126   114   117    1
   127   156   155    1
   128    33    31    1
   129   125   122    1
   130   121   115   am
   131   121   122    1
   132   115   116    2
   133    18    14   am
   134   117   118    1
   135   122   123    1
   136    32    31    1
   137    31    28    1
   138    28    27    1
   139    28    29    1
   140    14    15    2
   141    14    13    1
   142   118   119    1
   143   118   120    1
   144    29    30    2
   145   123   124    2
   146   123   129   am
   147   136   135    2
   148   142   139    1
   149   142   143    1
   150    13    16    1
   151    13    12    1
   152    16    17    1
   153   129   130    1
   154   139   140    1
   155   139   138    1
   156    11    10    2
   157   143   145   ar
   158   143   144   ar
   159   135   138   am
   160   135   134    1
   161   140   141    2
   162    12    10   am
   163    10     9    1
   164     7     5    1
   165   133   131   am
   166   133   134    1
   167   130   131    1
   168   131   132    2
   169   134   137    1
   170     9     8    1
   171     5     6    1
   172     5     2    1
   173     8     3   am
   174     1     2    1
   175     3     4    2
   176     3     2    1
   177   153   151   am
   178   146   147    1
   179   151   150    1
   180   151   152    2
   181   150   147    1
   182   147   148    1
   183   148   149    2
