@<TRIPOS>MOLECULE
tmp/4aauM00.pdb
 154 142 0 0 0
SMALL
GASTEIGER

@<TRIPOS>ATOM
      1  N         40.6750  -27.4640   19.5010 N.3    30  LEU30      -0.1231
      2  CA        41.2610  -28.6190   20.1090 C.3    30  LEU30       0.1693
      3  C         42.6070  -28.8380   19.5150 C.2    30  LEU30       0.2593
      4  O         42.8430  -28.5610   18.3390 O.2    30  LEU30      -0.2718
      5  CB        40.4800  -29.9510   19.8750 C.3    30  LEU30       0.0284
      6  CG        41.1390  -31.2460   19.2880 C.3    30  LEU30       0.0019
      7  CD1       40.4800  -32.5250   19.8300 C.3    30  LEU30       0.0001
      8  CD2       41.1030  -31.2830   17.7510 C.3    30  LEU30       0.0001
      9  N         43.5380  -29.3410   20.3480 N.am   31  GLY31      -0.1943
     10  CA        44.8650  -29.6490   19.9080 C.3    31  GLY31       0.1998
     11  C         45.7280  -28.4930   20.2770 C.2    31  GLY31       0.2480
     12  O         45.3060  -27.3370   20.2450 O.2    31  GLY31      -0.2729
     13  N         46.9450  -28.7950   20.6210 N.am   32  PRO32      -0.2726
     14  CA        47.8900  -27.8100   21.0500 C.3    32  PRO32       0.1402
     15  C         48.1160  -26.8800   19.9090 C.2    32  PRO32       0.2269
     16  O         48.5340  -25.7450   20.1300 O.2    32  PRO32      -0.2865
     17  CB        49.1520  -28.5800   21.4390 C.3    32  PRO32       0.0296
     18  CG        49.1010  -29.7990   20.5290 C.3    32  PRO32       0.0237
     19  CD        47.6010  -30.1060   20.4840 C.3    32  PRO32       0.0939
     20  N         37.9410  -26.4140   25.1320 N.3    52  GLY52      -0.1225
     21  CA        37.1860  -26.6220   23.9350 C.3    52  GLY52       0.1811
     22  C         35.7490  -26.4640   24.3100 C.2    52  GLY52       0.2280
     23  O         34.9460  -25.9180   23.5560 O.2    52  GLY52      -0.2866
     24  N         39.1160  -35.0320   30.4160 N.3    86  ASP86      -0.1225
     25  CA        39.5690  -34.4060   29.2100 C.3    86  ASP86       0.1805
     26  C         38.8030  -35.0100   28.0760 C.2    86  ASP86       0.2598
     27  O         37.9700  -35.8920   28.2730 O.2    86  ASP86      -0.2718
     28  CB        41.1360  -34.6310   29.0550 C.3    86  ASP86       0.1424
     29  CG        41.8030  -34.1680   27.7750 C.2    86  ASP86       0.3668
     30  OD1       42.1580  -32.9970   27.5400 O.co2  86  ASP86      -0.2456
     31  OD2       41.9530  -34.9180   26.7820 O.co2  86  ASP86      -0.2456
     32  N         39.0890  -34.5470   26.8440 N.am   87  GLY87      -0.1942
     33  CA        38.5810  -35.2060   25.6770 C.3    87  GLY87       0.2014
     34  C         37.1940  -34.7320   25.3980 C.2    87  GLY87       0.2640
     35  O         36.4450  -35.3860   24.6720 O.2    87  GLY87      -0.2714
     36  N         36.8050  -33.5740   25.9600 N.am   88  THR88      -0.1936
     37  CA        35.4960  -33.0780   25.6610 C.3    88  THR88       0.2028
     38  C         35.4440  -32.8390   24.1910 C.2    88  THR88       0.2643
     39  O         34.5050  -33.2480   23.5110 O.2    88  THR88      -0.2714
     40  CB        35.1970  -31.6150   26.0400 C.3    88  THR88       0.1808
     41  OG1       34.9570  -31.4770   27.4020 O.3    88  THR88      -0.2208
     42  CG2       33.8810  -31.0430   25.4520 C.3    88  THR88       0.0379
     43  N         36.4800  -32.1650   23.6650 N.am   89  THR89      -0.1936
     44  CA        36.4890  -31.7780   22.2880 C.3    89  THR89       0.2028
     45  C         36.4900  -33.0180   21.4620 C.2    89  THR89       0.2642
     46  O         35.7990  -33.1030   20.4490 O.2    89  THR89      -0.2714
     47  CB        37.7480  -31.0600   21.8990 C.3    89  THR89       0.1808
     48  OG1       38.0350  -30.0120   22.8150 O.3    89  THR89      -0.2208
     49  CG2       37.4930  -30.5170   20.4880 C.3    89  THR89       0.0379
     50  N         37.2830  -34.0190   21.8810 N.am   90  THR90      -0.1950
     51  CA        37.4960  -35.1670   21.0550 C.3    90  THR90       0.1897
     52  C         36.1680  -35.8000   20.8150 C.2    90  THR90       0.2313
     53  O         35.8420  -36.1750   19.6900 O.2    90  THR90      -0.2863
     54  CB        38.6260  -36.0730   21.5650 C.3    90  THR90       0.1794
     55  OG1       39.8500  -35.6270   20.9890 O.3    90  THR90      -0.2208
     56  CG2       38.4730  -37.5280   21.1040 C.3    90  THR90       0.0378
     57  N         49.9490  -31.7240   28.6250 N.3   149  ILE149     -0.1245
     58  CA        48.9530  -31.8960   27.6120 C.3   149  ILE149      0.1561
     59  C         47.7070  -31.2230   28.0920 C.2   149  ILE149      0.2260
     60  O         47.0690  -30.4780   27.3500 O.2   149  ILE149     -0.2867
     61  CB        48.6480  -33.3600   27.3820 C.3   149  ILE149      0.0252
     62  CG1       49.8980  -34.0370   26.8250 C.3   149  ILE149      0.0019
     63  CG2       47.4600  -33.5570   26.4180 C.3   149  ILE149      0.0019
     64  CD1       49.8680  -35.5320   27.0590 C.3   149  ILE149      0.0001
     65  N         47.9900  -27.7630   27.7050 N.3   152  ASN152     -0.1240
     66  CA        48.1460  -27.2020   26.4000 C.3   152  ASN152      0.1653
     67  C         49.3400  -26.3070   26.4290 C.2   152  ASN152      0.2266
     68  O         49.2500  -25.0940   26.2460 O.2   152  ASN152     -0.2867
     69  CB        46.7840  -26.9150   25.6990 C.3   152  ASN152      0.1155
     70  CG        46.8280  -26.2780   24.3080 C.2   152  ASN152      0.2627
     71  OD1       47.7940  -25.6400   23.8910 O.2   152  ASN152     -0.2716
     72  ND2       45.7090  -26.4180   23.5580 N.am  152  ASN152     -0.0877
     73  N         47.3060  -37.8590   20.1890 N.3   414  GLY414     -0.1225
     74  CA        47.2690  -37.4390   18.8230 C.3   414  GLY414      0.1811
     75  C         46.2030  -38.2210   18.1380 C.2   414  GLY414      0.2280
     76  O         46.0390  -38.1340   16.9220 O.2   414  GLY414     -0.2866
     77  N         42.4600  -37.0380   14.2460 N.3   450  LEU450     -0.1245
     78  CA        43.8690  -36.9450   14.0080 C.3   450  LEU450      0.1561
     79  C         44.0600  -35.9070   12.9540 C.2   450  LEU450      0.2260
     80  O         44.9630  -35.0770   13.0300 O.2   450  LEU450     -0.2867
     81  CB        44.5060  -38.2840   13.5320 C.3   450  LEU450      0.0270
     82  CG        45.9370  -38.1800   12.9330 C.3   450  LEU450      0.0019
     83  CD1       46.9880  -37.6810   13.9330 C.3   450  LEU450      0.0001
     84  CD2       46.3860  -39.5270   12.3590 C.3   450  LEU450      0.0001
     85  N         43.9600  -32.2460   13.9520 N.3   453  ILE453     -0.1245
     86  CA        45.1590  -31.7120   14.5220 C.3   453  ILE453      0.1561
     87  C         46.0660  -31.3690   13.3890 C.2   453  ILE453      0.2260
     88  O         46.6850  -30.3060   13.3730 O.2   453  ILE453     -0.2867
     89  CB        45.8060  -32.6630   15.5320 C.3   453  ILE453      0.0252
     90  CG1       44.8400  -32.8850   16.7250 C.3   453  ILE453      0.0019
     91  CG2       47.1610  -32.0900   16.0160 C.3   453  ILE453      0.0019
     92  CD1       45.3410  -33.8930   17.7680 C.3   453  ILE453      0.0001
     93  N         51.8340  -38.9280   14.9670 N.3   477  TYR477     -0.1227
     94  CA        52.4100  -37.7160   14.4750 C.3   477  TYR477      0.1736
     95  C         52.4180  -36.7720   15.6280 C.2   477  TYR477      0.2595
     96  O         51.4160  -36.6120   16.3200 O.2   477  TYR477     -0.2718
     97  CB        51.5050  -37.2750   13.3170 C.3   477  TYR477      0.0548
     98  CG        51.7690  -35.8890   12.8470 C.ar  477  TYR477     -0.0200
     99  CD1       52.8700  -35.5910   12.0320 C.ar  477  TYR477     -0.0009
    100  CD2       50.8430  -34.8890   13.1670 C.ar  477  TYR477     -0.0009
    101  CE1       53.0070  -34.3050   11.4930 C.ar  477  TYR477      0.0417
    102  CE2       50.9750  -33.6150   12.6160 C.ar  477  TYR477      0.0417
    103  CZ        52.0430  -33.3280   11.7650 C.ar  477  TYR477      0.1957
    104  OH        52.0910  -32.0920   11.1090 O.3   477  TYR477     -0.2866
    105  N         53.5740  -36.1290   15.8760 N.am  478  ASN478     -0.1960
    106  CA        53.6470  -35.1980   16.9600 C.3   478  ASN478      0.1819
    107  C         53.4810  -33.8460   16.3570 C.2   478  ASN478      0.2621
    108  O         54.2250  -33.4620   15.4580 O.2   478  ASN478     -0.2715
    109  CB        54.9360  -35.4500   17.7380 C.3   478  ASN478      0.1195
    110  CG        55.1810  -34.4840   18.8800 C.2   478  ASN478      0.2630
    111  OD1       54.5980  -33.4050   19.0140 O.2   478  ASN478     -0.2716
    112  ND2       56.0860  -34.9040   19.7840 N.am  478  ASN478     -0.0877
    113  N         52.4650  -33.0970   16.8190 N.am  479  ALA479     -0.1963
    114  CA        52.2000  -31.8320   16.2070 C.3   479  ALA479      0.1728
    115  C         53.3750  -30.9420   16.4400 C.2   479  ALA479      0.2616
    116  O         53.8610  -30.2870   15.5190 O.2   479  ALA479     -0.2715
    117  CB        50.8820  -31.3160   16.7920 C.3   479  ALA479      0.0334
    118  N         53.8670  -30.8980   17.6930 N.am  480  ALA480     -0.1977
    119  CA        54.8780  -29.9380   18.0210 C.3   480  ALA480      0.1597
    120  C         56.1010  -30.2450   17.2250 C.2   480  ALA480      0.2287
    121  O         56.6900  -29.3590   16.6060 O.2   480  ALA480     -0.2864
    122  CB        55.1680  -29.9960   19.5360 C.3   480  ALA480      0.0319
    123  N         54.9450  -42.3140   19.9200 N.3   487  MET487     -0.1245
    124  CA        54.1900  -41.4380   20.7610 C.3   487  MET487      0.1570
    125  C         54.7090  -41.5830   22.1520 C.2   487  MET487      0.2261
    126  O         54.9060  -40.5960   22.8570 O.2   487  MET487     -0.2867
    127  CB        52.6830  -41.5950   20.6370 C.3   487  MET487      0.0387
    128  CG        52.1590  -41.0840   19.2820 C.3   487  MET487      0.0595
    129  SD        52.2790  -39.2850   19.0010 S.3   487  MET487     -0.1393
    130  CE        53.8610  -39.2810   18.1100 C.3   487  MET487      0.0692
    131  N         57.9080  -40.0420   22.5750 N.3   490  MET490     -0.1245
    132  CA        57.7040  -38.6250   22.5900 C.3   490  MET490      0.1570
    133  C         57.1970  -38.2710   23.9450 C.2   490  MET490      0.2261
    134  O         57.5960  -37.2610   24.5230 O.2   490  MET490     -0.2867
    135  CB        56.9280  -38.1170   21.3590 C.3   490  MET490      0.0387
    136  CG        57.9090  -38.0620   20.1650 C.3   490  MET490      0.0595
    137  SD        57.1640  -37.9130   18.5260 S.3   490  MET490     -0.1393
    138  CE        58.6720  -37.3080   17.7190 C.3   490  MET490      0.0692
    139  N         54.0400  -37.8960   24.5180 N.3   492  ILE492     -0.1245
    140  CA        52.7750  -37.2340   24.4350 C.3   492  ILE492      0.1561
    141  C         51.7500  -38.3130   24.3820 C.2   492  ILE492      0.2260
    142  O         51.6210  -39.0220   23.3860 O.2   492  ILE492     -0.2867
    143  CB        52.3160  -36.0130   23.5570 C.3   492  ILE492      0.0252
    144  CG1       52.7610  -34.6940   24.2290 C.3   492  ILE492      0.0019
    145  CG2       50.7470  -36.0110   23.5920 C.3   492  ILE492      0.0019
    146  CD1       52.9100  -31.5740   23.0750 C.3   492  ILE492      0.0000
    147  N         47.7070  -39.6200   25.5140 N.3   494  ASP494     -0.1239
    148  CA        46.4020  -39.2730   25.9910 C.3   494  ASP494      0.1674
    149  C         45.9390  -40.4020   26.8440 C.2   494  ASP494      0.2266
    150  O         46.2550  -41.5630   26.5910 O.2   494  ASP494     -0.2867
    151  CB        45.3850  -39.1250   24.8060 C.3   494  ASP494      0.1410
    152  CG        45.7780  -38.0820   23.7620 C.2   494  ASP494      0.3668
    153  OD1       46.7030  -37.2730   24.0090 O.co2 494  ASP494     -0.2456
    154  OD2       45.2420  -38.1930   22.6220 O.co2 494  ASP494     -0.2456
@<TRIPOS>BOND
     1   104   103    1
     2   101   103   ar
     3   101    99   ar
     4   103   102   ar
     5    99    98   ar
     6    84    82    1
     7   102   100   ar
     8    98   100   ar
     9    98    97    1
    10    82    81    1
    11    82    83    1
    12    79    80    2
    13    79    78    1
    14    97    94    1
    15    88    87    2
    16    87    86    1
    17    81    78    1
    18    85    86    1
    19    78    77    1
    20    94    93    1
    21    94    95    1
    22    86    89    1
    23   108   107    2
    24   116   115    2
    25    89    91    1
    26    89    90    1
    27    95   105   am
    28    95    96    2
    29   105   106    1
    30   114   115    1
    31   114   117    1
    32   114   113    1
    33   107   113   am
    34   107   106    1
    35   115   118   am
    36   121   120    2
    37    90    92    1
    38    76    75    2
    39   106   109    1
    40   120   119    1
    41   118   119    1
    42   138   137    1
    43   109   110    1
    44     8     6    1
    45   119   122    1
    46   130   129    1
    47    75    74    1
    48     4     3    2
    49   137   136    1
    50    74    73    1
    51   110   111    2
    52   110   112   am
    53   129   128    1
    54   128   127    1
    55     6     7    1
    56     6     5    1
    57     1     2    1
    58     3     2    1
    59     3     9   am
    60    53    52    2
    61     5     2    1
    62    10    11    1
    63    10     9    1
    64    15    16    2
    65    15    14    1
    66   123   124    1
    67   136   135    1
    68    12    11    2
    69    11    13   am
    70    46    45    2
    71    19    18    1
    72    19    13    1
    73    49    47    1
    74    18    17    1
    75    13    14    1
    76   127   124    1
    77   124   125    1
    78    52    51    1
    79    55    54    1
    80    14    17    1
    81    51    54    1
    82    51    50    1
    83    56    54    1
    84   135   132    1
    85    45    50   am
    86    45    44    1
    87    47    44    1
    88    47    48    1
    89   125   126    2
    90    44    43    1
    91   131   132    1
    92   132   133    1
    93   154   152   ar
    94   142   141    2
    95    39    38    2
    96    23    22    2
    97   143   145    1
    98   143   144    1
    99   143   140    1
   100    72    70   am
   101    43    38   am
   102   152   153   ar
   103   152   151    1
   104    71    70    2
   105    21    22    1
   106    21    20    1
   107   133   134    2
   108    38    37    1
   109    70    69    1
   110   141   140    1
   111   140   139    1
   112    35    34    2
   113   151   148    1
   114    34    33    1
   115    34    36   am
   116    42    40    1
   117   147   148    1
   118    37    36    1
   119    37    40    1
   120    33    32    1
   121    69    66    1
   122   148   149    1
   123    40    41    1
   124    68    67    2
   125    66    67    1
   126    66    65    1
   127    63    61    1
   128   150   149    2
   129    31    29   ar
   130    62    64    1
   131    62    61    1
   132    32    26   am
   133    60    59    2
   134    61    58    1
   135    30    29   ar
   136    58    59    1
   137    58    57    1
   138    29    28    1
   139    26    27    2
   140    26    25    1
   141    28    25    1
   142    25    24    1
