@<TRIPOS>MOLECULE
tmp/4aawA00.pdb
 86 84 0 0 0
SMALL
GASTEIGER

@<TRIPOS>ATOM
      1  N         62.3540   27.3540  -13.0050 N.3   361  TYR361     -0.1241
      2  CA        62.0030   25.9970  -12.5500 C.3   361  TYR361      0.1605
      3  C         62.9470   24.9810  -13.2450 C.2   361  TYR361      0.2264
      4  O         62.9050   24.8470  -14.4870 O.2   361  TYR361     -0.2867
      5  CB        60.5860   25.7040  -12.9720 C.3   361  TYR361      0.0534
      6  CG        60.1560   24.3090  -12.7900 C.ar  361  TYR361     -0.0201
      7  CD1       60.4130   23.6440  -11.6160 C.ar  361  TYR361     -0.0009
      8  CD2       59.4270   23.6580  -13.7880 C.ar  361  TYR361     -0.0009
      9  CE1       60.0060   22.2980  -11.4170 C.ar  361  TYR361      0.0417
     10  CE2       58.9910   22.3450  -13.5990 C.ar  361  TYR361      0.0417
     11  CZ        59.3030   21.6630  -12.4360 C.ar  361  TYR361      0.1957
     12  OH        58.8900   20.3600  -12.2500 O.3   361  TYR361     -0.2866
     13  N         62.0190   24.5770  -17.2740 N.3   379  THR379     -0.1203
     14  CA        62.2500   23.2870  -17.9060 C.3   379  THR379      0.1994
     15  C         60.8250   22.7120  -17.9670 C.2   379  THR379      0.2618
     16  O         60.0750   22.9660  -17.0410 O.2   379  THR379     -0.2717
     17  CB        63.1280   22.3800  -17.0550 C.3   379  THR379      0.1784
     18  OG1       62.5810   22.3160  -15.7380 O.3   379  THR379     -0.2211
     19  CG2       64.4970   22.9100  -16.9720 C.3   379  THR379      0.0376
     20  N         60.4840   21.9510  -19.0280 N.am  380  VAL380     -0.1965
     21  CA        59.1600   21.4120  -19.2670 C.3   380  VAL380      0.1727
     22  C         59.3300   19.9080  -19.3960 C.2   380  VAL380      0.2616
     23  O         60.0380   19.3970  -20.3220 O.2   380  VAL380     -0.2715
     24  CB        58.5790   21.9940  -20.5700 C.3   380  VAL380      0.0290
     25  CG1       57.2040   21.4430  -20.7940 C.3   380  VAL380      0.0023
     26  CG2       58.5930   23.5150  -20.5380 C.3   380  VAL380      0.0023
     27  N         58.7440   19.1930  -18.4570 N.am  381  ASN381     -0.1958
     28  CA        59.1460   17.8290  -18.2300 C.3   381  ASN381      0.1819
     29  C         57.9170   16.9090  -18.3300 C.2   381  ASN381      0.2621
     30  O         58.0500   15.7400  -18.5650 O.2   381  ASN381     -0.2715
     31  CB        59.8770   17.7010  -16.8710 C.3   381  ASN381      0.1195
     32  CG        58.9040   17.5010  -15.6990 C.2   381  ASN381      0.2630
     33  OD1       58.2480   16.4530  -15.5940 O.2   381  ASN381     -0.2716
     34  ND2       58.8240   18.4670  -14.7920 N.am  381  ASN381     -0.0877
     35  N         56.7190   17.4410  -18.1990 N.am  382  TYR382     -0.1960
     36  CA        55.5310   16.6060  -18.0730 C.3   382  TYR382      0.1771
     37  C         54.4560   16.9760  -19.1180 C.2   382  TYR382      0.2619
     38  O         53.9870   18.1520  -19.2070 O.2   382  TYR382     -0.2715
     39  CB        55.0250   16.6980  -16.6240 C.3   382  TYR382      0.0574
     40  CG        53.5680   16.2840  -16.4120 C.ar  382  TYR382     -0.0198
     41  CD1       53.2050   14.9310  -16.2600 C.ar  382  TYR382     -0.0009
     42  CD2       52.5490   17.2690  -16.3760 C.ar  382  TYR382     -0.0009
     43  CE1       51.8680   14.5550  -16.0600 C.ar  382  TYR382      0.0417
     44  CE2       51.1900   16.9250  -16.1820 C.ar  382  TYR382      0.0417
     45  CZ        50.8500   15.5700  -16.0170 C.ar  382  TYR382      0.1957
     46  OH        49.5070   15.2690  -15.8310 O.3   382  TYR382     -0.2866
     47  N         54.0930   15.9950  -19.9490 N.am  383  ASP383     -0.1971
     48  CA        53.1570   16.2870  -21.0420 C.3   383  ASP383      0.1709
     49  C         51.6690   15.9810  -20.7700 C.2   383  ASP383      0.2293
     50  O         50.8730   15.9900  -21.6840 O.2   383  ASP383     -0.2864
     51  CB        53.5860   15.6010  -22.3400 C.3   383  ASP383      0.1436
     52  CG        53.5060   14.0650  -22.2560 C.2   383  ASP383      0.3671
     53  OD1       53.0050   13.5460  -21.2430 O.co2 383  ASP383     -0.2456
     54  OD2       53.9710   13.4050  -23.2110 O.co2 383  ASP383     -0.2456
     55  N         59.5750   13.4210  -18.7120 N.3   388  TYR388     -0.1241
     56  CA        60.8190   13.3030  -19.4210 C.3   388  TYR388      0.1605
     57  C         62.0060   13.9240  -18.6850 C.2   388  TYR388      0.2264
     58  O         61.8530   14.7870  -17.7960 O.2   388  TYR388     -0.2867
     59  CB        60.6770   14.0020  -20.7300 C.3   388  TYR388      0.0534
     60  CG        59.7020   13.3550  -21.6560 C.ar  388  TYR388     -0.0201
     61  CD1       60.0690   12.2110  -22.3730 C.ar  388  TYR388     -0.0009
     62  CD2       58.4260   13.8750  -21.8490 C.ar  388  TYR388     -0.0009
     63  CE1       59.2140   11.6370  -23.2790 C.ar  388  TYR388      0.0417
     64  CE2       57.5550   13.2900  -22.7670 C.ar  388  TYR388      0.0417
     65  CZ        57.9660   12.1570  -23.4700 C.ar  388  TYR388      0.1957
     66  OH        57.1660   11.5440  -24.3990 O.3   388  TYR388     -0.2866
     67  N         61.9940   22.1070  -23.6020 N.3   405  ILE405     -0.1231
     68  CA        60.9360   21.0960  -23.5950 C.3   405  ILE405      0.1692
     69  C         61.6100   19.7070  -23.6700 C.2   405  ILE405      0.2591
     70  O         62.2010   19.3580  -24.7170 O.2   405  ILE405     -0.2718
     71  CB        59.9940   21.3330  -24.7820 C.3   405  ILE405      0.0266
     72  CG1       59.3430   22.7450  -24.7140 C.3   405  ILE405      0.0019
     73  CG2       58.9510   20.2220  -24.8290 C.3   405  ILE405      0.0020
     74  CD1       58.3710   23.0430  -25.8320 C.3   405  ILE405      0.0001
     75  N         61.5670   18.9610  -22.5660 N.am  406  ALA406     -0.1980
     76  CA        62.1560   17.6400  -22.4960 C.3   406  ALA406      0.1597
     77  C         61.3970   16.6000  -23.3760 C.2   406  ALA406      0.2287
     78  O         60.2050   16.7400  -23.6050 O.2   406  ALA406     -0.2864
     79  CB        62.1760   17.1920  -21.0680 C.3   406  ALA406      0.0319
     80  N         62.9620   22.7630  -28.5450 N.3   423  THR423     -0.1218
     81  CA        62.2700   21.4840  -28.6620 C.3   423  THR423      0.1862
     82  C         63.2280   20.4230  -29.2280 C.2   423  THR423      0.2287
     83  O         62.8590   19.3090  -29.2980 O.2   423  THR423     -0.2866
     84  CB        61.0530   21.5540  -29.6240 C.3   423  THR423      0.1770
     85  OG1       61.5520   21.9870  -30.8550 O.3   423  THR423     -0.2211
     86  CG2       59.9780   22.6360  -29.2500 C.3   423  THR423      0.0375
@<TRIPOS>BOND
     1    85    84    1
     2    84    86    1
     3    84    81    1
     4    83    82    2
     5    82    81    1
     6    81    80    1
     7    74    72    1
     8    73    71    1
     9    71    72    1
    10    71    68    1
    11    70    69    2
    12    66    65    1
    13    69    68    1
    14    69    75   am
    15    78    77    2
    16    67    68    1
    17    65    63   ar
    18    65    64   ar
    19    77    76    1
    20    63    61   ar
    21    54    52   ar
    22    64    62   ar
    23    75    76    1
    24    76    79    1
    25    61    60   ar
    26    51    52    1
    27    51    48    1
    28    52    53   ar
    29    62    60   ar
    30    50    49    2
    31    60    59    1
    32    48    49    1
    33    48    47    1
    34    25    24    1
    35    59    56    1
    36    24    26    1
    37    24    21    1
    38    23    22    2
    39    47    37   am
    40    56    55    1
    41    56    57    1
    42    22    21    1
    43    22    27   am
    44    21    20    1
    45    38    37    2
    46    37    36    1
    47    20    15   am
    48    57    58    2
    49    30    29    2
    50    27    28    1
    51    29    28    1
    52    29    35   am
    53    28    31    1
    54    35    36    1
    55    36    39    1
    56    15    14    1
    57    15    16    2
    58    14    13    1
    59    14    17    1
    60    17    19    1
    61    17    18    1
    62    31    32    1
    63    39    40    1
    64    40    42   ar
    65    40    41   ar
    66    42    44   ar
    67    41    43   ar
    68    44    45   ar
    69    43    45   ar
    70    45    46    1
    71    32    33    2
    72    32    34   am
    73     4     3    2
    74     8    10   ar
    75     8     6   ar
    76    10    11   ar
    77     3     2    1
    78     1     2    1
    79     5     6    1
    80     5     2    1
    81     6     7   ar
    82    11    12    1
    83    11     9   ar
    84     7     9   ar
