@<TRIPOS>MOLECULE
tmp/4ab7H00.pdb
 126 118 0 0 0
SMALL
GASTEIGER

@<TRIPOS>ATOM
      1  N        -35.9510  -29.7800   29.4650 N.3    23  LYS23      -0.1245
      2  CA       -34.5390  -29.5380   29.1650 C.3    23  LYS23       0.1561
      3  C        -34.1290  -30.6260   28.2120 C.2    23  LYS23       0.2260
      4  O        -34.2440  -31.7980   28.5420 O.2    23  LYS23      -0.2867
      5  CB       -33.6690  -29.5790   30.4440 C.3    23  LYS23       0.0271
      6  CG       -32.1480  -29.5140   30.2290 C.3    23  LYS23       0.0035
      7  CD       -31.4690  -30.8720   30.3580 C.3    23  LYS23       0.0206
      8  CE       -29.9760  -30.8380   30.0700 C.3    23  LYS23       0.1093
      9  NZ       -29.3400  -32.0850   30.5190 N.3    23  LYS23      -0.1314
     10  N        -31.0440  -32.3020   26.3580 N.3    25  GLY25      -0.1210
     11  CA       -29.5850  -32.4350   26.2450 C.3    25  GLY25       0.1956
     12  C        -29.1610  -32.2680   24.7950 C.2    25  GLY25       0.2612
     13  O        -29.8900  -32.6850   23.8850 O.2    25  GLY25      -0.2717
     14  N        -28.0330  -31.5990   24.5630 N.am   26  GLY26      -0.1956
     15  CA       -27.6030  -31.3110   23.1780 C.3    26  GLY26       0.1869
     16  C        -27.3800  -32.5850   22.3690 C.2    26  GLY26       0.2309
     17  O        -27.6440  -32.6390   21.1650 O.2    26  GLY26      -0.2863
     18  N        -29.3500  -27.5680   25.6070 N.3    55  GLY55      -0.1210
     19  CA       -27.9340  -27.3280   25.7480 C.3    55  GLY55       0.1956
     20  C        -27.2430  -27.6060   24.4330 C.2    55  GLY55       0.2613
     21  O        -27.8630  -27.6680   23.3560 O.2    55  GLY55      -0.2717
     22  N        -25.9330  -27.7520   24.5510 N.am   56  THR56      -0.1938
     23  CA       -25.0730  -28.0350   23.4290 C.3    56  THR56       0.2028
     24  C        -23.7690  -28.5100   24.0580 C.2    56  THR56       0.2642
     25  O        -22.8570  -27.7370   24.2270 O.2    56  THR56      -0.2714
     26  CB       -24.8530  -26.7810   22.5280 C.3    56  THR56       0.1808
     27  OG1      -23.9360  -27.1090   21.4910 O.3    56  THR56      -0.2208
     28  CG2      -24.4030  -25.5520   23.3110 C.3    56  THR56       0.0379
     29  N        -23.7140  -29.7770   24.4370 N.am   57  GLY57      -0.1954
     30  CA       -22.5460  -30.2770   25.1110 C.3    57  GLY57       0.1869
     31  C        -21.5870  -30.8320   24.0950 C.2    57  GLY57       0.2309
     32  O        -20.5690  -30.2070   23.7730 O.2    57  GLY57      -0.2863
     33  N        -13.1780  -27.9980   32.3320 N.3    73  TYR73      -0.1241
     34  CA       -14.2000  -27.8940   33.3630 C.3    73  TYR73       0.1605
     35  C        -13.5610  -27.8760   34.7360 C.2    73  TYR73       0.2264
     36  O        -12.5980  -28.5960   34.9750 O.2    73  TYR73      -0.2867
     37  CB       -15.1430  -29.1010   33.3080 C.3    73  TYR73       0.0534
     38  CG       -15.9110  -29.3280   32.0200 C.ar   73  TYR73      -0.0201
     39  CD1      -17.1610  -28.7610   31.8200 C.ar   73  TYR73      -0.0009
     40  CD2      -15.4100  -30.1720   31.0190 C.ar   73  TYR73      -0.0009
     41  CE1      -17.8900  -28.9970   30.6580 C.ar   73  TYR73       0.0417
     42  CE2      -16.1370  -30.4120   29.8530 C.ar   73  TYR73       0.0417
     43  CZ       -17.3690  -29.8230   29.6790 C.ar   73  TYR73       0.1957
     44  OH       -18.1020  -30.0640   28.5740 O.3    73  TYR73      -0.2866
     45  N        -17.9480  -29.2350   37.3890 N.3    76  GLY76      -0.1210
     46  CA       -19.0330  -29.5020   36.4610 C.3    76  GLY76       0.1956
     47  C        -19.4430  -28.3120   35.6160 C.2    76  GLY76       0.2612
     48  O        -20.4010  -28.3960   34.8630 O.2    76  GLY76      -0.2717
     49  N        -18.6930  -27.2140   35.7000 N.am   77  ILE77      -0.1965
     50  CA       -18.9410  -26.0030   34.8990 C.3    77  ILE77       0.1727
     51  C        -17.8580  -25.9050   33.8300 C.2    77  ILE77       0.2616
     52  O        -16.6920  -26.2320   34.0910 O.2    77  ILE77      -0.2715
     53  CB       -18.8640  -24.7190   35.7610 C.3    77  ILE77       0.0290
     54  CG1      -19.9950  -24.7020   36.7990 C.3    77  ILE77       0.0022
     55  CG2      -18.9520  -23.4700   34.8790 C.3    77  ILE77       0.0023
     56  CD1      -19.6410  -24.0260   38.1130 C.3    77  ILE77       0.0001
     57  N        -18.2270  -25.4250   32.6490 N.am   78  ARG78      -0.1977
     58  CA       -17.2380  -25.1900   31.5960 C.3    78  ARG78       0.1597
     59  C        -16.4800  -23.8780   31.7780 C.2    78  ARG78       0.2287
     60  O        -17.0870  -22.8080   31.7970 O.2    78  ARG78      -0.2864
     61  CB       -17.9100  -25.1560   30.2170 C.3    78  ARG78       0.0334
     62  CG       -16.9070  -25.1030   29.0630 C.3    78  ARG78       0.0492
     63  CD       -17.5750  -24.7580   27.7370 C.3    78  ARG78       0.2205
     64  NE       -18.3810  -25.8540   27.1970 N.pl3  78  ARG78      -0.0865
     65  CZ       -17.8780  -26.9930   26.7170 C.cat  78  ARG78       0.5346
     66  NH1      -16.5630  -27.2490   26.6960 N.pl3  78  ARG78       0.1354
     67  NH2      -18.7030  -27.8910   26.2650 N.pl3  78  ARG78       0.1354
     68  N        -18.9850  -21.8330   21.7030 N.3    88  VAL88      -0.1245
     69  CA       -20.2480  -22.1240   22.4130 C.3    88  VAL88       0.1561
     70  C        -21.3900  -21.3920   21.7510 C.2    88  VAL88       0.2260
     71  O        -22.4440  -21.9750   21.5450 O.2    88  VAL88      -0.2867
     72  CB       -20.2200  -21.6830   23.9180 C.3    88  VAL88       0.0252
     73  CG1      -21.5570  -21.1690   24.4020 C.3    88  VAL88       0.0019
     74  CG2      -19.7550  -22.7860   24.8390 C.3    88  VAL88       0.0019
     75  N        -24.5570  -23.1490   19.9650 N.3    92  PHE92      -0.1241
     76  CA       -25.9050  -22.9390   20.4300 C.3    92  PHE92       0.1605
     77  C        -26.8110  -22.5440   19.2830 C.2    92  PHE92       0.2264
     78  O        -27.9010  -23.0600   19.1450 O.2    92  PHE92      -0.2867
     79  CB       -25.9740  -21.8460   21.5000 C.3    92  PHE92       0.0534
     80  CG       -25.9680  -22.3760   22.8870 C.ar   92  PHE92      -0.0203
     81  CD1      -26.7930  -23.4050   23.2540 C.ar   92  PHE92      -0.0042
     82  CD2      -25.1280  -21.8360   23.8220 C.ar   92  PHE92      -0.0042
     83  CE1      -26.7770  -23.9050   24.5370 C.ar   92  PHE92      -0.0003
     84  CE2      -25.1060  -22.3310   25.1080 C.ar   92  PHE92      -0.0003
     85  CZ       -25.9250  -23.3720   25.4660 C.ar   92  PHE92      -0.0000
     86  N        -18.6350  -17.5370   32.3880 N.3   131  VAL131     -0.1245
     87  CA       -19.8000  -18.2820   32.8590 C.3   131  VAL131      0.1561
     88  C        -20.6430  -17.3980   33.7300 C.2   131  VAL131      0.2260
     89  O        -20.1150  -16.6370   34.6120 O.2   131  VAL131     -0.2867
     90  CB       -19.4390  -19.5110   33.7000 C.3   131  VAL131      0.0252
     91  CG1      -20.6860  -20.0870   34.3260 C.3   131  VAL131      0.0019
     92  CG2      -18.6900  -20.5210   32.8480 C.3   131  VAL131      0.0019
     93  N        -29.7980  -21.9900   26.5950 N.3   156  SER156     -0.1217
     94  CA       -29.4180  -21.6700   27.9930 C.3   156  SER156      0.1889
     95  C        -28.2190  -20.7590   28.0410 C.2   156  SER156      0.2288
     96  O        -27.1220  -21.2130   28.2760 O.2   156  SER156     -0.2866
     97  CB       -29.1240  -22.9380   28.7940 C.3   156  SER156      0.2089
     98  OG       -27.9210  -23.5620   28.3860 O.3   156  SER156     -0.2183
     99  N        -22.1210  -17.9500   29.4210 N.3   167  ASN167     -0.1225
    100  CA       -22.4850  -19.3650   29.3560 C.3   167  ASN167      0.1785
    101  C        -23.0170  -19.8240   30.7130 C.2   167  ASN167      0.2597
    102  O        -22.4990  -19.4450   31.7820 O.2   167  ASN167     -0.2718
    103  CB       -21.2540  -20.1630   28.9830 C.3   167  ASN167      0.1169
    104  CG       -21.5570  -21.5220   28.4440 C.2   167  ASN167      0.2627
    105  OD1      -22.7170  -21.9390   28.3010 O.2   167  ASN167     -0.2716
    106  ND2      -20.4880  -22.2380   28.1130 N.am  167  ASN167     -0.0877
    107  N        -24.0910  -20.5960   30.6720 N.am  168  VAL168     -0.1966
    108  CA       -24.8290  -20.9920   31.8620 C.3   168  VAL168      0.1727
    109  C        -25.2270  -22.4650   31.6530 C.2   168  VAL168      0.2616
    110  O        -25.7920  -22.8030   30.6420 O.2   168  VAL168     -0.2715
    111  CB       -26.0130  -20.0190   32.0620 C.3   168  VAL168      0.0290
    112  CG1      -26.9980  -20.6160   33.0450 C.3   168  VAL168      0.0023
    113  CG2      -25.5280  -18.6950   32.5990 C.3   168  VAL168      0.0023
    114  N        -24.8460  -23.3520   32.5620 N.am  169  ASN169     -0.1958
    115  CA       -25.2230  -24.7760   32.4180 C.3   169  ASN169      0.1819
    116  C        -26.7150  -24.9740   32.0530 C.2   169  ASN169      0.2621
    117  O        -27.5850  -24.4450   32.7400 O.2   169  ASN169     -0.2715
    118  CB       -24.9020  -25.5020   33.7280 C.3   169  ASN169      0.1195
    119  CG       -25.3300  -26.9560   33.7130 C.2   169  ASN169      0.2630
    120  OD1      -25.7190  -27.4750   32.6990 O.2   169  ASN169     -0.2716
    121  ND2      -25.3020  -27.5980   34.8580 N.am  169  ASN169     -0.0877
    122  N        -27.0050  -25.7440   31.0000 N.am  170  ALA170     -0.1977
    123  CA       -28.3930  -26.0600   30.5820 C.3   170  ALA170      0.1597
    124  C        -29.2980  -26.5750   31.7000 C.2   170  ALA170      0.2287
    125  O        -30.4880  -26.2340   31.7740 O.2   170  ALA170     -0.2864
    126  CB       -28.3720  -27.0530   29.4470 C.3   170  ALA170      0.0319
@<TRIPOS>BOND
     1    78    77    2
     2    77    76    1
     3    75    76    1
     4    76    79    1
     5    17    16    2
     6    27    26    1
     7    79    80    1
     8    71    70    2
     9    68    69    1
    10    70    69    1
    11    16    15    1
    12    69    72    1
    13    26    28    1
    14    26    23    1
    15    80    81   ar
    16    80    82   ar
    17    15    14    1
    18    81    83   ar
    19    21    20    2
    20    23    24    1
    21    23    22    1
    22    32    31    2
    23    82    84   ar
    24    13    12    2
    25    72    73    1
    26    72    74    1
    27    24    25    2
    28    24    29   am
    29    31    30    1
    30    20    22   am
    31    20    19    1
    32    29    30    1
    33    83    85   ar
    34    14    12   am
    35    12    11    1
    36    84    85   ar
    37    18    19    1
    38    11    10    1
    39    67    65    1
    40    93    94    1
    41    66    65    1
    42    65    64    2
    43    64    63    1
    44    63    62    1
    45    94    95    1
    46    94    97    1
    47    95    96    2
    48   106   104   am
    49     3     4    2
    50     3     2    1
    51   105   104    2
    52    98    97    1
    53   104   103    1
    54    44    43    1
    55   103   100    1
    56    62    61    1
    57     2     1    1
    58     2     5    1
    59   100    99    1
    60   100   101    1
    61   126   123    1
    62    43    42   ar
    63    43    41   ar
    64    42    40   ar
    65     8     7    1
    66     8     9    1
    67    61    58    1
    68     6     7    1
    69     6     5    1
    70   123   122    1
    71   123   124    1
    72   110   109    2
    73    41    39   ar
    74   107   101   am
    75   107   108    1
    76   101   102    2
    77   122   116   am
    78    40    38   ar
    79    58    59    1
    80    58    57    1
    81   109   108    1
    82   109   114   am
    83   124   125    2
    84    59    60    2
    85    39    38   ar
    86   108   111    1
    87    38    37    1
    88   116   115    1
    89   116   117    2
    90   111   113    1
    91   111   112    1
    92    33    34    1
    93    86    87    1
    94   115   114    1
    95   115   118    1
    96    57    51   am
    97   120   119    2
    98    92    90    1
    99    87    90    1
   100    87    88    1
   101    37    34    1
   102    34    35    1
   103    90    91    1
   104   119   118    1
   105   119   121   am
   106    88    89    2
   107    51    52    2
   108    51    50    1
   109    35    36    2
   110    48    47    2
   111    55    53    1
   112    50    49    1
   113    50    53    1
   114    47    49   am
   115    47    46    1
   116    53    54    1
   117    46    45    1
   118    54    56    1
