@<TRIPOS>MOLECULE
tmp/4ab8A00.pdb
 99 98 0 0 0
SMALL
GASTEIGER

@<TRIPOS>ATOM
      1  N        -12.8170    3.3440   18.3360 N.3   171  ASP171     -0.1225
      2  CA       -14.1280    2.6220   18.0740 C.3   171  ASP171      0.1805
      3  C        -14.5410    2.8420   16.6260 C.2   171  ASP171      0.2598
      4  O        -14.0300    3.7540   15.9350 O.2   171  ASP171     -0.2718
      5  CB       -15.2000    3.2270   18.9920 C.3   171  ASP171      0.1424
      6  CG       -16.4720    2.3630   19.1930 C.2   171  ASP171      0.3668
      7  OD1      -16.4870    1.2610   18.6850 O.co2 171  ASP171     -0.2456
      8  OD2      -17.3560    2.8680   19.9150 O.co2 171  ASP171     -0.2456
      9  N        -15.5100    2.0630   16.1910 N.am  172  SER172     -0.1938
     10  CA       -16.1700    2.3500   14.9540 C.3   172  SER172      0.2055
     11  C        -17.2190    3.4380   15.2310 C.2   172  SER172      0.2643
     12  O        -17.4930    3.7730   16.3850 O.2   172  SER172     -0.2714
     13  CB       -16.7980    1.0490   14.3610 C.3   172  SER172      0.2130
     14  OG       -17.6940    0.5600   15.3210 O.3   172  SER172     -0.2179
     15  N        -17.8510    3.9920   14.1880 N.am  173  CYS173     -0.1953
     16  CA       -18.8590    5.0480   14.4500 C.3   173  CYS173      0.1843
     17  C        -19.8220    5.0790   13.2680 C.2   173  CYS173      0.2625
     18  O        -19.7200    4.2820   12.3020 O.2   173  CYS173     -0.2714
     19  CB       -18.1640    6.4170   14.6850 C.3   173  CYS173      0.0997
     20  SG       -19.1620    7.5950   15.5830 S.3   173  CYS173     -0.0797
     21  N        -20.7280    6.0280   13.3230 N.am  174  GLN174     -0.1977
     22  CA       -21.7200    6.1590   12.2760 C.3   174  GLN174      0.1601
     23  C        -21.1170    6.2360   10.8520 C.2   174  GLN174      0.2287
     24  O        -20.1570    7.0130   10.6470 O.2   174  GLN174     -0.2864
     25  CB       -22.5560    7.4470   12.5470 C.3   174  GLN174      0.0394
     26  CG       -23.7200    7.6270   11.5720 C.3   174  GLN174      0.0908
     27  CD       -24.5520    8.8510   11.8790 C.2   174  GLN174      0.2608
     28  OE1      -24.5560    9.3330   13.0070 O.2   174  GLN174     -0.2717
     29  NE2      -25.2650    9.3610   10.8780 N.am  174  GLN174     -0.0878
     30  N        -21.0690    1.4170    9.6700 N.3   177  SER177     -0.1217
     31  CA       -22.0170    0.3190    9.6930 C.3   177  SER177      0.1889
     32  C        -22.0100   -0.5240    8.5030 C.2   177  SER177      0.2288
     33  O        -21.9230   -0.0380    7.3950 O.2   177  SER177     -0.2866
     34  CB       -23.4900    0.8470    9.7560 C.3   177  SER177      0.2089
     35  OG       -23.7610    1.3610   11.0470 O.3   177  SER177     -0.2183
     36  N        -19.9170   -4.2880   11.2380 N.3   191  VAL191     -0.1231
     37  CA       -20.1480   -3.1390   12.1300 C.3   191  VAL191      0.1692
     38  C        -21.6700   -3.0230   12.3310 C.2   191  VAL191      0.2593
     39  O        -22.3910   -2.8460   11.3740 O.2   191  VAL191     -0.2718
     40  CB       -19.5430   -1.8300   11.5370 C.3   191  VAL191      0.0266
     41  CG1      -19.8220   -0.7250   12.5090 C.3   191  VAL191      0.0020
     42  CG2      -18.0550   -2.0220   11.4270 C.3   191  VAL191      0.0020
     43  N        -22.1010   -3.0580   13.5850 N.am  192  SER192     -0.1938
     44  CA       -23.5280   -3.1020   13.8380 C.3   192  SER192      0.2055
     45  C        -24.0460   -1.9290   14.6490 C.2   192  SER192      0.2643
     46  O        -24.8600   -1.0840   14.1270 O.2   192  SER192     -0.2714
     47  CB       -23.8810   -4.5100   14.4200 C.3   192  SER192      0.2130
     48  OG       -25.3310   -4.6200   14.5580 O.3   192  SER192     -0.2179
     49  N        -23.6770   -1.8490   15.9280 N.am  193  TRP193     -0.1959
     50  CA       -24.2380   -0.7920   16.7310 C.3   193  TRP193      0.1771
     51  C        -23.4190   -0.4490   17.9510 C.2   193  TRP193      0.2620
     52  O        -22.3340   -1.0180   18.1490 O.2   193  TRP193     -0.2715
     53  CB       -25.6600   -1.1300   17.1710 C.3   193  TRP193      0.0590
     54  CG       -25.7880   -2.3660   18.0100 C.ar  193  TRP193      0.0006
     55  CD1      -25.9930   -3.6700   17.5820 C.ar  193  TRP193      0.0946
     56  CD2      -25.9230   -2.4010   19.4800 C.ar  193  TRP193      0.0152
     57  NE1      -26.1910   -4.4870   18.6820 N.ar  193  TRP193     -0.2442
     58  CE2      -26.1740   -3.7780   19.8260 C.ar  193  TRP193      0.0810
     59  CE3      -25.8690   -1.4740   20.4760 C.ar  193  TRP193      0.0012
     60  CZ2      -26.3300   -4.2070   21.1650 C.ar  193  TRP193      0.0191
     61  CZ3      -26.0220   -1.9030   21.7940 C.ar  193  TRP193      0.0001
     62  CH2      -26.2870   -3.2140   22.1180 C.ar  193  TRP193      0.0015
     63  N        -23.8830    0.5350   18.7220 N.am  194  GLY194     -0.1954
     64  CA       -23.1930    0.8460   20.0330 C.3   194  GLY194      0.1869
     65  C        -23.8890    1.9560   20.6920 C.2   194  GLY194      0.2309
     66  O        -25.0060    2.2840   20.2840 O.2   194  GLY194     -0.2863
     67  N        -23.1170    5.8240   21.3000 N.3   196  GLY196     -0.1210
     68  CA       -22.0610    6.7670   20.9520 C.3   196  GLY196      0.1956
     69  C        -20.8540    6.0310   20.3530 C.2   196  GLY196      0.2612
     70  O        -20.9070    4.8460   19.9610 O.2   196  GLY196     -0.2717
     71  N        -19.7770    6.7580   20.2790 N.am  197  CYS197     -0.1970
     72  CA       -18.5550    6.1720   19.7290 C.3   197  CYS197      0.1712
     73  C        -17.4220    6.5110   20.6390 C.2   197  CYS197      0.2296
     74  O        -17.2500    7.6920   21.0000 O.2   197  CYS197     -0.2864
     75  CB       -18.2650    6.7390   18.3250 C.3   197  CYS197      0.0983
     76  SG       -19.7430    6.6060   17.2540 S.3   197  CYS197     -0.0798
     77  N        -17.8410   -0.8040   20.6110 N.3   204  GLY204     -0.1210
     78  CA       -18.5800   -1.2430   19.4290 C.3   204  GLY204      0.1956
     79  C        -19.2040   -2.6530   19.5550 C.2   204  GLY204      0.2612
     80  O        -18.5700   -3.5510   20.0890 O.2   204  GLY204     -0.2717
     81  N        -20.3900   -2.8270   18.9740 N.am  205  VAL205     -0.1965
     82  CA       -21.0920   -4.1500   18.9160 C.3   205  VAL205      0.1727
     83  C        -21.1290   -4.5570   17.4120 C.2   205  VAL205      0.2616
     84  O        -21.3820   -3.7390   16.4980 O.2   205  VAL205     -0.2715
     85  CB       -22.5130   -4.1410   19.5030 C.3   205  VAL205      0.0290
     86  CG1      -23.1550   -5.5360   19.5760 C.3   205  VAL205      0.0023
     87  CG2      -22.4610   -3.5500   20.9260 C.3   205  VAL205      0.0023
     88  N        -20.8080   -5.8340   17.2410 N.am  206  TYR206     -0.1974
     89  CA       -20.5840   -6.4340   15.8910 C.3   206  TYR206      0.1639
     90  C        -21.3810   -7.6840   15.6630 C.2   206  TYR206      0.2290
     91  O        -21.5250   -8.5070   16.6200 O.2   206  TYR206     -0.2864
     92  CB       -19.0670   -6.7010   15.7240 C.3   206  TYR206      0.0560
     93  CG       -18.2880   -5.4250   15.8420 C.ar  206  TYR206     -0.0198
     94  CD1      -18.1980   -4.5480   14.7550 C.ar  206  TYR206     -0.0009
     95  CD2      -17.7790   -4.9890   17.1010 C.ar  206  TYR206     -0.0009
     96  CE1      -17.5170   -3.3190   14.8960 C.ar  206  TYR206      0.0417
     97  CE2      -17.0760   -3.7760   17.1950 C.ar  206  TYR206      0.0417
     98  CZ       -16.9940   -2.9700   16.1040 C.ar  206  TYR206      0.1957
     99  OH       -16.3800   -1.7470   16.2780 O.3   206  TYR206     -0.2866
@<TRIPOS>BOND
     1    33    32    2
     2    32    31    1
     3    30    31    1
     4    31    34    1
     5    34    35    1
     6    24    23    2
     7    23    22    1
     8    29    27   am
     9    36    37    1
    10    39    38    2
    11    42    40    1
    12    40    37    1
    13    40    41    1
    14    26    27    1
    15    26    25    1
    16    27    28    2
    17    37    38    1
    18    22    25    1
    19    22    21    1
    20    18    17    2
    21    38    43   am
    22    17    21   am
    23    17    16    1
    24    43    44    1
    25    44    47    1
    26    44    45    1
    27    46    45    2
    28    15    16    1
    29    15    11   am
    30    13    10    1
    31    13    14    1
    32    47    48    1
    33    16    19    1
    34    45    49   am
    35    19    20    1
    36    94    96   ar
    37    94    93   ar
    38    96    98   ar
    39    10    11    1
    40    10     9    1
    41    11    12    2
    42    20    76    1
    43    90    89    1
    44    90    91    2
    45    92    93    1
    46    92    89    1
    47    93    95   ar
    48    89    88    1
    49    49    50    1
    50     4     3    2
    51    98    99    1
    52    98    97   ar
    53     9     3   am
    54    84    83    2
    55     3     2    1
    56    50    53    1
    57    50    51    1
    58    95    97   ar
    59    53    54    1
    60    88    83   am
    61    76    75    1
    62    83    82    1
    63    55    54   ar
    64    55    57   ar
    65    51    52    2
    66    51    63   am
    67    54    56   ar
    68     2     1    1
    69     2     5    1
    70    75    72    1
    71    57    58   ar
    72     7     6   ar
    73    63    64    1
    74    82    81    1
    75    82    85    1
    76    81    79   am
    77     5     6    1
    78     6     8   ar
    79    78    79    1
    80    78    77    1
    81    56    58   ar
    82    56    59   ar
    83    85    86    1
    84    85    87    1
    85    79    80    2
    86    72    71    1
    87    72    73    1
    88    58    60   ar
    89    70    69    2
    90    64    65    1
    91    71    69   am
    92    66    65    2
    93    69    68    1
    94    59    61   ar
    95    73    74    2
    96    68    67    1
    97    60    62   ar
    98    61    62   ar
