@<TRIPOS>MOLECULE
tmp/4ab9A00.pdb
 117 116 0 0 0
SMALL
GASTEIGER

@<TRIPOS>ATOM
      1  N         -7.2730  -12.4330    8.6820 N.3    40  HIS40      -0.1241
      2  CA        -6.3210  -11.3180    8.6430 C.3    40  HIS40       0.1621
      3  C         -5.2710  -11.5510    7.5570 C.2    40  HIS40       0.2264
      4  O         -4.4990  -10.5760    7.2770 O.2    40  HIS40      -0.2867
      5  CB        -5.7280  -11.0190   10.0180 C.3    40  HIS40       0.0745
      6  CG        -4.5870  -11.8850   10.4510 C.ar   40  HIS40       0.0817
      7  ND1       -4.7160  -12.9500   11.2840 N.ar   40  HIS40      -0.2268
      8  CD2       -3.2310  -11.7880   10.1840 C.ar   40  HIS40       0.1154
      9  CE1       -3.5310  -13.5020   11.5220 C.ar   40  HIS40       0.1986
     10  NE2       -2.5980  -12.7550   10.8480 N.ar   40  HIS40      -0.2212
     11  N          6.9160  -20.8010   20.3510 N.3   171  ASP171     -0.1225
     12  CA         5.6460  -20.1750   19.9570 C.3   171  ASP171      0.1805
     13  C          5.5980  -20.0000   18.4530 C.2   171  ASP171      0.2598
     14  O          6.6110  -20.1970   17.7530 O.2   171  ASP171     -0.2718
     15  CB         5.5850  -18.7610   20.6090 C.3   171  ASP171      0.1424
     16  CG         4.2410  -18.0930   20.6900 C.2   171  ASP171      0.3668
     17  OD1        3.2050  -18.6560   20.2940 O.co2 171  ASP171     -0.2456
     18  OD2        4.2480  -16.9290   21.1870 O.co2 171  ASP171     -0.2456
     19  N          4.4330  -19.6810   17.9260 N.am  172  SER172     -0.1938
     20  CA         4.3130  -19.1940   16.5710 C.3   172  SER172      0.2055
     21  C          4.6860  -17.7260   16.4960 C.2   172  SER172      0.2643
     22  O          4.7970  -17.0600   17.5600 O.2   172  SER172     -0.2714
     23  CB         2.8980  -19.4330   16.0140 C.3   172  SER172      0.2130
     24  OG         1.9540  -18.7710   16.8400 O.3   172  SER172     -0.2179
     25  N          4.8170  -17.1680   15.3070 N.am  173  CYS173     -0.1953
     26  CA         5.2710  -15.7730   15.1670 C.3   173  CYS173      0.1843
     27  C          4.8340  -15.1880   13.8630 C.2   173  CYS173      0.2625
     28  O          4.1640  -15.8300   13.0850 O.2   173  CYS173     -0.2714
     29  CB         6.8000  -15.6730   15.4150 C.3   173  CYS173      0.0997
     30  SG         7.4720  -14.0900   15.9030 S.3   173  CYS173     -0.0797
     31  N          5.0390  -13.8730   13.6480 N.am  174  GLN174     -0.1963
     32  CA         4.7060  -13.2210   12.4090 C.3   174  GLN174      0.1733
     33  C          5.2210  -14.0530   11.2120 C.2   174  GLN174      0.2616
     34  O          6.3250  -14.6100   11.2860 O.2   174  GLN174     -0.2715
     35  CB         5.4260  -11.8550   12.3960 C.3   174  GLN174      0.0408
     36  CG         4.9590  -10.7430   13.3780 C.3   174  GLN174      0.0908
     37  CD         5.1890  -11.0270   14.9230 C.2   174  GLN174      0.2608
     38  OE1        4.3270  -11.4290   15.6500 O.2   174  GLN174     -0.2717
     39  NE2        6.3200  -10.8130   15.3640 N.am  174  GLN174     -0.0878
     40  N          4.3680  -14.2270   10.2030 N.am  175  GLY175     -0.1955
     41  CA         4.5660  -15.0430    9.0130 C.3   175  GLY175      0.1869
     42  C          4.0390  -16.4540    9.1100 C.2   175  GLY175      0.2309
     43  O          3.8910  -17.1430    8.1090 O.2   175  GLY175     -0.2863
     44  N          1.0520  -16.8120   10.5180 N.3   177  SER177     -0.1217
     45  CA        -0.3870  -16.4960   10.4410 C.3   177  SER177      0.1889
     46  C         -1.0940  -17.2950    9.4150 C.2   177  SER177      0.2288
     47  O         -0.6240  -17.4120    8.2800 O.2   177  SER177     -0.2866
     48  CB        -0.4950  -14.9540    9.8980 C.3   177  SER177      0.2089
     49  OG        -0.1440  -14.0250   10.8340 O.3   177  SER177     -0.2183
     50  N         -3.2960  -20.2730   13.1230 N.3   191  VAL191     -0.1231
     51  CA        -2.4420  -19.2540   13.7480 C.3   191  VAL191      0.1692
     52  C         -3.0560  -17.9010   13.5750 C.2   191  VAL191      0.2593
     53  O         -3.2720  -17.4020   12.4510 O.2   191  VAL191     -0.2718
     54  CB        -1.0290  -19.2690   13.1390 C.3   191  VAL191      0.0266
     55  CG1       -0.1280  -18.2030   13.7790 C.3   191  VAL191      0.0020
     56  CG2       -0.3510  -20.6380   13.2000 C.3   191  VAL191      0.0020
     57  N         -3.3850  -17.2210   14.6980 N.am  192  SER192     -0.1938
     58  CA        -4.1840  -15.9880   14.6620 C.3   192  SER192      0.2055
     59  C         -3.3990  -14.7910   15.2320 C.2   192  SER192      0.2643
     60  O         -3.1010  -13.8330   14.4590 O.2   192  SER192     -0.2714
     61  CB        -5.5330  -16.1940   15.3290 C.3   192  SER192      0.2130
     62  OG        -6.3220  -14.9900   15.2430 O.3   192  SER192     -0.2179
     63  N         -3.0710  -14.7580   16.5310 N.am  193  TRP193     -0.1959
     64  CA        -2.4250  -13.5440   17.0960 C.3   193  TRP193      0.1771
     65  C         -1.7470  -13.8910   18.3660 C.2   193  TRP193      0.2620
     66  O         -1.7570  -14.9960   18.8940 O.2   193  TRP193     -0.2715
     67  CB        -3.5020  -12.4200   17.2750 C.3   193  TRP193      0.0590
     68  CG        -4.5760  -12.7180   18.2410 C.ar  193  TRP193      0.0006
     69  CD1       -5.7550  -13.3450   18.0220 C.ar  193  TRP193      0.0946
     70  CD2       -4.6360  -12.2650   19.6120 C.ar  193  TRP193      0.0152
     71  NE1       -6.5470  -13.3580   19.1600 N.ar  193  TRP193     -0.2442
     72  CE2       -5.9020  -12.7200   20.1360 C.ar  193  TRP193      0.0810
     73  CE3       -3.7710  -11.5350   20.4660 C.ar  193  TRP193      0.0012
     74  CZ2       -6.3000  -12.4560   21.4740 C.ar  193  TRP193      0.0191
     75  CZ3       -4.1700  -11.3030   21.7840 C.ar  193  TRP193      0.0001
     76  CH2       -5.4020  -11.7620   22.2830 C.ar  193  TRP193      0.0015
     77  N         -1.2030  -12.8310   19.0710 N.am  194  GLY194     -0.1954
     78  CA        -0.6510  -12.9200   20.4190 C.3   194  GLY194      0.1869
     79  C         -0.0300  -11.5500   20.7000 C.2   194  GLY194      0.2309
     80  O         -0.3480  -10.5380   20.0440 O.2   194  GLY194     -0.2863
     81  N          3.7620  -10.1620   20.8620 N.3   196  GLY196     -0.1210
     82  CA         5.1070  -10.6460   20.5640 C.3   196  GLY196      0.1956
     83  C          5.1070  -12.1640   20.3300 C.2   196  GLY196      0.2612
     84  O          4.0280  -12.7520   20.0390 O.2   196  GLY196     -0.2717
     85  N          6.2560  -12.7430   20.4590 N.am  197  CYS197     -0.1970
     86  CA         6.4370  -14.1890   20.1970 C.3   197  CYS197      0.1712
     87  C          7.2560  -14.7950   21.2600 C.2   197  CYS197      0.2296
     88  O          8.3440  -14.2220   21.5760 O.2   197  CYS197     -0.2864
     89  CB         7.1320  -14.4670   18.8490 C.3   197  CYS197      0.0983
     90  SG         6.2940  -13.5710   17.5170 S.3   197  CYS197     -0.0798
     91  N          2.5810  -14.9850   27.5000 N.3   202  LYS202     -0.1231
     92  CA         1.9410  -14.4480   26.2890 C.3   202  LYS202      0.1678
     93  C          1.9960  -15.5580   25.2540 C.2   202  LYS202      0.2434
     94  O          2.6830  -15.4840   24.2440 O.2   202  LYS202     -0.2733
     95  CB         2.6020  -13.1950   25.8170 C.3   202  LYS202      0.0284
     96  CG         2.4100  -12.0390   26.7960 C.3   202  LYS202      0.0035
     97  CD         0.9050  -11.6100   26.8860 C.3   202  LYS202      0.0206
     98  CE         0.7510  -10.4860   27.9510 C.3   202  LYS202      0.1093
     99  NZ        -0.7060  -10.0590   28.0020 N.3   202  LYS202     -0.1314
    100  N          1.2040  -16.6330   25.4600 N.am  203  PRO203     -0.2718
    101  CA         1.1950  -17.7420   24.4610 C.3   203  PRO203      0.1535
    102  C          0.4710  -17.3180   23.1900 C.2   203  PRO203      0.2599
    103  O         -0.2630  -16.3330   23.1490 O.2   203  PRO203     -0.2715
    104  CB         0.4200  -18.8540   25.2270 C.3   203  PRO203      0.0310
    105  CG        -0.5290  -18.0620   26.0920 C.3   203  PRO203      0.0237
    106  CD         0.2770  -16.8670   26.5970 C.3   203  PRO203      0.0939
    107  N          0.6200  -18.1510   22.1860 N.am  204  GLY204     -0.1941
    108  CA        -0.1200  -17.9110   20.9150 C.3   204  GLY204      0.2014
    109  C         -1.6010  -18.1130   21.1040 C.2   204  GLY204      0.2638
    110  O         -2.0560  -18.9810   21.8970 O.2   204  GLY204     -0.2714
    111  N         -2.3710  -17.3640   20.3200 N.am  205  VAL205     -0.1977
    112  CA        -3.8330  -17.4430   20.2760 C.3   205  VAL205      0.1596
    113  C         -4.2180  -17.8920   18.8850 C.2   205  VAL205      0.2287
    114  O         -3.6740  -17.4220   17.8450 O.2   205  VAL205     -0.2864
    115  CB        -4.5010  -16.0740   20.6270 C.3   205  VAL205      0.0276
    116  CG1       -5.9900  -16.3090   20.7540 C.3   205  VAL205      0.0022
    117  CG2       -3.9070  -15.4920   21.9220 C.3   205  VAL205      0.0022
@<TRIPOS>BOND
     1     4     3    2
     2     3     2    1
     3    43    42    2
     4    47    46    2
     5     2     1    1
     6     2     5    1
     7    41    42    1
     8    41    40    1
     9    46    45    1
    10    48    45    1
    11    48    49    1
    12     5     6    1
    13     8     6   ar
    14     8    10   ar
    15    40    33   am
    16    45    44    1
    17     6     7   ar
    18    10     9   ar
    19    33    34    2
    20    33    32    1
    21     7     9   ar
    22    35    32    1
    23    35    36    1
    24    32    31    1
    25    53    52    2
    26    28    27    2
    27    50    51    1
    28    54    56    1
    29    54    51    1
    30    54    55    1
    31    36    37    1
    32    52    51    1
    33    52    57   am
    34    31    27   am
    35    27    26    1
    36    60    59    2
    37    58    57    1
    38    58    59    1
    39    58    61    1
    40    37    39   am
    41    37    38    2
    42    26    25    1
    43    26    29    1
    44    59    63   am
    45    62    61    1
    46    25    21   am
    47    29    30    1
    48    30    90    1
    49    23    20    1
    50    23    24    1
    51    21    20    1
    52    21    22    2
    53    63    64    1
    54    20    19    1
    55    64    67    1
    56    64    65    1
    57    67    68    1
    58    90    89    1
    59    14    13    2
    60   114   113    2
    61    19    13   am
    62    69    68   ar
    63    69    71   ar
    64    68    70   ar
    65    65    66    2
    66    65    77   am
    67    13    12    1
    68    89    86    1
    69   113   112    1
    70    77    78    1
    71    71    72   ar
    72    70    72   ar
    73    70    73   ar
    74    12    11    1
    75    12    15    1
    76    84    83    2
    77    80    79    2
    78    72    74   ar
    79    86    85    1
    80    86    87    1
    81   112   111    1
    82   112   115    1
    83    17    16   ar
    84   111   109   am
    85    83    85   am
    86    83    82    1
    87    78    79    1
    88    73    75   ar
    89    82    81    1
    90    15    16    1
    91   115   116    1
    92   115   117    1
    93    16    18   ar
    94   108   109    1
    95   108   107    1
    96   109   110    2
    97    87    88    2
    98    74    76   ar
    99    75    76   ar
   100   107   102   am
   101   103   102    2
   102   102   101    1
   103    94    93    2
   104   101   104    1
   105   101   100    1
   106   104   105    1
   107    93   100   am
   108    93    92    1
   109   100   106    1
   110    95    92    1
   111    95    96    1
   112   105   106    1
   113    92    91    1
   114    96    97    1
   115    97    98    1
   116    98    99    1
