@<TRIPOS>MOLECULE
tmp/4abaA00.pdb
 113 112 0 0 0
SMALL
GASTEIGER

@<TRIPOS>ATOM
      1  N         -7.2880  -12.4540    8.6790 N.3    40  HIS40      -0.1241
      2  CA        -6.3350  -11.3220    8.6410 C.3    40  HIS40       0.1621
      3  C         -5.3000  -11.5270    7.5700 C.2    40  HIS40       0.2264
      4  O         -4.5370  -10.5580    7.2900 O.2    40  HIS40      -0.2867
      5  CB        -5.7620  -11.0190   10.0050 C.3    40  HIS40       0.0745
      6  CG        -4.6220  -11.8700   10.4420 C.ar   40  HIS40       0.0817
      7  ND1       -4.7150  -12.9490   11.2750 N.ar   40  HIS40      -0.2268
      8  CD2       -3.3050  -11.7380   10.1270 C.ar   40  HIS40       0.1154
      9  CE1       -3.5310  -13.4920   11.4850 C.ar   40  HIS40       0.1986
     10  NE2       -2.5900  -12.7240   10.7900 N.ar   40  HIS40      -0.2212
     11  N          6.9170  -20.8510   20.2710 N.3   171  ASP171     -0.1225
     12  CA         5.6370  -20.2040   19.8710 C.3   171  ASP171      0.1805
     13  C          5.5970  -20.0650   18.3870 C.2   171  ASP171      0.2598
     14  O          6.6100  -20.2460   17.6690 O.2   171  ASP171     -0.2718
     15  CB         5.5790  -18.7910   20.5230 C.3   171  ASP171      0.1424
     16  CG         4.2560  -18.1230   20.5840 C.2   171  ASP171      0.3668
     17  OD1        3.1990  -18.6750   20.1720 O.co2 171  ASP171     -0.2456
     18  OD2        4.2330  -16.9660   21.0950 O.co2 171  ASP171     -0.2456
     19  N          4.4480  -19.7720   17.8130 N.am  172  SER172     -0.1938
     20  CA         4.3270  -19.2380   16.4680 C.3   172  SER172      0.2055
     21  C          4.6930  -17.8120   16.4080 C.2   172  SER172      0.2643
     22  O          4.7920  -17.1320   17.4540 O.2   172  SER172     -0.2714
     23  CB         2.9110  -19.4950   15.9340 C.3   172  SER172      0.2130
     24  OG         1.9540  -18.8670   16.7310 O.3   172  SER172     -0.2179
     25  N          4.8720  -17.2640   15.1990 N.am  173  CYS173     -0.1953
     26  CA         5.3000  -15.8640   15.0650 C.3   173  CYS173      0.1843
     27  C          4.8930  -15.2780   13.7590 C.2   173  CYS173      0.2625
     28  O          4.2200  -15.9360   12.9750 O.2   173  CYS173     -0.2714
     29  CB         6.8540  -15.7760   15.3380 C.3   173  CYS173      0.0997
     30  SG         7.4780  -14.1560   15.8270 S.3   173  CYS173     -0.0797
     31  N          5.3400  -14.0400   13.4500 N.am  174  GLN174     -0.1977
     32  CA         4.9150  -13.3400   12.2430 C.3   174  GLN174      0.1601
     33  C          5.3050  -14.1540   11.0140 C.2   174  GLN174      0.2287
     34  O          6.4430  -14.6830   10.9230 O.2   174  GLN174     -0.2864
     35  CB         5.6810  -11.9870   12.1350 C.3   174  GLN174      0.0394
     36  CG         5.0580  -10.9520   11.1920 C.3   174  GLN174      0.0908
     37  CD         5.3110  -11.3050    9.7250 C.2   174  GLN174      0.2608
     38  OE1        6.3900  -11.7150    9.2590 O.2   174  GLN174     -0.2717
     39  NE2        4.2590  -11.1410    8.9490 N.am  174  GLN174     -0.0878
     40  N          1.0390  -16.8870   10.4620 N.3   177  SER177     -0.1217
     41  CA        -0.4080  -16.6380   10.4960 C.3   177  SER177      0.1889
     42  C         -1.1290  -17.3270    9.3800 C.2   177  SER177      0.2288
     43  O         -0.6220  -17.4130    8.2360 O.2   177  SER177     -0.2866
     44  CB        -0.7470  -15.1350   10.3390 C.3   177  SER177      0.2089
     45  OG        -0.4690  -14.5720   11.6460 O.3   177  SER177     -0.2183
     46  N         -3.2730  -20.3360   13.0590 N.3   191  VAL191     -0.1231
     47  CA        -2.4180  -19.3380   13.6930 C.3   191  VAL191      0.1692
     48  C         -3.0410  -17.9870   13.5360 C.2   191  VAL191      0.2593
     49  O         -3.2630  -17.4660   12.3950 O.2   191  VAL191     -0.2718
     50  CB        -1.0210  -19.3710   13.0630 C.3   191  VAL191      0.0266
     51  CG1       -0.1190  -18.3310   13.7170 C.3   191  VAL191      0.0020
     52  CG2       -0.3300  -20.7400   13.1250 C.3   191  VAL191      0.0020
     53  N         -3.3420  -17.2870   14.6390 N.am  192  SER192     -0.1938
     54  CA        -4.1540  -16.0300   14.6130 C.3   192  SER192      0.2055
     55  C         -3.3680  -14.8850   15.2010 C.2   192  SER192      0.2643
     56  O         -3.0580  -13.9010   14.4190 O.2   192  SER192     -0.2714
     57  CB        -5.5040  -16.2550   15.2870 C.3   192  SER192      0.2130
     58  OG        -6.3110  -15.0830   15.1950 O.3   192  SER192     -0.2179
     59  N         -3.0010  -14.8390   16.5020 N.am  193  TRP193     -0.1959
     60  CA        -2.3620  -13.6110   17.0410 C.3   193  TRP193      0.1771
     61  C         -1.6830  -13.9670   18.3120 C.2   193  TRP193      0.2620
     62  O         -1.7350  -15.0810   18.8780 O.2   193  TRP193     -0.2715
     63  CB        -3.4330  -12.4760   17.2490 C.3   193  TRP193      0.0590
     64  CG        -4.5650  -12.7780   18.1860 C.ar  193  TRP193      0.0006
     65  CD1       -5.7490  -13.4390   17.9630 C.ar  193  TRP193      0.0946
     66  CD2       -4.5980  -12.3500   19.5930 C.ar  193  TRP193      0.0152
     67  NE1       -6.5240  -13.4130   19.1080 N.ar  193  TRP193     -0.2442
     68  CE2       -5.8320  -12.8110   20.1230 C.ar  193  TRP193      0.0810
     69  CE3       -3.7090  -11.6340   20.4550 C.ar  193  TRP193      0.0012
     70  CZ2       -6.2300  -12.5160   21.4500 C.ar  193  TRP193      0.0191
     71  CZ3       -4.1210  -11.4100   21.7780 C.ar  193  TRP193      0.0001
     72  CH2       -5.3220  -11.8430   22.2440 C.ar  193  TRP193      0.0015
     73  N         -1.0690  -12.9340   18.9310 N.am  194  GLY194     -0.1954
     74  CA        -0.5140  -13.0240   20.2940 C.3   194  GLY194      0.1869
     75  C          0.0300  -11.6610   20.6610 C.2   194  GLY194      0.2309
     76  O         -0.3670  -10.6190   20.0830 O.2   194  GLY194     -0.2863
     77  N          3.7530  -10.2010   20.7900 N.3   196  GLY196     -0.1210
     78  CA         5.1300  -10.7080   20.4890 C.3   196  GLY196      0.1956
     79  C          5.1010  -12.2080   20.2360 C.2   196  GLY196      0.2612
     80  O          4.0220  -12.7680   19.9430 O.2   196  GLY196     -0.2717
     81  N          6.2510  -12.7970   20.3900 N.am  197  CYS197     -0.1970
     82  CA         6.3990  -14.2720   20.1370 C.3   197  CYS197      0.1712
     83  C          7.2340  -14.8600   21.1750 C.2   197  CYS197      0.2296
     84  O          8.3270  -14.3050   21.4810 O.2   197  CYS197     -0.2864
     85  CB         7.1010  -14.5250   18.7660 C.3   197  CYS197      0.0983
     86  SG         6.2690  -13.6360   17.4420 S.3   197  CYS197     -0.0798
     87  N          2.6140  -15.0660   27.4840 N.3   202  LYS202     -0.1231
     88  CA         1.9590  -14.5490   26.2420 C.3   202  LYS202      0.1678
     89  C          2.0070  -15.6700   25.2010 C.2   202  LYS202      0.2434
     90  O          2.7160  -15.5980   24.2210 O.2   202  LYS202     -0.2733
     91  CB         2.6240  -13.2740   25.7730 C.3   202  LYS202      0.0284
     92  CG         2.4390  -12.1090   26.7630 C.3   202  LYS202      0.0035
     93  CD         0.9780  -11.7300   26.9010 C.3   202  LYS202      0.0206
     94  CE         0.7680  -10.6750   27.9960 C.3   202  LYS202      0.1093
     95  NZ        -0.6600  -10.1770   28.0130 N.3   202  LYS202     -0.1314
     96  N          1.2370  -16.7340   25.4340 N.am  203  PRO203     -0.2718
     97  CA         1.2310  -17.8590   24.4190 C.3   203  PRO203      0.1535
     98  C          0.4960  -17.4080   23.1560 C.2   203  PRO203      0.2599
     99  O         -0.2670  -16.4760   23.1540 O.2   203  PRO203     -0.2715
    100  CB         0.4450  -18.9970   25.1920 C.3   203  PRO203      0.0310
    101  CG        -0.4860  -18.2090   26.0650 C.3   203  PRO203      0.0237
    102  CD         0.2960  -16.9890   26.5360 C.3   203  PRO203      0.0939
    103  N          0.6960  -18.2000   22.1170 N.am  204  GLY204     -0.1941
    104  CA        -0.0890  -17.9240   20.8770 C.3   204  GLY204      0.2014
    105  C         -1.5600  -18.1680   21.0560 C.2   204  GLY204      0.2638
    106  O         -1.9910  -19.0600   21.8360 O.2   204  GLY204     -0.2714
    107  N         -2.3120  -17.4080   20.2800 N.am  205  VAL205     -0.1977
    108  CA        -3.7680  -17.5020   20.2200 C.3   205  VAL205      0.1596
    109  C         -4.1750  -17.9540   18.8310 C.2   205  VAL205      0.2287
    110  O         -3.5920  -17.5080   17.8150 O.2   205  VAL205     -0.2864
    111  CB        -4.4610  -16.1720   20.6140 C.3   205  VAL205      0.0276
    112  CG1       -5.9840  -16.3870   20.7760 C.3   205  VAL205      0.0022
    113  CG2       -3.8430  -15.6210   21.9170 C.3   205  VAL205      0.0022
@<TRIPOS>BOND
     1     4     3    2
     2     3     2    1
     3    43    42    2
     4     2     1    1
     5     2     5    1
     6    39    37   am
     7    38    37    2
     8    42    41    1
     9    37    36    1
    10     5     6    1
    11     8     6   ar
    12     8    10   ar
    13    44    41    1
    14    44    45    1
    15     6     7   ar
    16    40    41    1
    17    10     9   ar
    18    34    33    2
    19    33    32    1
    20    36    35    1
    21     7     9   ar
    22    35    32    1
    23    32    31    1
    24    49    48    2
    25    28    27    2
    26    46    47    1
    27    50    52    1
    28    50    47    1
    29    50    51    1
    30    31    27   am
    31    48    47    1
    32    48    53   am
    33    27    26    1
    34    56    55    2
    35    54    53    1
    36    54    55    1
    37    54    57    1
    38    26    25    1
    39    26    29    1
    40    58    57    1
    41    25    21   am
    42    55    59   am
    43    29    30    1
    44    30    86    1
    45    23    20    1
    46    23    24    1
    47    21    20    1
    48    21    22    2
    49    20    19    1
    50    59    60    1
    51    60    63    1
    52    60    61    1
    53    63    64    1
    54    86    85    1
    55    14    13    2
    56    19    13   am
    57   110   109    2
    58    65    64   ar
    59    65    67   ar
    60    64    66   ar
    61    61    62    2
    62    61    73   am
    63    13    12    1
    64    85    82    1
    65   109   108    1
    66    73    74    1
    67    67    68   ar
    68    66    68   ar
    69    66    69   ar
    70    12    11    1
    71    12    15    1
    72    80    79    2
    73    76    75    2
    74    68    70   ar
    75    82    81    1
    76    82    83    1
    77    17    16   ar
    78   108   107    1
    79   108   111    1
    80    79    81   am
    81    79    78    1
    82   107   105   am
    83    74    75    1
    84    69    71   ar
    85    78    77    1
    86    15    16    1
    87    16    18   ar
    88   111   112    1
    89   111   113    1
    90   104   105    1
    91   104   103    1
    92   105   106    2
    93    83    84    2
    94    70    72   ar
    95    71    72   ar
    96   103    98   am
    97    99    98    2
    98    98    97    1
    99    90    89    2
   100    97   100    1
   101    97    96    1
   102   100   101    1
   103    89    96   am
   104    89    88    1
   105    96   102    1
   106    91    88    1
   107    91    92    1
   108   101   102    1
   109    88    87    1
   110    92    93    1
   111    93    94    1
   112    94    95    1
