@<TRIPOS>MOLECULE
tmp/4abbA00.pdb
 97 95 0 0 0
SMALL
GASTEIGER

@<TRIPOS>ATOM
      1  N         -7.2770  -12.4370    8.6930 N.3    40  HIS40      -0.1241
      2  CA        -6.3480  -11.2980    8.6410 C.3    40  HIS40       0.1621
      3  C         -5.2980  -11.5110    7.5450 C.2    40  HIS40       0.2264
      4  O         -4.5380  -10.5400    7.2800 O.2    40  HIS40      -0.2867
      5  CB        -5.8130  -10.9710   10.0060 C.3    40  HIS40       0.0745
      6  CG        -4.6660  -11.8580   10.4310 C.ar   40  HIS40       0.0817
      7  ND1       -4.7580  -12.9170   11.2800 N.ar   40  HIS40      -0.2268
      8  CD2       -3.3010  -11.7100   10.1880 C.ar   40  HIS40       0.1154
      9  CE1       -3.5500  -13.4770   11.5060 C.ar   40  HIS40       0.1986
     10  NE2       -2.6440  -12.7180   10.8280 N.ar   40  HIS40      -0.2212
     11  N          6.8610  -20.7020   20.2310 N.3   171  ASP171     -0.1225
     12  CA         5.5820  -20.0740   19.8110 C.3   171  ASP171      0.1805
     13  C          5.5590  -19.9420   18.3250 C.2   171  ASP171      0.2598
     14  O          6.5670  -20.1260   17.6150 O.2   171  ASP171     -0.2718
     15  CB         5.5100  -18.6740   20.4570 C.3   171  ASP171      0.1424
     16  CG         4.1600  -18.0610   20.5150 C.2   171  ASP171      0.3668
     17  OD1        3.1130  -18.5980   20.1150 O.co2 171  ASP171     -0.2456
     18  OD2        4.1210  -16.8800   20.9880 O.co2 171  ASP171     -0.2456
     19  N          4.3930  -19.6570   17.7760 N.am  172  SER172     -0.1938
     20  CA         4.2700  -19.1500   16.4100 C.3   172  SER172      0.2055
     21  C          4.5950  -17.6930   16.3640 C.2   172  SER172      0.2643
     22  O          4.5670  -16.9990   17.3940 O.2   172  SER172     -0.2714
     23  CB         2.8690  -19.4320   15.8600 C.3   172  SER172      0.2130
     24  OG         1.8830  -18.8140   16.6640 O.3   172  SER172     -0.2179
     25  N          4.8310  -17.1450   15.1620 N.am  173  CYS173     -0.1953
     26  CA         5.1940  -15.7330   15.0320 C.3   173  CYS173      0.1843
     27  C          4.8160  -15.1740   13.7100 C.2   173  CYS173      0.2625
     28  O          4.2120  -15.8660   12.9190 O.2   173  CYS173     -0.2714
     29  CB         6.7200  -15.6020   15.3150 C.3   173  CYS173      0.0997
     30  SG         7.3180  -13.9780   15.8150 S.3   173  CYS173     -0.0797
     31  N          5.0910  -13.8880   13.4890 N.am  174  GLN174     -0.1977
     32  CA         4.6930  -13.2200   12.2830 C.3   174  GLN174      0.1601
     33  C          5.1980  -14.0270   11.0680 C.2   174  GLN174      0.2287
     34  O          6.3580  -14.5380   11.1050 O.2   174  GLN174     -0.2864
     35  CB         5.3850  -11.8560   12.3200 C.3   174  GLN174      0.0394
     36  CG         4.9590  -10.7960   11.2580 C.3   174  GLN174      0.0908
     37  CD         5.1970  -11.1520    9.7820 C.2   174  GLN174      0.2608
     38  OE1        6.2810  -11.5940    9.3280 O.2   174  GLN174     -0.2717
     39  NE2        4.1870  -10.9240    9.0000 N.am  174  GLN174     -0.0878
     40  N          1.0730  -16.7760   10.4480 N.3   177  SER177     -0.1217
     41  CA        -0.3420  -16.4000   10.3700 C.3   177  SER177      0.1889
     42  C         -1.0970  -17.2090    9.3360 C.2   177  SER177      0.2288
     43  O         -0.6450  -17.3410    8.1960 O.2   177  SER177     -0.2866
     44  CB        -0.4870  -14.8830    9.9470 C.3   177  SER177      0.2089
     45  OG        -0.1830  -14.1410   11.1070 O.3   177  SER177     -0.2183
     46  N         -3.2710  -20.2390   13.0560 N.3   191  VAL191     -0.1231
     47  CA        -2.4120  -19.2060   13.6700 C.3   191  VAL191      0.1692
     48  C         -3.0770  -17.8650   13.5170 C.2   191  VAL191      0.2593
     49  O         -3.3210  -17.3870   12.3990 O.2   191  VAL191     -0.2718
     50  CB        -1.0470  -19.2160   13.0050 C.3   191  VAL191      0.0266
     51  CG1       -0.1120  -18.2130   13.7100 C.3   191  VAL191      0.0020
     52  CG2       -0.4030  -20.6130   13.0390 C.3   191  VAL191      0.0020
     53  N         -3.3660  -17.1980   14.6480 N.am  192  SER192     -0.1938
     54  CA        -4.1530  -15.9540   14.6200 C.3   192  SER192      0.2055
     55  C         -3.3600  -14.7920   15.2040 C.2   192  SER192      0.2643
     56  O         -3.0780  -13.8280   14.4200 O.2   192  SER192     -0.2714
     57  CB        -5.5140  -16.1730   15.2960 C.3   192  SER192      0.2130
     58  OG        -6.3110  -15.0020   15.2020 O.3   192  SER192     -0.2179
     59  N         -3.0200  -14.7580   16.4960 N.am  193  TRP193     -0.1959
     60  CA        -2.3700  -13.5500   17.0410 C.3   193  TRP193      0.1771
     61  C         -1.7040  -13.9000   18.3290 C.2   193  TRP193      0.2620
     62  O         -1.7710  -14.9940   18.8700 O.2   193  TRP193     -0.2715
     63  CB        -3.4190  -12.4120   17.2290 C.3   193  TRP193      0.0590
     64  CG        -4.5270  -12.6940   18.1770 C.ar  193  TRP193      0.0006
     65  CD1       -5.7020  -13.3770   17.9650 C.ar  193  TRP193      0.0946
     66  CD2       -4.5750  -12.2400   19.5710 C.ar  193  TRP193      0.0152
     67  NE1       -6.5000  -13.3550   19.0970 N.ar  193  TRP193     -0.2442
     68  CE2       -5.8360  -12.7280   20.0930 C.ar  193  TRP193      0.0810
     69  CE3       -3.7170  -11.5290   20.4300 C.ar  193  TRP193      0.0012
     70  CZ2       -6.2250  -12.4340   21.4130 C.ar  193  TRP193      0.0191
     71  CZ3       -4.1290  -11.2710   21.7400 C.ar  193  TRP193      0.0001
     72  CH2       -5.3360  -11.7300   22.2030 C.ar  193  TRP193      0.0015
     73  N         -1.0540  -12.8720   18.9240 N.am  194  GLY194     -0.1954
     74  CA        -0.5540  -12.9310   20.3120 C.3   194  GLY194      0.1869
     75  C          0.1370  -11.6270   20.5730 C.2   194  GLY194      0.2309
     76  O          0.2600  -10.7570   19.6420 O.2   194  GLY194     -0.2863
     77  N          3.6020  -10.1190   20.8460 N.3   196  GLY196     -0.1210
     78  CA         4.9850  -10.6110   20.5450 C.3   196  GLY196      0.1956
     79  C          4.9550  -12.1250   20.2700 C.2   196  GLY196      0.2612
     80  O          3.8790  -12.7040   20.0170 O.2   196  GLY196     -0.2717
     81  N          6.1290  -12.6980   20.3750 N.am  197  CYS197     -0.1970
     82  CA         6.2700  -14.1490   20.1030 C.3   197  CYS197      0.1712
     83  C          7.1100  -14.7510   21.1720 C.2   197  CYS197      0.2296
     84  O          8.2140  -14.1930   21.4560 O.2   197  CYS197     -0.2864
     85  CB         6.9740  -14.3820   18.7360 C.3   197  CYS197      0.0983
     86  SG         6.1140  -13.5090   17.4430 S.3   197  CYS197     -0.0798
     87  N          0.6620  -18.1460   22.2360 N.3   204  GLY204     -0.1210
     88  CA        -0.0890  -17.8670   20.9610 C.3   204  GLY204      0.1956
     89  C         -1.5690  -18.1150   21.1060 C.2   204  GLY204      0.2611
     90  O         -2.0130  -18.9840   21.8630 O.2   204  GLY204     -0.2717
     91  N         -2.3080  -17.3340   20.3180 N.am  205  VAL205     -0.1979
     92  CA        -3.7850  -17.4240   20.2370 C.3   205  VAL205      0.1595
     93  C         -4.1460  -17.8720   18.8400 C.2   205  VAL205      0.2287
     94  O         -3.5620  -17.4340   17.8280 O.2   205  VAL205     -0.2864
     95  CB        -4.4620  -16.0790   20.6260 C.3   205  VAL205      0.0276
     96  CG1       -5.9770  -16.3110   20.7470 C.3   205  VAL205      0.0022
     97  CG2       -3.8790  -15.5130   21.9230 C.3   205  VAL205      0.0022
@<TRIPOS>BOND
     1     4     3    2
     2     3     2    1
     3    43    42    2
     4     2     1    1
     5     2     5    1
     6    39    37   am
     7    38    37    2
     8    42    41    1
     9    37    36    1
    10    44    41    1
    11    44    45    1
    12     5     6    1
    13     8     6   ar
    14     8    10   ar
    15    41    40    1
    16     6     7   ar
    17    10     9   ar
    18    33    34    2
    19    33    32    1
    20    36    35    1
    21     7     9   ar
    22    32    35    1
    23    32    31    1
    24    49    48    2
    25    28    27    2
    26    50    52    1
    27    50    47    1
    28    50    51    1
    29    46    47    1
    30    31    27   am
    31    48    47    1
    32    48    53   am
    33    27    26    1
    34    56    55    2
    35    54    53    1
    36    54    55    1
    37    54    57    1
    38    26    25    1
    39    26    29    1
    40    25    21   am
    41    58    57    1
    42    55    59   am
    43    29    30    1
    44    30    86    1
    45    23    20    1
    46    23    24    1
    47    21    20    1
    48    21    22    2
    49    20    19    1
    50    59    60    1
    51    60    63    1
    52    60    61    1
    53    63    64    1
    54    86    85    1
    55    14    13    2
    56    19    13   am
    57    94    93    2
    58    65    64   ar
    59    65    67   ar
    60    64    66   ar
    61    13    12    1
    62    61    62    2
    63    61    73   am
    64    85    82    1
    65    93    92    1
    66    73    74    1
    67    67    68   ar
    68    66    68   ar
    69    66    69   ar
    70    76    75    2
    71    12    11    1
    72    12    15    1
    73    80    79    2
    74    68    70   ar
    75    82    81    1
    76    82    83    1
    77    17    16   ar
    78    92    91    1
    79    92    95    1
    80    79    81   am
    81    79    78    1
    82    74    75    1
    83    91    89   am
    84    69    71   ar
    85    15    16    1
    86    16    18   ar
    87    78    77    1
    88    95    96    1
    89    95    97    1
    90    88    89    1
    91    88    87    1
    92    89    90    2
    93    83    84    2
    94    70    72   ar
    95    71    72   ar
