@<TRIPOS>MOLECULE
tmp/4abdA00.pdb
 113 112 0 0 0
SMALL
GASTEIGER

@<TRIPOS>ATOM
      1  N         -7.1990  -12.4310    8.7030 N.3    40  HIS40      -0.1241
      2  CA        -6.2640  -11.2980    8.6750 C.3    40  HIS40       0.1621
      3  C         -5.2150  -11.4830    7.6210 C.2    40  HIS40       0.2264
      4  O         -4.4920  -10.4970    7.3590 O.2    40  HIS40      -0.2867
      5  CB        -5.7300  -11.0110   10.0680 C.3    40  HIS40       0.0745
      6  CG        -4.5200  -11.7960   10.4850 C.ar   40  HIS40       0.0817
      7  ND1       -4.5870  -12.8700   11.3450 N.ar   40  HIS40      -0.2268
      8  CD2       -3.2130  -11.5940   10.2000 C.ar   40  HIS40       0.1154
      9  CE1       -3.3350  -13.3110   11.5640 C.ar   40  HIS40       0.1986
     10  NE2       -2.4760  -12.5350   10.8720 N.ar   40  HIS40      -0.2212
     11  N          6.9720  -20.9600   20.3550 N.3   171  ASP171     -0.1225
     12  CA         5.6930  -20.3040   19.9490 C.3   171  ASP171      0.1805
     13  C          5.6580  -20.1240   18.4460 C.2   171  ASP171      0.2598
     14  O          6.6690  -20.3040   17.7500 O.2   171  ASP171     -0.2718
     15  CB         5.6370  -18.8790   20.6200 C.3   171  ASP171      0.1424
     16  CG         4.3100  -18.2180   20.6860 C.2   171  ASP171      0.3668
     17  OD1        3.2590  -18.7810   20.2800 O.co2 171  ASP171     -0.2456
     18  OD2        4.2870  -17.0770   21.2000 O.co2 171  ASP171     -0.2456
     19  N          4.4990  -19.8470   17.8980 N.am  172  SER172     -0.1938
     20  CA         4.3750  -19.3430   16.5340 C.3   172  SER172      0.2055
     21  C          4.7580  -17.8640   16.4840 C.2   172  SER172      0.2643
     22  O          4.8590  -17.2020   17.5490 O.2   172  SER172     -0.2714
     23  CB         2.9730  -19.5500   16.0290 C.3   172  SER172      0.2130
     24  OG         2.0250  -18.8820   16.8390 O.3   172  SER172     -0.2179
     25  N          4.9380  -17.3310   15.2810 N.am  173  CYS173     -0.1953
     26  CA         5.3840  -15.9480   15.1690 C.3   173  CYS173      0.1843
     27  C          4.9760  -15.3430   13.8600 C.2   173  CYS173      0.2625
     28  O          4.2820  -15.9710   13.0580 O.2   173  CYS173     -0.2714
     29  CB         6.9240  -15.8740   15.4210 C.3   173  CYS173      0.0997
     30  SG         7.5860  -14.2900   15.9270 S.3   173  CYS173     -0.0797
     31  N          5.2700  -14.0500   13.6670 N.am  174  GLN174     -0.1977
     32  CA         4.9690  -13.3580   12.4380 C.3   174  GLN174      0.1601
     33  C          5.3690  -14.1890   11.2170 C.2   174  GLN174      0.2287
     34  O          6.4920  -14.7260   11.2090 O.2   174  GLN174     -0.2864
     35  CB         5.7710  -12.0480   12.4770 C.3   174  GLN174      0.0394
     36  CG         5.4180  -11.0200   11.3960 C.3   174  GLN174      0.0908
     37  CD         5.4590  -11.3540    9.9060 C.2   174  GLN174      0.2608
     38  OE1        6.5280  -11.7860    9.4230 O.2   174  GLN174     -0.2717
     39  NE2        4.3270  -11.2440    9.1590 N.am  174  GLN174     -0.0878
     40  N          1.0960  -16.8980   10.5000 N.3   177  SER177     -0.1217
     41  CA        -0.3640  -16.7070   10.5450 C.3   177  SER177      0.1889
     42  C         -1.0560  -17.4380    9.4090 C.2   177  SER177      0.2288
     43  O         -0.5690  -17.4980    8.2640 O.2   177  SER177     -0.2866
     44  CB        -0.7180  -15.2460   10.4940 C.3   177  SER177      0.2089
     45  OG        -0.3530  -14.5840   11.6970 O.3   177  SER177     -0.2183
     46  N         -3.2370  -20.4330   13.0890 N.3   191  VAL191     -0.1231
     47  CA        -2.3610  -19.4100   13.7190 C.3   191  VAL191      0.1692
     48  C         -2.9820  -18.0380   13.5460 C.2   191  VAL191      0.2593
     49  O         -3.1970  -17.5670   12.4210 O.2   191  VAL191     -0.2718
     50  CB        -0.9470  -19.4710   13.1030 C.3   191  VAL191      0.0266
     51  CG1        0.0020  -18.4490   13.7860 C.3   191  VAL191      0.0020
     52  CG2       -0.3060  -20.8760   13.1740 C.3   191  VAL191      0.0020
     53  N         -3.2360  -17.3600   14.6580 N.am  192  SER192     -0.1938
     54  CA        -4.0280  -16.1020   14.6230 C.3   192  SER192      0.2055
     55  C         -3.2320  -14.9720   15.2110 C.2   192  SER192      0.2643
     56  O         -2.9520  -13.9890   14.4480 O.2   192  SER192     -0.2714
     57  CB        -5.4000  -16.3150   15.2730 C.3   192  SER192      0.2130
     58  OG        -6.1920  -15.1240   15.2030 O.3   192  SER192     -0.2179
     59  N         -2.9340  -14.9410   16.5200 N.am  193  TRP193     -0.1959
     60  CA        -2.2810  -13.7110   17.0790 C.3   193  TRP193      0.1771
     61  C         -1.6160  -14.0440   18.3670 C.2   193  TRP193      0.2620
     62  O         -1.6720  -15.1580   18.9040 O.2   193  TRP193     -0.2715
     63  CB        -3.3120  -12.5560   17.2490 C.3   193  TRP193      0.0590
     64  CG        -4.4430  -12.8310   18.2120 C.ar  193  TRP193      0.0006
     65  CD1       -5.6320  -13.4990   17.9800 C.ar  193  TRP193      0.0946
     66  CD2       -4.4920  -12.4190   19.6190 C.ar  193  TRP193      0.0152
     67  NE1       -6.4440  -13.5140   19.1210 N.ar  193  TRP193     -0.2442
     68  CE2       -5.7700  -12.8650   20.1310 C.ar  193  TRP193      0.0810
     69  CE3       -3.6270  -11.6760   20.4570 C.ar  193  TRP193      0.0012
     70  CZ2       -6.1440  -12.5670   21.4740 C.ar  193  TRP193      0.0191
     71  CZ3       -4.0280  -11.4180   21.7600 C.ar  193  TRP193      0.0001
     72  CH2       -5.2630  -11.8630   22.2320 C.ar  193  TRP193      0.0015
     73  N         -0.9950  -13.0220   18.9710 N.am  194  GLY194     -0.1954
     74  CA        -0.4990  -13.0970   20.3470 C.3   194  GLY194      0.1869
     75  C          0.0830  -11.7300   20.6860 C.2   194  GLY194      0.2309
     76  O         -0.2370  -10.7240   20.0630 O.2   194  GLY194     -0.2863
     77  N          3.7340  -10.3230   20.8290 N.3   196  GLY196     -0.1210
     78  CA         5.1410  -10.8200   20.5280 C.3   196  GLY196      0.1956
     79  C          5.1160  -12.3260   20.2500 C.2   196  GLY196      0.2612
     80  O          4.0750  -12.9330   19.9340 O.2   196  GLY196     -0.2717
     81  N          6.2660  -12.9050   20.4490 N.am  197  CYS197     -0.1970
     82  CA         6.4680  -14.3890   20.2480 C.3   197  CYS197      0.1712
     83  C          7.2740  -14.9720   21.3000 C.2   197  CYS197      0.2296
     84  O          8.3900  -14.4180   21.6060 O.2   197  CYS197     -0.2864
     85  CB         7.1740  -14.6960   18.8590 C.3   197  CYS197      0.0983
     86  SG         6.3780  -13.7680   17.5440 S.3   197  CYS197     -0.0798
     87  N          2.6020  -15.1990   27.5590 N.3   202  LYS202     -0.1231
     88  CA         1.9440  -14.6810   26.3190 C.3   202  LYS202      0.1678
     89  C          2.0000  -15.8050   25.2580 C.2   202  LYS202      0.2434
     90  O          2.7370  -15.6880   24.2730 O.2   202  LYS202     -0.2733
     91  CB         2.6040  -13.4320   25.8870 C.3   202  LYS202      0.0284
     92  CG         2.3860  -12.2600   26.8780 C.3   202  LYS202      0.0035
     93  CD         0.8990  -11.9040   27.0340 C.3   202  LYS202      0.0206
     94  CE         0.7350  -10.7510   28.0730 C.3   202  LYS202      0.1093
     95  NZ        -0.6940  -10.2770   28.1240 N.3   202  LYS202     -0.1314
     96  N          1.2450  -16.8490   25.4900 N.am  203  PRO203     -0.2718
     97  CA         1.2360  -17.9630   24.4660 C.3   203  PRO203      0.1535
     98  C          0.5270  -17.5090   23.2130 C.2   203  PRO203      0.2599
     99  O         -0.2120  -16.5200   23.1690 O.2   203  PRO203     -0.2715
    100  CB         0.4680  -19.0460   25.2250 C.3   203  PRO203      0.0310
    101  CG        -0.5270  -18.2580   26.0780 C.3   203  PRO203      0.0237
    102  CD         0.3010  -17.0970   26.5900 C.3   203  PRO203      0.0939
    103  N          0.7020  -18.3190   22.1680 N.am  204  GLY204     -0.1941
    104  CA        -0.0390  -18.0520   20.9340 C.3   204  GLY204      0.2014
    105  C         -1.5230  -18.2730   21.0860 C.2   204  GLY204      0.2638
    106  O         -1.9790  -19.1290   21.8730 O.2   204  GLY204     -0.2714
    107  N         -2.2690  -17.5160   20.2870 N.am  205  VAL205     -0.1977
    108  CA        -3.7260  -17.5860   20.2310 C.3   205  VAL205      0.1596
    109  C         -4.1360  -18.0200   18.8360 C.2   205  VAL205      0.2287
    110  O         -3.5630  -17.5880   17.8320 O.2   205  VAL205     -0.2864
    111  CB        -4.4000  -16.2420   20.6150 C.3   205  VAL205      0.0276
    112  CG1       -5.9300  -16.4370   20.7860 C.3   205  VAL205      0.0022
    113  CG2       -3.8130  -15.6930   21.9220 C.3   205  VAL205      0.0022
@<TRIPOS>BOND
     1     4     3    2
     2     3     2    1
     3    43    42    2
     4     2     1    1
     5     2     5    1
     6    39    37   am
     7    42    41    1
     8    38    37    2
     9    37    36    1
    10     5     6    1
    11     8     6   ar
    12     8    10   ar
    13     6     7   ar
    14    44    41    1
    15    44    45    1
    16    40    41    1
    17    10     9   ar
    18    34    33    2
    19    33    32    1
    20     7     9   ar
    21    36    35    1
    22    49    48    2
    23    32    35    1
    24    32    31    1
    25    28    27    2
    26    46    47    1
    27    50    52    1
    28    50    47    1
    29    50    51    1
    30    48    47    1
    31    48    53   am
    32    31    27   am
    33    27    26    1
    34    56    55    2
    35    54    53    1
    36    54    55    1
    37    54    57    1
    38    26    25    1
    39    26    29    1
    40    58    57    1
    41    55    59   am
    42    25    21   am
    43    29    30    1
    44    30    86    1
    45    23    20    1
    46    23    24    1
    47    21    20    1
    48    21    22    2
    49    59    60    1
    50    20    19    1
    51    60    63    1
    52    60    61    1
    53    63    64    1
    54    86    85    1
    55    14    13    2
    56   110   109    2
    57    19    13   am
    58    65    64   ar
    59    65    67   ar
    60    64    66   ar
    61    61    62    2
    62    61    73   am
    63    13    12    1
    64   109   108    1
    65    85    82    1
    66    73    74    1
    67    67    68   ar
    68    66    68   ar
    69    66    69   ar
    70    80    79    2
    71    12    11    1
    72    12    15    1
    73    76    75    2
    74    68    70   ar
    75   108   107    1
    76   108   111    1
    77    82    81    1
    78    82    83    1
    79    79    81   am
    80    79    78    1
    81    17    16   ar
    82   107   105   am
    83    74    75    1
    84    69    71   ar
    85    78    77    1
    86   111   112    1
    87   111   113    1
    88    15    16    1
    89    16    18   ar
    90   104   105    1
    91   104   103    1
    92   105   106    2
    93    83    84    2
    94    70    72   ar
    95    71    72   ar
    96   103    98   am
    97    99    98    2
    98    98    97    1
    99    90    89    2
   100    97   100    1
   101    97    96    1
   102   100   101    1
   103    89    96   am
   104    89    88    1
   105    96   102    1
   106    91    88    1
   107    91    92    1
   108   101   102    1
   109    88    87    1
   110    92    93    1
   111    93    94    1
   112    94    95    1
