@<TRIPOS>MOLECULE
tmp/4abeA00.pdb
 104 103 0 0 0
SMALL
GASTEIGER

@<TRIPOS>ATOM
      1  N          7.2790   12.4570    8.6840 N.3    40  HIS40      -0.1241
      2  CA         6.3440   11.3230    8.6560 C.3    40  HIS40       0.1621
      3  C          5.2890   11.4980    7.5930 C.2    40  HIS40       0.2264
      4  O          4.5650   10.5450    7.2990 O.2    40  HIS40      -0.2867
      5  CB         5.7770   10.9720   10.0170 C.3    40  HIS40       0.0745
      6  CG         4.6130   11.8000   10.4410 C.ar   40  HIS40       0.0817
      7  ND1        4.6790   12.8750   11.3020 N.ar   40  HIS40      -0.2268
      8  CD2        3.3060   11.6560   10.1020 C.ar   40  HIS40       0.1154
      9  CE1        3.4450   13.3980   11.4900 C.ar   40  HIS40       0.1986
     10  NE2        2.5750   12.6300   10.7890 N.ar   40  HIS40      -0.2212
     11  N         -6.9550   20.9230   20.2900 N.3   171  ASP171     -0.1225
     12  CA        -5.6420   20.2850   19.9110 C.3   171  ASP171      0.1805
     13  C         -5.6170   20.1030   18.4000 C.2   171  ASP171      0.2598
     14  O         -6.6310   20.3050   17.6750 O.2   171  ASP171     -0.2718
     15  CB        -5.6240   18.8770   20.5590 C.3   171  ASP171      0.1424
     16  CG        -4.2580   18.2060   20.6590 C.2   171  ASP171      0.3668
     17  OD1       -3.2360   18.7410   20.2190 O.co2 171  ASP171     -0.2456
     18  OD2       -4.2430   17.0670   21.1750 O.co2 171  ASP171     -0.2456
     19  N         -4.4420   19.8340   17.8560 N.am  172  SER172     -0.1938
     20  CA        -4.3140   19.2880   16.4700 C.3   172  SER172      0.2055
     21  C         -4.6880   17.8390   16.4290 C.2   172  SER172      0.2643
     22  O         -4.7940   17.1760   17.4820 O.2   172  SER172     -0.2714
     23  CB        -2.8950   19.5170   15.9690 C.3   172  SER172      0.2130
     24  OG        -1.9710   18.8960   16.8000 O.3   172  SER172     -0.2179
     25  N         -4.9100   17.3200   15.2310 N.am  173  CYS173     -0.1953
     26  CA        -5.3080   15.9080   15.1250 C.3   173  CYS173      0.1843
     27  C         -4.8950   15.3080   13.7870 C.2   173  CYS173      0.2625
     28  O         -4.2620   15.9840   13.0040 O.2   173  CYS173     -0.2714
     29  CB        -6.8690   15.8520   15.3580 C.3   173  CYS173      0.0997
     30  SG        -7.5130   14.2080   15.8460 S.3   173  CYS173     -0.0797
     31  N         -5.4190   14.0960   13.4690 N.am  174  GLN174     -0.1977
     32  CA        -4.9570   13.3560   12.3200 C.3   174  GLN174      0.1601
     33  C         -5.3450   14.1750   11.0810 C.2   174  GLN174      0.2287
     34  O         -6.4750   14.6660   10.9790 O.2   174  GLN174     -0.2864
     35  CB        -5.6930   11.9810   12.3200 C.3   174  GLN174      0.0394
     36  CG        -5.2300   10.9520   11.2640 C.3   174  GLN174      0.0908
     37  CD        -5.3860   11.3230    9.8020 C.2   174  GLN174      0.2608
     38  OE1       -6.4520   11.7390    9.3320 O.2   174  GLN174     -0.2717
     39  NE2       -4.3230   11.1590    9.0300 N.am  174  GLN174     -0.0878
     40  N         -1.0880   16.9050   10.4760 N.3   177  SER177     -0.1217
     41  CA         0.3190   16.5650   10.3640 C.3   177  SER177      0.1889
     42  C          1.1600   17.3600    9.3460 C.2   177  SER177      0.2288
     43  O          0.7330   17.5050    8.2180 O.2   177  SER177     -0.2866
     44  CB         0.4030   15.0710   10.0000 C.3   177  SER177      0.2089
     45  OG         0.0990   14.3530   11.1600 O.3   177  SER177     -0.2183
     46  N          3.2750   20.3750   13.0890 N.3   191  VAL191     -0.1231
     47  CA         2.4030   19.3740   13.7170 C.3   191  VAL191      0.1692
     48  C          3.0020   18.0160   13.5580 C.2   191  VAL191      0.2593
     49  O          3.2370   17.5540   12.4180 O.2   191  VAL191     -0.2718
     50  CB         0.9990   19.4470   13.0630 C.3   191  VAL191      0.0266
     51  CG1        0.0910   18.3750   13.7390 C.3   191  VAL191      0.0020
     52  CG2        0.3580   20.8040   13.1300 C.3   191  VAL191      0.0020
     53  N          3.3090   17.3130   14.6880 N.am  192  SER192     -0.1938
     54  CA         4.0750   16.0490   14.6090 C.3   192  SER192      0.2055
     55  C          3.3230   14.9010   15.2030 C.2   192  SER192      0.2643
     56  O          2.9730   13.9710   14.4100 O.2   192  SER192     -0.2714
     57  CB         5.4570   16.2470   15.3140 C.3   192  SER192      0.2130
     58  OG         6.2660   15.0860   15.1950 O.3   192  SER192     -0.2179
     59  N          2.9680   14.8790   16.5050 N.am  193  TRP193     -0.1959
     60  CA         2.3040   13.6460   17.0330 C.3   193  TRP193      0.1771
     61  C          1.6390   13.9500   18.3280 C.2   193  TRP193      0.2620
     62  O          1.7340   15.0730   18.8830 O.2   193  TRP193     -0.2715
     63  CB         3.3410   12.4810   17.1860 C.3   193  TRP193      0.0590
     64  CG         4.4650   12.7500   18.1860 C.ar  193  TRP193      0.0006
     65  CD1        5.6600   13.4080   17.9660 C.ar  193  TRP193      0.0946
     66  CD2        4.4970   12.3110   19.5730 C.ar  193  TRP193      0.0152
     67  NE1        6.4580   13.3960   19.1380 N.ar  193  TRP193     -0.2442
     68  CE2        5.7500   12.7740   20.1240 C.ar  193  TRP193      0.0810
     69  CE3        3.5870   11.6060   20.4140 C.ar  193  TRP193      0.0012
     70  CZ2        6.1360   12.4850   21.4430 C.ar  193  TRP193      0.0191
     71  CZ3        4.0000   11.3570   21.7390 C.ar  193  TRP193      0.0001
     72  CH2        5.2140   11.7740   22.2230 C.ar  193  TRP193      0.0015
     73  N          0.8210   13.0070   18.8030 N.am  194  GLY194     -0.1954
     74  CA         0.1580   13.0830   20.1240 C.3   194  GLY194      0.1869
     75  C         -0.4990   11.7740   20.4010 C.2   194  GLY194      0.2309
     76  O         -0.7160   11.0070   19.4900 O.2   194  GLY194     -0.2863
     77  N         -3.7830   10.2340   20.7910 N.3   196  GLY196     -0.1210
     78  CA        -5.1320   10.7400   20.4810 C.3   196  GLY196      0.1956
     79  C         -5.1230   12.2550   20.2540 C.2   196  GLY196      0.2612
     80  O         -4.0830   12.8160   19.9310 O.2   196  GLY196     -0.2717
     81  N         -6.2480   12.8510   20.3980 N.am  197  CYS197     -0.1970
     82  CA        -6.4140   14.3350   20.1490 C.3   197  CYS197      0.1712
     83  C         -7.2590   14.8950   21.1890 C.2   197  CYS197      0.2296
     84  O         -8.3740   14.3510   21.4900 O.2   197  CYS197     -0.2864
     85  CB        -7.1730   14.5930   18.7870 C.3   197  CYS197      0.0983
     86  SG        -6.3250   13.7010   17.4610 S.3   197  CYS197     -0.0798
     87  N         -1.2470   16.7390   25.4480 N.3   203  PRO203     -0.2102
     88  CA        -1.2570   17.8590   24.4530 C.3   203  PRO203      0.1504
     89  C         -0.5380   17.4320   23.1840 C.2   203  PRO203      0.2576
     90  O          0.1870   16.4740   23.1640 O.2   203  PRO203     -0.2718
     91  CB        -0.4720   18.9770   25.2200 C.3   203  PRO203      0.0282
     92  CG         0.4620   18.2260   26.1300 C.3   203  PRO203      0.0208
     93  CD        -0.3370   17.0000   26.5860 C.3   203  PRO203      0.0893
     94  N         -0.7040   18.2360   22.1440 N.am  204  GLY204     -0.1943
     95  CA         0.0380   17.9990   20.9090 C.3   204  GLY204      0.2014
     96  C          1.5040   18.2180   21.0970 C.2   204  GLY204      0.2638
     97  O          1.9720   19.0770   21.8620 O.2   204  GLY204     -0.2714
     98  N          2.2650   17.4480   20.2930 N.am  205  VAL205     -0.1977
     99  CA         3.7430   17.5100   20.2440 C.3   205  VAL205      0.1596
    100  C          4.1800   17.9690   18.8520 C.2   205  VAL205      0.2287
    101  O          3.5740   17.5180   17.8150 O.2   205  VAL205     -0.2864
    102  CB         4.4340   16.1630   20.6200 C.3   205  VAL205      0.0276
    103  CG1        5.9210   16.3700   20.7970 C.3   205  VAL205      0.0022
    104  CG2        3.7960   15.6170   21.9120 C.3   205  VAL205      0.0022
@<TRIPOS>BOND
     1     4     3    2
     2     3     2    1
     3    43    42    2
     4     2     1    1
     5     2     5    1
     6    39    37   am
     7    38    37    2
     8    42    41    1
     9    37    36    1
    10    44    41    1
    11    44    45    1
    12     5     6    1
    13     8     6   ar
    14     8    10   ar
    15    41    40    1
    16     6     7   ar
    17    10     9   ar
    18    34    33    2
    19    33    32    1
    20    36    35    1
    21     7     9   ar
    22    32    35    1
    23    32    31    1
    24    49    48    2
    25    28    27    2
    26    50    52    1
    27    50    47    1
    28    50    51    1
    29    46    47    1
    30    31    27   am
    31    48    47    1
    32    48    53   am
    33    27    26    1
    34    56    55    2
    35    54    53    1
    36    54    55    1
    37    54    57    1
    38    26    25    1
    39    26    29    1
    40    58    57    1
    41    55    59   am
    42    25    21   am
    43    29    30    1
    44    30    86    1
    45    23    20    1
    46    23    24    1
    47    21    20    1
    48    21    22    2
    49    20    19    1
    50    59    60    1
    51    60    63    1
    52    60    61    1
    53    63    64    1
    54    86    85    1
    55    14    13    2
    56   101   100    2
    57    19    13   am
    58    65    64   ar
    59    65    67   ar
    60    64    66   ar
    61    61    73   am
    62    61    62    2
    63    13    12    1
    64    85    82    1
    65    73    74    1
    66   100    99    1
    67    67    68   ar
    68    76    75    2
    69    66    68   ar
    70    66    69   ar
    71    12    11    1
    72    12    15    1
    73    80    79    2
    74    68    70   ar
    75    74    75    1
    76    82    81    1
    77    82    83    1
    78    17    16   ar
    79    99    98    1
    80    99   102    1
    81    79    81   am
    82    79    78    1
    83    98    96   am
    84    69    71   ar
    85    78    77    1
    86    15    16    1
    87   102   103    1
    88   102   104    1
    89    16    18   ar
    90    95    96    1
    91    95    94    1
    92    96    97    2
    93    83    84    2
    94    70    72   ar
    95    71    72   ar
    96    94    89   am
    97    90    89    2
    98    89    88    1
    99    88    91    1
   100    88    87    1
   101    91    92    1
   102    87    93    1
   103    92    93    1
