@<TRIPOS>MOLECULE
tmp/4abgA00.pdb
 106 103 0 0 0
SMALL
GASTEIGER

@<TRIPOS>ATOM
      1  N        -29.3600   -3.7000    8.8330 N.3    40  HIS40      -0.1241
      2  CA       -29.8560   -2.3770    9.1130 C.3    40  HIS40       0.1621
      3  C        -29.4300   -1.3920    8.0170 C.2    40  HIS40       0.2264
      4  O        -29.9090   -0.2430    8.0070 O.2    40  HIS40      -0.2867
      5  CB       -29.5230   -1.9630   10.5160 C.3    40  HIS40       0.0745
      6  CG       -28.1530   -1.4120   10.7500 C.ar   40  HIS40       0.0817
      7  ND1      -27.8120   -0.0670   10.4980 N.ar   40  HIS40      -0.2268
      8  CD2      -27.0650   -1.9940   11.2540 C.ar   40  HIS40       0.1154
      9  CE1      -26.4880    0.1050   10.8850 C.ar   40  HIS40       0.1986
     10  NE2      -26.0590   -1.0830   11.3100 N.ar   40  HIS40      -0.2212
     11  N        -12.5720    2.9280   18.0790 N.3   171  ASP171     -0.1225
     12  CA       -13.8700    2.2220   17.8860 C.3   171  ASP171      0.1805
     13  C        -14.3480    2.4520   16.4320 C.2   171  ASP171      0.2598
     14  O        -13.8600    3.3530   15.7350 O.2   171  ASP171     -0.2718
     15  CB       -14.8950    2.8350   18.8160 C.3   171  ASP171      0.1424
     16  CG       -16.1790    1.9870   19.0590 C.2   171  ASP171      0.3668
     17  OD1      -16.2870    0.8490   18.5060 O.co2 171  ASP171     -0.2456
     18  OD2      -16.9970    2.4360   19.9410 O.co2 171  ASP171     -0.2456
     19  N        -15.3240    1.6600   16.0110 N.am  172  SER172     -0.1938
     20  CA       -16.0780    2.0020   14.7830 C.3   172  SER172      0.2055
     21  C        -17.0940    3.0580   15.1000 C.2   172  SER172      0.2643
     22  O        -17.4080    3.3740   16.2840 O.2   172  SER172     -0.2714
     23  CB       -16.7130    0.7110   14.2540 C.3   172  SER172      0.2130
     24  OG       -17.6240    0.1440   15.1990 O.3   172  SER172     -0.2179
     25  N        -17.7030    3.6420   14.0730 N.am  173  CYS173     -0.1953
     26  CA       -18.6920    4.6670   14.3490 C.3   173  CYS173      0.1843
     27  C        -19.7170    4.8010   13.1490 C.2   173  CYS173      0.2625
     28  O        -19.6980    3.9530   12.2420 O.2   173  CYS173     -0.2714
     29  CB       -17.9700    6.0300   14.6170 C.3   173  CYS173      0.0997
     30  SG       -18.9860    7.2300   15.5170 S.3   173  CYS173     -0.0797
     31  N        -20.6150    5.7810   13.2180 N.am  174  GLN174     -0.1977
     32  CA       -21.6710    5.9280   12.2320 C.3   174  GLN174      0.1601
     33  C        -21.0420    6.0220   10.8360 C.2   174  GLN174      0.2287
     34  O        -20.0640    6.7590   10.6090 O.2   174  GLN174     -0.2864
     35  CB       -22.3380    7.2610   12.5000 C.3   174  GLN174      0.0394
     36  CG       -23.6520    7.5100   11.8490 C.3   174  GLN174      0.0908
     37  CD       -23.6190    7.6170   10.3460 C.2   174  GLN174      0.2608
     38  OE1      -22.8490    8.4030    9.7830 O.2   174  GLN174     -0.2717
     39  NE2      -24.4930    6.8150    9.6630 N.am  174  GLN174     -0.0878
     40  N        -21.0410    1.1700    9.5630 N.3   177  SER177     -0.1217
     41  CA       -21.9810    0.0300    9.6550 C.3   177  SER177      0.1889
     42  C        -21.9400   -0.7960    8.3970 C.2   177  SER177      0.2288
     43  O        -21.9010   -0.2630    7.2610 O.2   177  SER177     -0.2866
     44  CB       -23.3720    0.4870    9.8480 C.3   177  SER177      0.2089
     45  OG       -23.4610    0.8560   11.2550 O.3   177  SER177     -0.2183
     46  N        -19.8220   -4.5680   11.0970 N.3   191  VAL191     -0.1231
     47  CA       -20.0400   -3.4440   11.9950 C.3   191  VAL191      0.1692
     48  C        -21.5580   -3.2560   12.1700 C.2   191  VAL191      0.2593
     49  O        -22.2520   -3.0860   11.1800 O.2   191  VAL191     -0.2718
     50  CB       -19.3750   -2.1720   11.4290 C.3   191  VAL191      0.0266
     51  CG1      -19.6370   -0.9500   12.3430 C.3   191  VAL191      0.0020
     52  CG2      -17.8510   -2.2770   11.1620 C.3   191  VAL191      0.0020
     53  N        -21.9880   -3.3450   13.4420 N.am  192  SER192     -0.1938
     54  CA       -23.4280   -3.3580   13.6540 C.3   192  SER192      0.2055
     55  C        -23.9620   -2.2280   14.4910 C.2   192  SER192      0.2643
     56  O        -24.7520   -1.3930   13.9890 O.2   192  SER192     -0.2714
     57  CB       -23.7950   -4.7290   14.2520 C.3   192  SER192      0.2130
     58  OG       -25.2530   -4.8580   14.4150 O.3   192  SER192     -0.2179
     59  N        -23.5200   -2.1450   15.7580 N.am  193  TRP193     -0.1959
     60  CA       -24.0990   -1.0050   16.5540 C.3   193  TRP193      0.1771
     61  C        -23.2280   -0.7460   17.7660 C.2   193  TRP193      0.2620
     62  O        -22.1860   -1.4320   17.9990 O.2   193  TRP193     -0.2715
     63  CB       -25.5370   -1.3370   16.9960 C.3   193  TRP193      0.0590
     64  CG       -25.7210   -2.5600   17.8700 C.ar  193  TRP193      0.0006
     65  CD1      -25.8320   -3.8700   17.4240 C.ar  193  TRP193      0.0946
     66  CD2      -25.8070   -2.6060   19.3410 C.ar  193  TRP193      0.0152
     67  NE1      -25.9710   -4.7430   18.4810 N.ar  193  TRP193     -0.2442
     68  CE2      -25.9790   -4.0040   19.6870 C.ar  193  TRP193      0.0810
     69  CE3      -25.7850   -1.6450   20.3470 C.ar  193  TRP193      0.0012
     70  CZ2      -26.1280   -4.4050   21.0280 C.ar  193  TRP193      0.0191
     71  CZ3      -25.8800   -2.0470   21.6880 C.ar  193  TRP193      0.0001
     72  CH2      -26.0800   -3.4230   21.9810 C.ar  193  TRP193      0.0015
     73  N        -23.6140    0.2630   18.5350 N.am  194  GLY194     -0.1954
     74  CA       -22.9690    0.4600   19.8710 C.3   194  GLY194      0.1869
     75  C        -23.6780    1.6250   20.5330 C.2   194  GLY194      0.2309
     76  O        -24.5470    2.2930   19.9670 O.2   194  GLY194     -0.2863
     77  N        -22.9690    5.3170   21.2970 N.3   196  GLY196     -0.1210
     78  CA       -21.9460    6.2170   20.8320 C.3   196  GLY196      0.1956
     79  C        -20.7160    5.5430   20.2080 C.2   196  GLY196      0.2612
     80  O        -20.8090    4.3970   19.7040 O.2   196  GLY196     -0.2717
     81  N        -19.6040    6.2360   20.2370 N.am  197  CYS197     -0.1970
     82  CA       -18.3670    5.7340   19.6180 C.3   197  CYS197      0.1712
     83  C        -17.2050    6.0450   20.5390 C.2   197  CYS197      0.2296
     84  O        -17.0250    7.1800   20.9540 O.2   197  CYS197     -0.2864
     85  CB       -18.1200    6.3780   18.2530 C.3   197  CYS197      0.0983
     86  SG       -19.5650    6.1680   17.1960 S.3   197  CYS197     -0.0798
     87  N        -17.9440    1.0700   26.4440 N.3   202  LYS202     -0.1245
     88  CA       -18.9870    0.9240   25.3700 C.3   202  LYS202      0.1561
     89  C        -18.3120    0.5470   24.0510 C.2   202  LYS202      0.2260
     90  O        -18.2160    1.3730   23.1340 O.2   202  LYS202     -0.2867
     91  CB       -19.8350    2.1920   25.1940 C.3   202  LYS202      0.0271
     92  CG       -20.6900    2.5330   26.4510 C.3   202  LYS202      0.0035
     93  CD       -21.7980    1.4930   26.7620 C.3   202  LYS202      0.0206
     94  CE       -22.6520    1.8720   27.9860 C.3   202  LYS202      0.1093
     95  NZ       -22.6110    0.8030   29.0030 N.3   202  LYS202     -0.1314
     96  N        -17.5920   -1.3520   20.4150 N.3   204  GLY204     -0.1210
     97  CA       -18.4690   -1.6630   19.2630 C.3   204  GLY204      0.1956
     98  C        -19.0450   -3.0840   19.3560 C.2   204  GLY204      0.2611
     99  O        -18.4110   -4.0010   19.8550 O.2   204  GLY204     -0.2717
    100  N        -20.2550   -3.2480   18.7890 N.am  205  VAL205     -0.1979
    101  CA       -20.9540   -4.5340   18.7030 C.3   205  VAL205      0.1595
    102  C        -21.0210   -4.9100   17.2230 C.2   205  VAL205      0.2287
    103  O        -21.2890   -4.0650   16.3160 O.2   205  VAL205     -0.2864
    104  CB       -22.3760   -4.4730   19.3270 C.3   205  VAL205      0.0276
    105  CG1      -22.9550   -5.9090   19.3920 C.3   205  VAL205      0.0022
    106  CG2      -22.3260   -3.8740   20.7610 C.3   205  VAL205      0.0022
@<TRIPOS>BOND
     1    43    42    2
     2     4     3    2
     3     3     2    1
     4    42    41    1
     5     1     2    1
     6     2     5    1
     7    40    41    1
     8    41    44    1
     9    39    37   am
    10    38    37    2
    11    44    45    1
    12    37    36    1
    13     7     6   ar
    14     7     9   ar
    15     5     6    1
    16    34    33    2
    17     6     8   ar
    18    33    32    1
    19     9    10   ar
    20    46    47    1
    21    52    50    1
    22    49    48    2
    23     8    10   ar
    24    50    47    1
    25    50    51    1
    26    36    35    1
    27    47    48    1
    28    48    53   am
    29    32    35    1
    30    32    31    1
    31    28    27    2
    32    27    31   am
    33    27    26    1
    34    53    54    1
    35    54    57    1
    36    54    55    1
    37    56    55    2
    38    25    26    1
    39    25    21   am
    40    57    58    1
    41    23    20    1
    42    23    24    1
    43    26    29    1
    44    55    59   am
    45    29    30    1
    46    20    21    1
    47    20    19    1
    48    21    22    2
    49    30    86    1
    50    14    13    2
    51    59    60    1
    52    19    13   am
    53   103   102    2
    54    13    12    1
    55    60    63    1
    56    60    61    1
    57    63    64    1
    58    86    85    1
    59   102   101    1
    60    65    64   ar
    61    65    67   ar
    62    61    62    2
    63    61    73   am
    64    64    66   ar
    65    12    11    1
    66    12    15    1
    67    85    82    1
    68    67    68   ar
    69    17    16   ar
    70    73    74    1
    71   101   100    1
    72   101   104    1
    73   100    98   am
    74    15    16    1
    75    16    18   ar
    76    97    98    1
    77    97    96    1
    78   104   105    1
    79   104   106    1
    80    66    68   ar
    81    66    69   ar
    82    98    99    2
    83    82    81    1
    84    82    83    1
    85    68    70   ar
    86    80    79    2
    87    74    75    1
    88    76    75    2
    89    79    81   am
    90    79    78    1
    91    69    71   ar
    92    83    84    2
    93    78    77    1
    94    70    72   ar
    95    71    72   ar
    96    90    89    2
    97    89    88    1
    98    91    88    1
    99    91    92    1
   100    88    87    1
   101    92    93    1
   102    93    94    1
   103    94    95    1
