@<TRIPOS>MOLECULE
tmp/4abkA00.pdb
 179 171 0 0 0
SMALL
GASTEIGER

@<TRIPOS>ATOM
      1  N         -2.8910    9.3180  -21.4190 N.3    28  GLY28      -0.1210
      2  CA        -3.7820   10.2440  -20.7440 C.3    28  GLY28       0.1956
      3  C         -3.1520   11.5280  -20.2330 C.2    28  GLY28       0.2612
      4  O         -2.0520   11.9380  -20.6460 O.2    28  GLY28      -0.2717
      5  N         -3.8840   12.1520  -19.3230 N.am   29  ASP29      -0.1959
      6  CA        -3.5360   13.4180  -18.6890 C.3    29  ASP29       0.1840
      7  C         -3.0700   13.0950  -17.2800 C.2    29  ASP29       0.2621
      8  O         -3.8140   12.5670  -16.4780 O.2    29  ASP29      -0.2715
      9  CB        -4.7840   14.3010  -18.6670 C.3    29  ASP29       0.1450
     10  CG        -4.6140   15.6080  -17.9090 C.2    29  ASP29       0.3671
     11  OD1       -3.5380   15.9210  -17.3670 O.co2  29  ASP29      -0.2456
     12  OD2       -5.6280   16.3520  -17.8670 O.co2  29  ASP29      -0.2456
     13  N         -1.8170   13.4040  -16.9910 N.am   30  ILE30      -0.1977
     14  CA        -1.2470   13.0560  -15.6980 C.3    30  ILE30       0.1596
     15  C         -1.9950   13.6800  -14.5190 C.2    30  ILE30       0.2287
     16  O         -1.9730   13.1390  -13.4070 O.2    30  ILE30      -0.2864
     17  CB         0.2690   13.3930  -15.6810 C.3    30  ILE30       0.0276
     18  CG1        0.9700   12.6930  -14.5440 C.3    30  ILE30       0.0022
     19  CG2        0.4980   14.8810  -15.6330 C.3    30  ILE30       0.0022
     20  CD1        2.4940   12.7420  -14.6520 C.3    30  ILE30       0.0001
     21  N          7.7920   17.9510  -15.2400 N.3    41  SER41      -0.1202
     22  CA         8.9490   18.1260  -16.0980 C.3    41  SER41       0.2020
     23  C          8.9250   19.5910  -16.4950 C.2    41  SER41       0.2619
     24  O          7.9640   20.0790  -17.1420 O.2    41  SER41      -0.2717
     25  CB         8.8820   17.2580  -17.3570 C.3    41  SER41       0.2103
     26  OG        10.0950   17.3680  -18.0800 O.3    41  SER41      -0.2182
     27  N          9.9200   20.3150  -16.0140 N.am   42  THR42      -0.1938
     28  CA         9.9220   21.7770  -16.0760 C.3    42  THR42       0.2028
     29  C         11.2840   22.3380  -16.5340 C.2    42  THR42       0.2643
     30  O         12.1850   21.6010  -16.9540 O.2    42  THR42      -0.2714
     31  CB         9.4540   22.3670  -14.7140 C.3    42  THR42       0.1808
     32  OG1        9.2720   23.7790  -14.8240 O.3    42  THR42      -0.2208
     33  CG2       10.4190   22.0860  -13.5730 C.3    42  THR42       0.0379
     34  N         11.4060   23.6600  -16.5080 N.am   43  SER43      -0.1935
     35  CA        12.6380   24.3240  -16.8980 C.3    43  SER43       0.2055
     36  C         13.5150   24.5330  -15.6690 C.2    43  SER43       0.2643
     37  O         13.0970   24.2850  -14.5260 O.2    43  SER43      -0.2714
     38  CB        12.3130   25.6610  -17.5580 C.3    43  SER43       0.2130
     39  OG        11.6050   26.4850  -16.6620 O.3    43  SER43      -0.2179
     40  N         14.7290   25.0220  -15.9190 N.am   44  ASN44      -0.1971
     41  CA        15.7300   25.2560  -14.8660 C.3    44  ASN44       0.1688
     42  C         15.2980   26.2840  -13.8090 C.2    44  ASN44       0.2292
     43  O         15.8730   26.3500  -12.7160 O.2    44  ASN44      -0.2864
     44  CB        17.0500   25.7170  -15.5100 C.3    44  ASN44       0.1181
     45  CG        17.8120   24.5960  -16.1540 C.2    44  ASN44       0.2629
     46  OD1       17.6840   24.3320  -17.3540 O.2    44  ASN44      -0.2716
     47  ND2       18.5970   23.8980  -15.3510 N.am   44  ASN44      -0.0877
     48  N          8.2190   27.1120  -15.4310 N.3    48  LEU48      -0.1245
     49  CA         7.6150   26.8430  -16.7300 C.3    48  LEU48       0.1561
     50  C          6.1260   26.5640  -16.5620 C.2    48  LEU48       0.2260
     51  O          5.7180   25.9330  -15.5840 O.2    48  LEU48      -0.2867
     52  CB         8.3130   25.6700  -17.4160 C.3    48  LEU48       0.0270
     53  CG         8.0330   25.4380  -18.8960 C.3    48  LEU48       0.0019
     54  CD1        8.6560   26.5370  -19.7300 C.3    48  LEU48       0.0001
     55  CD2        8.5480   24.0330  -19.2940 C.3    48  LEU48       0.0001
     56  N          4.0040   25.5950  -19.5490 N.3    50  ALA50      -0.1231
     57  CA         3.7080   25.2080  -20.9110 C.3    50  ALA50       0.1694
     58  C          3.8080   23.6830  -20.9800 C.2    50  ALA50       0.2593
     59  O          4.7000   23.1040  -20.3380 O.2    50  ALA50      -0.2718
     60  CB         4.7070   25.8400  -21.8500 C.3    50  ALA50       0.0304
     61  N          2.9300   23.0380  -21.7330 N.am   51  GLY51      -0.1942
     62  CA         2.9560   21.5780  -21.8460 C.3    51  GLY51       0.2014
     63  C          2.5310   20.9790  -20.5230 C.2    51  GLY51       0.2639
     64  O          1.6140   21.4810  -19.8900 O.2    51  GLY51      -0.2714
     65  N          3.2040   19.9220  -20.0970 N.am   52  VAL52      -0.1963
     66  CA         2.7580   19.2230  -18.8920 C.3    52  VAL52       0.1727
     67  C          2.8890   20.0940  -17.6500 C.2    52  VAL52       0.2616
     68  O          2.0730   19.9810  -16.7190 O.2    52  VAL52      -0.2715
     69  CB         3.4420   17.8500  -18.6980 C.3    52  VAL52       0.0290
     70  CG1        4.9220   17.9960  -18.2930 C.3    52  VAL52       0.0023
     71  CG2        2.6780   17.0280  -17.6280 C.3    52  VAL52       0.0023
     72  N          3.8850   20.9790  -17.6200 N.am   53  SER53      -0.1950
     73  CA         4.0610   21.8650  -16.4700 C.3    53  SER53       0.1924
     74  C          2.8600   22.8150  -16.2960 C.2    53  SER53       0.2314
     75  O          2.4980   23.1260  -15.1890 O.2    53  SER53      -0.2863
     76  CB         5.3620   22.6610  -16.5150 C.3    53  SER53       0.2116
     77  OG         5.4460   23.4360  -17.7150 O.3    53  SER53      -0.2180
     78  N         -0.2900   22.0420  -17.2140 N.3    55  ALA55      -0.1245
     79  CA        -1.3840   21.1910  -16.7020 C.3    55  ALA55       0.1562
     80  C         -1.1840   20.9640  -15.2080 C.2    55  ALA55       0.2260
     81  O         -2.1140   21.0910  -14.4090 O.2    55  ALA55      -0.2867
     82  CB        -1.4320   19.8670  -17.4270 C.3    55  ALA55       0.0290
     83  N         13.9980   18.7210  -14.2470 N.3    96  ILE96      -0.1231
     84  CA        14.2560   19.5810  -15.4090 C.3    96  ILE96       0.1692
     85  C         14.2230   18.7520  -16.6840 C.2    96  ILE96       0.2593
     86  O         14.9750   17.8070  -16.8460 O.2    96  ILE96      -0.2718
     87  CB        15.5910   20.3450  -15.2420 C.3    96  ILE96       0.0266
     88  CG1       15.5150   21.2520  -14.0070 C.3    96  ILE96       0.0019
     89  CG2       15.9250   21.1410  -16.5170 C.3    96  ILE96       0.0020
     90  CD1       16.8260   21.7620  -13.5040 C.3    96  ILE96       0.0001
     91  N         13.3410   19.1150  -17.6050 N.am   97  GLY97      -0.1942
     92  CA        13.1470   18.3730  -18.8370 C.3    97  GLY97       0.2014
     93  C         14.3380   18.2070  -19.7580 C.2    97  GLY97       0.2639
     94  O         14.4170   17.2250  -20.4760 O.2    97  GLY97      -0.2714
     95  N         15.2390   19.1880  -19.7480 N.am   98  GLY98      -0.1954
     96  CA        16.4750   19.1070  -20.4900 C.3    98  GLY98       0.1869
     97  C         17.5910   18.3160  -19.8430 C.2    98  GLY98       0.2309
     98  O         18.6030   18.0680  -20.4920 O.2    98  GLY98      -0.2863
     99  N          5.4400   11.9760  -16.3000 N.3   123  PRO123     -0.2102
    100  CA         5.2750   12.1070  -17.7450 C.3   123  PRO123      0.1504
    101  C          6.4820   11.6160  -18.4870 C.2   123  PRO123      0.2575
    102  O          7.4660   11.2070  -17.8830 O.2   123  PRO123     -0.2718
    103  CB         5.1110   13.6070  -17.9210 C.3   123  PRO123      0.0282
    104  CG         6.0180   14.1810  -16.8950 C.3   123  PRO123      0.0208
    105  CD         5.9860   13.2110  -15.7030 C.3   123  PRO123      0.0893
    106  N          6.4140   11.6520  -19.8260 N.am  124  ALA124     -0.1980
    107  CA         7.5400   11.3160  -20.6570 C.3   124  ALA124      0.1597
    108  C          8.5010   12.5150  -20.6770 C.2   124  ALA124      0.2287
    109  O          8.5140   13.2880  -21.6040 O.2   124  ALA124     -0.2864
    110  CB         7.0550   10.9080  -22.0840 C.3   124  ALA124      0.0319
    111  N         10.9920   15.2870  -20.9730 N.3   126  GLY126     -0.1210
    112  CA        11.8560   15.7520  -22.0540 C.3   126  GLY126      0.1956
    113  C         11.3920   15.5910  -23.4710 C.2   126  GLY126      0.2613
    114  O         12.0880   16.0770  -24.3860 O.2   126  GLY126     -0.2717
    115  N         10.2280   14.9730  -23.6880 N.am  127  THR127     -0.1938
    116  CA         9.7810   14.6120  -25.0460 C.3   127  THR127      0.2028
    117  C          8.9060   15.6470  -25.7600 C.2   127  THR127      0.2643
    118  O          8.4070   15.3980  -26.8680 O.2   127  THR127     -0.2714
    119  CB         9.0370   13.2680  -25.0480 C.3   127  THR127      0.1808
    120  OG1        7.8710   13.3540  -24.2100 O.3   127  THR127     -0.2208
    121  CG2        9.9520   12.1200  -24.6580 C.3   127  THR127      0.0379
    122  N          8.7650   16.8120  -25.1650 N.am  128  GLY128     -0.1939
    123  CA         8.0050   17.9030  -25.7480 C.3   128  GLY128      0.2014
    124  C          8.9810   18.9710  -26.1530 C.2   128  GLY128      0.2639
    125  O          9.8570   18.7500  -27.0410 O.2   128  GLY128     -0.2714
    126  N          8.8730   20.1070  -25.4930 N.am  129  ASN129     -0.1958
    127  CA         9.6850   21.2660  -25.8460 C.3   129  ASN129      0.1819
    128  C         11.1730   21.0130  -25.6580 C.2   129  ASN129      0.2621
    129  O         12.0020   21.6330  -26.3680 O.2   129  ASN129     -0.2715
    130  CB         9.2760   22.5040  -25.0520 C.3   129  ASN129      0.1195
    131  CG         9.9680   23.7640  -25.5670 C.2   129  ASN129      0.2630
    132  OD1       10.8750   24.2940  -24.9260 O.2   129  ASN129     -0.2716
    133  ND2        9.5800   24.2080  -26.7690 N.am  129  ASN129     -0.0877
    134  N         11.5330   20.1050  -24.7430 N.am  130  ALA130     -0.1977
    135  CA        12.9590   19.7570  -24.5450 C.3   130  ALA130      0.1597
    136  C         13.5360   19.0420  -25.7530 C.2   130  ALA130      0.2287
    137  O         14.7410   19.0320  -25.9240 O.2   130  ALA130     -0.2864
    138  CB        13.1530   18.9240  -23.2960 C.3   130  ALA130      0.0319
    139  N          2.6070    8.3430  -17.6780 N.3   163  VAL163     -0.1231
    140  CA         1.4050    8.7410  -18.4070 C.3   163  VAL163      0.1692
    141  C          1.8440    9.5420  -19.6140 C.2   163  VAL163      0.2592
    142  O          2.5580   10.5300  -19.4770 O.2   163  VAL163     -0.2718
    143  CB         0.4350    9.5130  -17.4820 C.3   163  VAL163      0.0266
    144  CG1       -0.7710   10.0780  -18.2750 C.3   163  VAL163      0.0020
    145  CG2       -0.0260    8.5870  -16.3950 C.3   163  VAL163      0.0020
    146  N          1.3670    9.1200  -20.7800 N.am  164  ILE164     -0.1966
    147  CA         1.8630    9.5810  -22.0670 C.3   164  ILE164      0.1727
    148  C          0.7150   10.2500  -22.8330 C.2   164  ILE164      0.2616
    149  O         -0.4270    9.7960  -22.8310 O.2   164  ILE164     -0.2715
    150  CB         2.4080    8.3870  -22.7950 C.3   164  ILE164      0.0290
    151  CG1        3.6250    7.8620  -22.0080 C.3   164  ILE164      0.0022
    152  CG2        2.7470    8.7120  -24.2630 C.3   164  ILE164      0.0023
    153  CD1        4.1340    6.5870  -22.4160 C.3   164  ILE164      0.0001
    154  N          1.0510   11.3210  -23.5150 N.am  165  PHE165     -0.1960
    155  CA         0.0500   12.2040  -24.0460 C.3   165  PHE165      0.1771
    156  C         -0.3720   11.8640  -25.4650 C.2   165  PHE165      0.2619
    157  O         -1.5310   12.0910  -25.7950 O.2   165  PHE165     -0.2715
    158  CB         0.5670   13.6350  -23.9270 C.3   165  PHE165      0.0574
    159  CG        -0.5080   14.6550  -23.7900 C.ar  165  PHE165     -0.0200
    160  CD1       -1.4170   14.5820  -22.7450 C.ar  165  PHE165     -0.0042
    161  CD2       -0.5940   15.7050  -24.6890 C.ar  165  PHE165     -0.0042
    162  CE1       -2.4090   15.5360  -22.6130 C.ar  165  PHE165     -0.0003
    163  CE2       -1.5890   16.6450  -24.5670 C.ar  165  PHE165     -0.0003
    164  CZ        -2.4820   16.5690  -23.5310 C.ar  165  PHE165     -0.0000
    165  N          0.5220   11.2930  -26.2900 N.am  166  LEU166     -0.1977
    166  CA         0.1750   10.8920  -27.6680 C.3   166  LEU166      0.1596
    167  C          0.5720    9.4610  -28.0300 C.2   166  LEU166      0.2287
    168  O          1.5870    8.9590  -27.5240 O.2   166  LEU166     -0.2864
    169  CB         0.8740   11.8300  -28.6610 C.3   166  LEU166      0.0297
    170  CG         0.3480   13.2630  -28.7280 C.3   166  LEU166      0.0022
    171  CD1        1.2440   14.0650  -29.6420 C.3   166  LEU166      0.0001
    172  CD2       -1.0660   13.3230  -29.2450 C.3   166  LEU166      0.0001
    173  N          4.1850    8.5380  -28.8090 N.3   169  VAL169     -0.1245
    174  CA         5.1260    8.3360  -27.7190 C.3   169  VAL169      0.1561
    175  C          4.8080    7.0190  -26.9930 C.2   169  VAL169      0.2260
    176  O          5.7210    6.2880  -26.5790 O.2   169  VAL169     -0.2867
    177  CB         5.1840    9.5650  -26.7810 C.3   169  VAL169      0.0252
    178  CG1        6.1470    9.3130  -25.6090 C.3   169  VAL169      0.0019
    179  CG2        5.6390   10.7800  -27.5770 C.3   169  VAL169      0.0019
@<TRIPOS>BOND
     1   171   170    1
     2   172   170    1
     3   173   174    1
     4   170   169    1
     5   169   166    1
     6   167   166    1
     7   167   168    2
     8   174   175    1
     9   174   177    1
    10   166   165    1
    11   179   177    1
    12   125   124    2
    13   175   176    2
    14   118   117    2
    15   177   178    1
    16   133   131   am
    17   129   128    2
    18   165   156   am
    19   124   123    1
    20   124   126   am
    21   137   136    2
    22   127   128    1
    23   127   126    1
    24   127   130    1
    25   157   156    2
    26   117   122   am
    27   117   116    1
    28   136   135    1
    29   123   122    1
    30   128   134   am
    31   131   130    1
    32   131   132    2
    33   156   155    1
    34   119   116    1
    35   119   121    1
    36   119   120    1
    37   116   115    1
    38   134   135    1
    39   161   163   ar
    40   161   159   ar
    41   163   164   ar
    42   135   138    1
    43   114   113    2
    44   152   150    1
    45   155   158    1
    46   155   154    1
    47   158   159    1
    48   159   160   ar
    49   115   113   am
    50   164   162   ar
    51   154   148   am
    52   113   112    1
    53   148   149    2
    54   148   147    1
    55   150   147    1
    56   150   151    1
    57   160   162   ar
    58   153   151    1
    59   110   107    1
    60   147   146    1
    61   112   111    1
    62    60    57    1
    63    62    61    1
    64    62    63    1
    65    61    58   am
    66   109   108    2
    67     1     2    1
    68    58    57    1
    69    58    59    2
    70    57    56    1
    71   146   141   am
    72     2     3    1
    73   108   107    1
    74   107   106    1
    75     4     3    2
    76    63    65   am
    77    63    64    2
    78    98    97    2
    79    96    97    1
    80    96    95    1
    81    94    93    2
    82     3     5   am
    83    65    66    1
    84   106   101   am
    85    93    95   am
    86    93    92    1
    87    54    53    1
    88   141   142    2
    89   141   140    1
    90     5     6    1
    91    55    53    1
    92    53    52    1
    93    66    69    1
    94    66    67    1
    95    92    91    1
    96    69    70    1
    97    69    71    1
    98     6     9    1
    99     6     7    1
   100     9    10    1
   101   101   102    2
   102   101   100    1
   103   140   139    1
   104   140   143    1
   105   144   143    1
   106    26    25    1
   107   103   100    1
   108   103   104    1
   109    10    12   ar
   110    10    11   ar
   111   100    99    1
   112    77    76    1
   113    67    72   am
   114    67    68    2
   115    72    73    1
   116    91    85   am
   117    38    35    1
   118    38    39    1
   119   143   145    1
   120    82    79    1
   121    52    49    1
   122    25    22    1
   123    46    45    2
   124     7    13   am
   125     7     8    2
   126    78    79    1
   127    24    23    2
   128    13    14    1
   129    30    29    2
   130    35    34    1
   131    35    36    1
   132   104   105    1
   133    86    85    2
   134    49    50    1
   135    49    48    1
   136    79    80    1
   137    85    84    1
   138    50    51    2
   139    29    34   am
   140    29    28    1
   141    89    87    1
   142    76    73    1
   143    23    22    1
   144    23    27   am
   145    73    74    1
   146    99   105    1
   147    74    75    2
   148    45    44    1
   149    45    47   am
   150    22    21    1
   151    28    27    1
   152    28    31    1
   153    40    36   am
   154    40    41    1
   155    14    17    1
   156    14    15    1
   157    17    19    1
   158    17    18    1
   159    36    37    2
   160    44    41    1
   161    84    87    1
   162    84    83    1
   163    87    88    1
   164    80    81    2
   165    41    42    1
   166    32    31    1
   167    31    33    1
   168    20    18    1
   169    15    16    2
   170    88    90    1
   171    42    43    2
