@<TRIPOS>MOLECULE
tmp/4abqB00.pdb
 77 70 0 0 0
SMALL
GASTEIGER

@<TRIPOS>ATOM
      1  N         11.0230    3.5710   32.6040 N.3     4  MET4       -0.1245
      2  CA        10.4240    2.2460   32.7610 C.3     4  MET4        0.1570
      3  C         10.1330    1.7240   31.3390 C.2     4  MET4        0.2261
      4  O          9.8590    2.5270   30.4460 O.2     4  MET4       -0.2867
      5  CB         9.1100    2.3550   33.5740 C.3     4  MET4        0.0387
      6  CG         8.4860    1.0310   34.1350 C.3     4  MET4        0.0595
      7  SD         7.3920    0.2690   32.8460 S.3     4  MET4       -0.1393
      8  CE         5.7040    0.7190   33.4540 C.3     4  MET4        0.0692
      9  N          7.8480   -1.2590   29.2080 N.3     6  LYS6       -0.1245
     10  CA         6.7910   -2.2230   29.3690 C.3     6  LYS6        0.1561
     11  C          6.5980   -2.9010   27.9950 C.2     6  LYS6        0.2260
     12  O          6.5520   -2.1650   26.9810 O.2     6  LYS6       -0.2867
     13  CB         5.5170   -1.4970   29.7450 C.3     6  LYS6        0.0271
     14  CG         4.3350   -2.4040   30.0140 C.3     6  LYS6        0.0035
     15  CD         3.2960   -1.6490   30.9250 C.3     6  LYS6        0.0206
     16  CE         1.9290   -2.3070   30.7970 C.3     6  LYS6        0.1093
     17  NZ         2.0730   -3.7880   30.7630 N.3     6  LYS6       -0.1314
     18  N          4.3820   -5.9060   25.7120 N.3     8  LEU8       -0.1245
     19  CA         3.1890   -6.7740   25.6430 C.3     8  LEU8        0.1561
     20  C          3.3670   -7.6240   24.3830 C.2     8  LEU8        0.2260
     21  O          4.0140   -7.2220   23.3840 O.2     8  LEU8       -0.2867
     22  CB         1.9770   -5.8480   25.5200 C.3     8  LEU8        0.0270
     23  CG         1.5710   -4.9650   26.6760 C.3     8  LEU8        0.0019
     24  CD1        0.3000   -4.1470   26.1820 C.3     8  LEU8        0.0001
     25  CD2        1.3060   -5.8950   27.8720 C.3     8  LEU8        0.0001
     26  N          7.9710    6.2880   30.2310 N.3    97  THR97      -0.1218
     27  CA         7.6580    4.8850   29.9870 C.3    97  THR97       0.1862
     28  C          7.7260    4.6030   28.4930 C.2    97  THR97       0.2287
     29  O          7.1310    5.3530   27.6630 O.2    97  THR97      -0.2866
     30  CB         6.2600    4.5600   30.5250 C.3    97  THR97       0.1770
     31  OG1        6.2140    4.7700   31.9510 O.3    97  THR97      -0.2211
     32  CG2        5.8680    3.1290   30.2640 C.3    97  THR97       0.0375
     33  N          6.7980    1.8830   25.9710 N.3    99  ALA99      -0.1231
     34  CA         5.9950    0.7260   25.7540 C.3    99  ALA99       0.1694
     35  C          6.2600    0.1300   24.3790 C.2    99  ALA99       0.2592
     36  O          6.5880    0.8260   23.4360 O.2    99  ALA99      -0.2718
     37  CB         4.5560    1.0510   25.8760 C.3    99  ALA99       0.0304
     38  N          6.1800   -1.1990   24.2890 N.am  100  ALA100     -0.1966
     39  CA         6.2970   -1.8000   22.9510 C.3   100  ALA100      0.1728
     40  C          5.2680   -2.9310   22.9150 C.2   100  ALA100      0.2616
     41  O          5.0610   -3.6300   23.9300 O.2   100  ALA100     -0.2715
     42  CB         7.6850   -2.4280   22.8030 C.3   100  ALA100      0.0334
     43  N          4.6600   -3.0830   21.7690 N.am  101  LEU101     -0.1977
     44  CA         3.6880   -4.1780   21.5600 C.3   101  LEU101      0.1596
     45  C          4.2830   -5.0190   20.4500 C.2   101  LEU101      0.2287
     46  O          4.4800   -4.5100   19.3490 O.2   101  LEU101     -0.2864
     47  CB         2.3880   -3.5490   21.0950 C.3   101  LEU101      0.0297
     48  CG         1.2640   -4.5870   20.7540 C.3   101  LEU101      0.0022
     49  CD1        0.8850   -5.2970   22.0300 C.3   101  LEU101      0.0001
     50  CD2        0.1190   -3.8200   20.2360 C.3   101  LEU101      0.0001
     51  N          4.9150   -2.0370   17.5920 N.3   108  SER108     -0.1202
     52  CA         4.7040   -0.6010   17.7770 C.3   108  SER108      0.2020
     53  C          5.3860   -0.2100   19.0930 C.2   108  SER108      0.2619
     54  O          5.6550   -1.0730   19.9690 O.2   108  SER108     -0.2717
     55  CB         3.1860   -0.1670   17.8620 C.3   108  SER108      0.2103
     56  OG         2.6000   -0.8610   18.9320 O.3   108  SER108     -0.2182
     57  N          5.6980    1.0730   19.2000 N.am  109  THR109     -0.1938
     58  CA         6.2930    1.5560   20.4080 C.3   109  THR109      0.2028
     59  C          5.7680    2.9290   20.6730 C.2   109  THR109      0.2642
     60  O          5.6300    3.6710   19.7360 O.2   109  THR109     -0.2714
     61  CB         7.8490    1.5390   20.3700 C.3   109  THR109      0.1808
     62  OG1        8.3330    1.9860   21.6250 O.3   109  THR109     -0.2208
     63  CG2        8.5100    2.4180   19.2050 C.3   109  THR109      0.0379
     64  N          5.4640    3.2480   21.9360 N.am  110  THR110     -0.1950
     65  CA         4.9790    4.5900   22.2720 C.3   110  THR110      0.1897
     66  C          5.6820    5.0360   23.5120 C.2   110  THR110      0.2313
     67  O          6.0590    4.2100   24.2980 O.2   110  THR110     -0.2863
     68  CB         3.3830    4.7040   22.2710 C.3   110  THR110      0.1794
     69  OG1        2.7980    5.1130   23.4920 O.3   110  THR110     -0.2208
     70  CG2        2.8400    3.5040   21.7160 C.3   110  THR110      0.0378
     71  N          5.2300    7.3010   26.9760 N.3   112  VAL112     -0.1245
     72  CA         4.3110    8.0950   27.8000 C.3   112  VAL112      0.1561
     73  C          5.2610    8.8850   28.6800 C.2   112  VAL112      0.2260
     74  O          6.0460    8.2710   29.4150 O.2   112  VAL112     -0.2867
     75  CB         3.4110    7.2250   28.5110 C.3   112  VAL112      0.0252
     76  CG1        2.4340    8.1050   29.3490 C.3   112  VAL112      0.0019
     77  CG2        2.6060    6.3270   27.4300 C.3   112  VAL112      0.0019
@<TRIPOS>BOND
     1    51    52    1
     2    52    55    1
     3    52    53    1
     4    55    56    1
     5    53    57   am
     6    53    54    2
     7    57    58    1
     8    63    61    1
     9    46    45    2
    10    60    59    2
    11    50    48    1
    12    61    58    1
    13    61    62    1
    14    58    59    1
    15    45    44    1
    16    59    64   am
    17    48    47    1
    18    48    49    1
    19    47    44    1
    20    44    43    1
    21    70    68    1
    22    43    40   am
    23    64    65    1
    24    68    65    1
    25    68    69    1
    26    65    66    1
    27    42    39    1
    28    40    39    1
    29    40    41    2
    30    39    38    1
    31    21    20    2
    32    36    35    2
    33    66    67    2
    34    38    35   am
    35    35    34    1
    36    20    19    1
    37    22    19    1
    38    22    23    1
    39    19    18    1
    40    34    37    1
    41    34    33    1
    42    24    23    1
    43    23    25    1
    44    71    72    1
    45    12    11    2
    46    77    75    1
    47    29    28    2
    48    72    75    1
    49    72    73    1
    50    11    10    1
    51    28    27    1
    52    75    76    1
    53    73    74    2
    54     9    10    1
    55    10    13    1
    56    13    14    1
    57    27    26    1
    58    27    30    1
    59    14    15    1
    60    32    30    1
    61     4     3    2
    62    30    31    1
    63    17    16    1
    64    16    15    1
    65     3     2    1
    66     1     2    1
    67     2     5    1
    68     7     8    1
    69     7     6    1
    70     5     6    1
