@<TRIPOS>MOLECULE
tmp/4abzA00.pdb
 180 170 0 0 0
SMALL
GASTEIGER

@<TRIPOS>ATOM
      1  N         18.5580   28.3140   27.7860 N.3    59  LEU59      -0.1245
      2  CA        18.2020   28.4990   29.1890 C.3    59  LEU59       0.1561
      3  C         16.7580   28.1470   29.4350 C.2    59  LEU59       0.2260
      4  O         16.4750   27.4980   30.4100 O.2    59  LEU59      -0.2867
      5  CB        18.4970   29.9120   29.6880 C.3    59  LEU59       0.0270
      6  CG        19.9860   30.3080   29.7310 C.3    59  LEU59       0.0019
      7  CD1       20.1140   31.5280   30.6350 C.3    59  LEU59       0.0001
      8  CD2       20.9410   29.1860   30.2050 C.3    59  LEU59       0.0001
      9  N         17.9170   25.2270   31.6740 N.3    63  HIS63      -0.1241
     10  CA        18.2810   25.8040   32.9530 C.3    63  HIS63       0.1621
     11  C         17.0620   25.7040   33.7910 C.2    63  HIS63       0.2264
     12  O         16.1680   26.5590   33.7390 O.2    63  HIS63      -0.2867
     13  CB        18.7190   27.2270   32.7070 C.3    63  HIS63       0.0745
     14  CG        19.1080   27.9850   33.9140 C.ar   63  HIS63       0.0817
     15  ND1       19.7300   27.4290   34.9850 N.ar   63  HIS63      -0.2268
     16  CD2       18.9670   29.3380   34.1980 C.ar   63  HIS63       0.1154
     17  CE1       19.9030   28.3660   35.9180 C.ar   63  HIS63       0.1986
     18  NE2       19.4360   29.5390   35.4330 N.ar   63  HIS63      -0.2212
     19  N         16.1970   28.3410   37.7800 N.3    66  SER66      -0.1217
     20  CA        16.2310   29.8080   37.6800 C.3    66  SER66       0.1889
     21  C         15.6950   30.4500   38.9630 C.2    66  SER66       0.2288
     22  O         15.9850   31.6260   39.2410 O.2    66  SER66      -0.2866
     23  CB        15.3220   30.3230   36.5340 C.3    66  SER66       0.2089
     24  OG        15.9280   30.3440   35.2710 O.3    66  SER66      -0.2183
     25  N         20.1500   28.6290   47.1710 N.3    77  PHE77      -0.1227
     26  CA        19.6720   29.0350   45.8840 C.3    77  PHE77       0.1736
     27  C         20.8100   29.4470   44.9510 C.2    77  PHE77       0.2595
     28  O         20.8440   28.9580   43.8270 O.2    77  PHE77      -0.2718
     29  CB        18.6220   30.1780   45.9510 C.3    77  PHE77       0.0547
     30  CG        18.3640   30.7840   44.6010 C.ar   77  PHE77      -0.0202
     31  CD1       17.7300   30.0380   43.6460 C.ar   77  PHE77      -0.0042
     32  CD2       18.8240   32.0180   44.2710 C.ar   77  PHE77      -0.0042
     33  CE1       17.4880   30.5510   42.3850 C.ar   77  PHE77      -0.0003
     34  CE2       18.6050   32.5610   43.0220 C.ar   77  PHE77      -0.0003
     35  CZ        17.9690   31.8130   42.0650 C.ar   77  PHE77      -0.0000
     36  N         21.7350   30.3200   45.3630 N.am   78  LEU78      -0.1980
     37  CA        22.8000   30.6830   44.4520 C.3    78  LEU78       0.1596
     38  C         23.5820   29.4430   44.0070 C.2    78  LEU78       0.2287
     39  O         24.0480   29.3640   42.8770 O.2    78  LEU78      -0.2864
     40  CB        23.7810   31.6050   45.1010 C.3    78  LEU78       0.0297
     41  CG        23.3160   33.0650   45.2870 C.3    78  LEU78       0.0022
     42  CD1       24.3950   33.8520   46.0120 C.3    78  LEU78       0.0001
     43  CD2       22.8580   33.7020   43.9630 C.3    78  LEU78       0.0001
     44  N         21.4340   27.4500   41.5490 N.3    81  ASN81      -0.1240
     45  CA        21.2120   28.2400   40.3490 C.3    81  ASN81       0.1653
     46  C         22.4910   28.1900   39.5260 C.2    81  ASN81       0.2266
     47  O         22.4310   27.9970   38.3190 O.2    81  ASN81      -0.2867
     48  CB        20.8140   29.6720   40.7360 C.3    81  ASN81       0.1155
     49  CG        20.6810   30.6110   39.5520 C.2    81  ASN81       0.2627
     50  OD1       21.5430   31.5160   39.3700 O.2    81  ASN81      -0.2716
     51  ND2       19.5720   30.4950   38.8040 N.am   81  ASN81      -0.0877
     52  N         22.8470   26.8450   35.8130 N.3    85  PHE85      -0.1241
     53  CA        23.4090   27.6860   34.7630 C.3    85  PHE85       0.1605
     54  C         24.6010   26.9800   34.0580 C.2    85  PHE85       0.2264
     55  O         24.6120   26.8980   32.8320 O.2    85  PHE85      -0.2867
     56  CB        23.8250   29.0690   35.3560 C.3    85  PHE85       0.0534
     57  CG        24.2540   30.1000   34.3470 C.ar   85  PHE85      -0.0203
     58  CD1       23.5230   30.3150   33.1630 C.ar   85  PHE85      -0.0042
     59  CD2       25.3040   30.9640   34.6370 C.ar   85  PHE85      -0.0042
     60  CE1       23.8840   31.3140   32.2830 C.ar   85  PHE85      -0.0003
     61  CE2       25.7150   31.9750   33.7240 C.ar   85  PHE85      -0.0003
     62  CZ        24.9790   32.1490   32.5510 C.ar   85  PHE85      -0.0000
     63  N         26.0640   32.3330   24.8700 N.3    99  HIS99      -0.1241
     64  CA        25.4230   33.0990   25.9200 C.3    99  HIS99       0.1621
     65  C         26.0400   34.4710   26.0820 C.2    99  HIS99       0.2264
     66  O         25.3460   35.4450   26.2770 O.2    99  HIS99      -0.2867
     67  CB        25.5410   32.4020   27.2630 C.3    99  HIS99       0.0745
     68  CG        24.7820   33.1200   28.3230 C.ar   99  HIS99       0.0817
     69  ND1       23.4670   32.8980   28.5300 N.ar   99  HIS99      -0.2268
     70  CD2       25.1270   34.1720   29.1280 C.ar   99  HIS99       0.1154
     71  CE1       23.0240   33.7450   29.4460 C.ar   99  HIS99       0.1986
     72  NE2       24.0150   34.5370   29.8000 N.ar   99  HIS99      -0.2212
     73  N         24.8000   38.3870   25.7190 N.3   102  THR102     -0.1203
     74  CA        23.3400   38.5010   25.6820 C.3   102  THR102      0.1994
     75  C         22.8790   39.2060   26.9290 C.2   102  THR102      0.2618
     76  O         23.5570   39.1940   27.9480 O.2   102  THR102     -0.2717
     77  CB        22.5990   37.1350   25.5200 C.3   102  THR102      0.1784
     78  OG1       22.9070   36.1940   26.5910 O.3   102  THR102     -0.2211
     79  CG2       22.8780   36.5470   24.1780 C.3   102  THR102      0.0376
     80  N         21.7320   39.8780   26.8320 N.am  103  ARG103     -0.1965
     81  CA        21.1730   40.5010   27.9870 C.3   103  ARG103      0.1714
     82  C         19.8590   39.8190   28.2300 C.2   103  ARG103      0.2458
     83  O         19.2960   39.2080   27.3300 O.2   103  ARG103     -0.2730
     84  CB        20.9870   41.9950   27.7490 C.3   103  ARG103      0.0347
     85  CG        22.0900   42.8750   28.3530 C.3   103  ARG103      0.0492
     86  CD        21.8890   44.3540   27.9750 C.3   103  ARG103      0.2205
     87  NE        22.0950   45.2920   29.0920 N.pl3 103  ARG103     -0.0865
     88  CZ        22.2000   46.6190   28.9670 C.cat 103  ARG103      0.5346
     89  NH1       22.1460   47.1970   27.7650 N.pl3 103  ARG103      0.1354
     90  NH2       22.3770   47.3750   30.0510 N.pl3 103  ARG103      0.1354
     91  N         19.3620   39.9000   29.4550 N.am  104  PRO104     -0.2727
     92  CA        18.0820   39.2600   29.6780 C.3   104  PRO104      0.1402
     93  C         17.0670   39.7080   28.5950 C.2   104  PRO104      0.2269
     94  O         16.9730   40.8900   28.2480 O.2   104  PRO104     -0.2865
     95  CB        17.6660   39.7650   31.0520 C.3   104  PRO104      0.0296
     96  CG        18.9690   40.0650   31.7220 C.3   104  PRO104      0.0237
     97  CD        19.8680   40.5860   30.6450 C.3   104  PRO104      0.0939
     98  N         12.5560   36.5630   29.9380 N.3   108  GLN108     -0.1245
     99  CA        13.1400   36.1770   31.2650 C.3   108  GLN108      0.1566
    100  C         13.0570   37.3070   32.2980 C.2   108  GLN108      0.2260
    101  O         13.5280   37.1890   33.4340 O.2   108  GLN108     -0.2867
    102  CB        14.5700   35.5890   31.1260 C.3   108  GLN108      0.0367
    103  CG        15.6250   36.4150   30.3880 C.3   108  GLN108      0.0905
    104  CD        16.6190   35.5670   29.5800 C.2   108  GLN108      0.2608
    105  OE1       16.4970   34.3350   29.4530 O.2   108  GLN108     -0.2717
    106  NE2       17.6360   36.2190   29.0600 N.am  108  GLN108     -0.0878
    107  N         11.7980   36.2660   35.7400 N.3   111  THR111     -0.1203
    108  CA        12.8120   35.4380   36.4010 C.3   111  THR111      0.1994
    109  C         13.9430   36.2790   37.0630 C.2   111  THR111      0.2617
    110  O         14.1480   36.2320   38.2620 O.2   111  THR111     -0.2717
    111  CB        13.4280   34.4680   35.3790 C.3   111  THR111      0.1784
    112  OG1       12.4140   33.5920   34.8960 O.3   111  THR111     -0.2211
    113  CG2       14.5320   33.6670   36.0050 C.3   111  THR111      0.0376
    114  N         14.6230   37.0870   36.2880 N.am  112  VAL112     -0.1979
    115  CA        15.7350   37.8960   36.7910 C.3   112  VAL112      0.1595
    116  C         15.2950   38.9030   37.8750 C.2   112  VAL112      0.2287
    117  O         16.0310   39.1590   38.8770 O.2   112  VAL112     -0.2864
    118  CB        16.4620   38.5540   35.5920 C.3   112  VAL112      0.0276
    119  CG1       17.1380   37.4790   34.7350 C.3   112  VAL112      0.0022
    120  CG2       15.5120   39.1840   34.6440 C.3   112  VAL112      0.0022
    121  N         14.7140   36.8070   40.9950 N.3   115  GLN115     -0.1231
    122  CA        16.0060   36.5370   41.6130 C.3   115  GLN115      0.1698
    123  C         16.4620   37.7510   42.4710 C.2   115  GLN115      0.2592
    124  O         16.7860   37.6270   43.6560 O.2   115  GLN115     -0.2718
    125  CB        17.0240   36.1730   40.5380 C.3   115  GLN115      0.0381
    126  CG        16.7210   34.8660   39.8090 C.3   115  GLN115      0.0905
    127  CD        17.6480   34.5830   38.6510 C.2   115  GLN115      0.2608
    128  OE1       18.4700   35.4070   38.2900 O.2   115  GLN115     -0.2717
    129  NE2       17.5330   33.3760   38.0660 N.am  115  GLN115     -0.0878
    130  N         16.4060   38.9410   41.8960 N.am  116  LEU116     -0.1980
    131  CA        16.9190   40.1340   42.5770 C.3   116  LEU116      0.1596
    132  C         16.0850   40.5000   43.7780 C.2   116  LEU116      0.2287
    133  O         16.6020   40.7720   44.8460 O.2   116  LEU116     -0.2864
    134  CB        16.9270   41.3170   41.6210 C.3   116  LEU116      0.0297
    135  CG        18.0300   41.1740   40.6010 C.3   116  LEU116      0.0022
    136  CD1       17.5380   41.6230   39.2250 C.3   116  LEU116      0.0001
    137  CD2       19.2130   41.9910   41.1230 C.3   116  LEU116      0.0001
    138  N         22.7570   42.4910   43.5240 N.3   130  LEU130     -0.1245
    139  CA        23.2290   42.5700   42.1350 C.3   130  LEU130      0.1561
    140  C         24.7150   42.1440   42.0520 C.2   130  LEU130      0.2260
    141  O         25.1070   41.4260   41.1170 O.2   130  LEU130     -0.2867
    142  CB        23.0220   44.0170   41.5760 C.3   130  LEU130      0.0270
    143  CG        23.9160   44.5070   40.4460 C.3   130  LEU130      0.0019
    144  CD1       23.6640   43.6060   39.2250 C.3   130  LEU130      0.0001
    145  CD2       23.7250   46.0140   40.0880 C.3   130  LEU130      0.0001
    146  N         24.8010   38.2490   42.5320 N.3   133  ILE133     -0.1231
    147  CA        24.3360   37.6890   41.2450 C.3   133  ILE133      0.1692
    148  C         25.2880   37.8170   40.0510 C.2   133  ILE133      0.2592
    149  O         25.4920   36.8230   39.3230 O.2   133  ILE133     -0.2718
    150  CB        22.9000   38.2050   40.8760 C.3   133  ILE133      0.0266
    151  CG1       21.8420   37.4570   41.7030 C.3   133  ILE133      0.0019
    152  CG2       22.5820   37.9670   39.3970 C.3   133  ILE133      0.0020
    153  CD1       20.6510   38.2930   42.0500 C.3   133  ILE133      0.0001
    154  N         25.9160   38.9840   39.8670 N.am  134  SER134     -0.1952
    155  CA        26.8230   39.1940   38.7920 C.3   134  SER134      0.1924
    156  C         28.0890   38.3430   38.9720 C.2   134  SER134      0.2314
    157  O         28.6360   37.8690   37.9700 O.2   134  SER134     -0.2863
    158  CB        27.2600   40.6580   38.7060 C.3   134  SER134      0.2116
    159  OG        26.0640   41.4180   38.4840 O.3   134  SER134     -0.2180
    160  N         28.5150   35.4370   40.6490 N.3   136  VAL136     -0.1231
    161  CA        28.1550   34.0990   40.2380 C.3   136  VAL136      0.1692
    162  C         28.1180   33.9380   38.7270 C.2   136  VAL136      0.2592
    163  O         28.7630   32.9940   38.2120 O.2   136  VAL136     -0.2718
    164  CB        26.8280   33.6080   40.8770 C.3   136  VAL136      0.0266
    165  CG1       26.3340   32.2390   40.2700 C.3   136  VAL136      0.0020
    166  CG2       27.0260   33.5630   42.3700 C.3   136  VAL136      0.0020
    167  N         27.4510   34.8380   38.0020 N.am  137  SER137     -0.1952
    168  CA        27.3600   34.6860   36.5600 C.3   137  SER137      0.1924
    169  C         28.7130   34.7500   35.8640 C.2   137  SER137      0.2314
    170  O         28.9410   34.0090   34.9480 O.2   137  SER137     -0.2863
    171  CB        26.4580   35.7690   35.9330 C.3   137  SER137      0.2116
    172  OG        25.1870   35.6810   36.5250 O.3   137  SER137     -0.2180
    173  N         30.3010   31.6800   33.9750 N.3   141  LEU141     -0.1245
    174  CA        30.6330   31.8460   32.5380 C.3   141  LEU141      0.1561
    175  C         32.1220   31.6270   32.2360 C.2   141  LEU141      0.2260
    176  O         32.4490   30.8310   31.3340 O.2   141  LEU141     -0.2867
    177  CB        30.1370   33.2030   31.9740 C.3   141  LEU141      0.0270
    178  CG        28.6820   33.2160   31.4830 C.3   141  LEU141      0.0019
    179  CD1       27.9880   34.6010   31.6420 C.3   141  LEU141      0.0001
    180  CD2       28.5980   32.6780   30.0380 C.3   141  LEU141      0.0001
@<TRIPOS>BOND
     1    79    77    1
     2    63    64    1
     3    77    74    1
     4    77    78    1
     5    74    73    1
     6    74    75    1
     7    64    65    1
     8    64    67    1
     9    65    66    2
    10    80    75   am
    11    80    81    1
    12    75    76    2
    13    67    68    1
    14    83    82    2
    15    84    81    1
    16    84    85    1
    17    89    88    1
    18     1     2    1
    19    86    85    1
    20    86    87    1
    21    81    82    1
    22    82    91   am
    23    94    93    2
    24    68    69   ar
    25    68    70   ar
    26    69    71   ar
    27    93    92    1
    28    88    87    2
    29    88    90    1
    30   106   104   am
    31    70    72   ar
    32     2     3    1
    33     2     5    1
    34     3     4    2
    35    71    72   ar
    36   105   104    2
    37    91    92    1
    38    91    97    1
    39   104   103    1
    40    92    95    1
    41     5     6    1
    42     6     8    1
    43     6     7    1
    44    98    99    1
    45   180   178    1
    46   103   102    1
    47    97    96    1
    48    95    96    1
    49   102    99    1
    50    99   100    1
    51   176   175    2
    52   178   179    1
    53   178   177    1
    54     9    10    1
    55   177   174    1
    56   175   174    1
    57    60    62   ar
    58    60    58   ar
    59   100   101    2
    60   174   173    1
    61    62    61   ar
    62    13    10    1
    63    13    14    1
    64    55    54    2
    65    10    11    1
    66    58    57   ar
    67    61    59   ar
    68    12    11    2
    69    14    16   ar
    70    14    15   ar
    71    54    53    1
    72    16    18   ar
    73    57    59   ar
    74    57    56    1
    75   120   118    1
    76   119   118    1
    77    53    56    1
    78    53    52    1
    79   112   111    1
    80   170   169    2
    81    15    17   ar
    82    24    23    1
    83   111   113    1
    84   111   108    1
    85    18    17   ar
    86   118   115    1
    87   107   108    1
    88   169   168    1
    89   171   172    1
    90   171   168    1
    91   114   115    1
    92   114   109   am
    93   108   109    1
    94    23    20    1
    95   168   167    1
    96   115   116    1
    97   109   110    2
    98    20    19    1
    99    20    21    1
   100   116   117    2
   101   157   156    2
   102   167   162   am
   103   129   127   am
   104   163   162    2
   105   128   127    2
   106    47    46    2
   107   159   158    1
   108   127   126    1
   109   158   155    1
   110   162   161    1
   111   155   156    1
   112   155   154    1
   113    51    49   am
   114    21    22    2
   115   144   143    1
   116   136   135    1
   117   149   148    2
   118    50    49    2
   119   152   150    1
   120    46    45    1
   121    49    48    1
   122   126   125    1
   123   154   148   am
   124   148   147    1
   125   145   143    1
   126   161   160    1
   127   161   164    1
   128   165   164    1
   129    45    48    1
   130    45    44    1
   131   143   142    1
   132   125   122    1
   133   135   137    1
   134   135   134    1
   135   150   147    1
   136   150   151    1
   137   164   166    1
   138   121   122    1
   139   141   140    2
   140   147   146    1
   141   142   139    1
   142   122   123    1
   143   134   131    1
   144   151   153    1
   145   130   123   am
   146   130   131    1
   147   140   139    1
   148    35    33   ar
   149    35    34   ar
   150   139   138    1
   151    33    31   ar
   152   123   124    2
   153   131   132    1
   154    39    38    2
   155    34    32   ar
   156    31    30   ar
   157   132   133    2
   158    28    27    2
   159    43    41    1
   160    38    37    1
   161    32    30   ar
   162    37    40    1
   163    37    36    1
   164    30    29    1
   165    27    36   am
   166    27    26    1
   167    40    41    1
   168    41    42    1
   169    26    29    1
   170    26    25    1
