@<TRIPOS>MOLECULE
tmp/4ac0A00.pdb
 157 149 0 0 0
SMALL
GASTEIGER

@<TRIPOS>ATOM
      1  N         23.0760   -0.5420   -3.8940 N.3    59  LEU59      -0.1245
      2  CA        22.2620   -1.6750   -4.2510 C.3    59  LEU59       0.1561
      3  C         23.1710   -2.8680   -4.4320 C.2    59  LEU59       0.2260
      4  O         22.8240   -4.0190   -4.0750 O.2    59  LEU59      -0.2867
      5  CB        21.5100   -1.3910   -5.5280 C.3    59  LEU59       0.0270
      6  CG        20.4620   -0.2790   -5.4680 C.3    59  LEU59       0.0019
      7  CD1       20.0280    0.0030   -6.9050 C.3    59  LEU59       0.0001
      8  CD2       19.2260   -0.5710   -4.5130 C.3    59  LEU59       0.0001
      9  N         21.3590   -4.6410   -1.8480 N.3    63  HIS63      -0.1241
     10  CA        20.0410   -4.9800   -2.3820 C.3    63  HIS63       0.1621
     11  C         20.1480   -6.3690   -2.9870 C.2    63  HIS63       0.2264
     12  O         20.4010   -6.5370   -4.1680 O.2    63  HIS63      -0.2867
     13  CB        19.4990   -3.8990   -3.3270 C.3    63  HIS63       0.0745
     14  CG        18.1880   -4.2440   -3.9500 C.ar   63  HIS63       0.0817
     15  ND1       17.1060   -4.6670   -3.2110 N.ar   63  HIS63      -0.2268
     16  CD2       17.7830   -4.2230   -5.2430 C.ar   63  HIS63       0.1154
     17  CE1       16.0960   -4.9200   -4.0250 C.ar   63  HIS63       0.1986
     18  NE2       16.4770   -4.6410   -5.2600 N.ar   63  HIS63      -0.2212
     19  N         17.2450   -8.7710   -5.3200 N.3    66  PHE66      -0.1241
     20  CA        16.8560   -8.1640   -6.5990 C.3    66  PHE66       0.1605
     21  C         16.2300   -9.1930   -7.5200 C.2    66  PHE66       0.2264
     22  O         15.6250   -8.8320   -8.5320 O.2    66  PHE66      -0.2867
     23  CB        18.0590   -7.5350   -7.3070 C.3    66  PHE66       0.0534
     24  CG        19.2120   -8.4830   -7.5180 C.ar   66  PHE66      -0.0203
     25  CD1       19.2610   -9.2970   -8.6410 C.ar   66  PHE66      -0.0042
     26  CD2       20.2680   -8.5230   -6.6070 C.ar   66  PHE66      -0.0042
     27  CE1       20.3320  -10.1690   -8.8570 C.ar   66  PHE66      -0.0003
     28  CE2       21.3520   -9.3770   -6.7920 C.ar   66  PHE66      -0.0003
     29  CZ        21.3860  -10.2120   -7.9290 C.ar   66  PHE66      -0.0000
     30  N         12.2470   -8.3810   -1.6900 N.3    81  ASN81      -0.1240
     31  CA        12.7350   -7.3080   -2.5560 C.3    81  ASN81       0.1653
     32  C         12.5870   -5.9650   -1.9030 C.2    81  ASN81       0.2266
     33  O         13.5180   -5.1550   -1.9950 O.2    81  ASN81      -0.2867
     34  CB        11.9970   -7.2930   -3.8930 C.3    81  ASN81       0.1155
     35  CG        12.5780   -6.3070   -4.8870 C.2    81  ASN81       0.2627
     36  OD1       11.9560   -5.2570   -5.1860 O.2    81  ASN81      -0.2716
     37  ND2       13.7510   -6.6530   -5.4580 N.am   81  ASN81      -0.0877
     38  N         15.7040   -3.6350   -0.6030 N.3    85  PHE85      -0.1241
     39  CA        15.7480   -2.2720   -1.1150 C.3    85  PHE85       0.1605
     40  C         15.8380   -1.3500    0.1130 C.2    85  PHE85       0.2264
     41  O         16.8040   -0.5910    0.2810 O.2    85  PHE85      -0.2867
     42  CB        14.5170   -2.0110   -1.9880 C.3    85  PHE85       0.0534
     43  CG        14.5030   -0.6610   -2.6250 C.ar   85  PHE85      -0.0203
     44  CD1       15.5930   -0.2120   -3.3610 C.ar   85  PHE85      -0.0042
     45  CD2       13.4030    0.1690   -2.4740 C.ar   85  PHE85      -0.0042
     46  CE1       15.5940    1.0420   -3.9400 C.ar   85  PHE85      -0.0003
     47  CE2       13.3980    1.4280   -3.0320 C.ar   85  PHE85      -0.0003
     48  CZ        14.4970    1.8660   -3.7850 C.ar   85  PHE85      -0.0000
     49  N         19.0260    8.0120   -3.7700 N.3    99  HIS99      -0.1241
     50  CA        18.3070    7.2690   -4.7930 C.3    99  HIS99       0.1621
     51  C         17.2740    8.1170   -5.5600 C.2    99  HIS99       0.2264
     52  O         17.0680    7.9260   -6.7710 O.2    99  HIS99      -0.2867
     53  CB        17.5750    6.0770   -4.1490 C.3    99  HIS99       0.0745
     54  CG        16.9660    5.1610   -5.1580 C.ar   99  HIS99       0.0817
     55  ND1       17.5420    3.9550   -5.5080 N.ar   99  HIS99      -0.2268
     56  CD2       15.8850    5.3080   -5.9610 C.ar   99  HIS99       0.1154
     57  CE1       16.8180    3.3730   -6.4480 C.ar   99  HIS99       0.1986
     58  NE2       15.8170    4.1820   -6.7560 N.ar   99  HIS99      -0.2212
     59  N         16.7670    8.9040   -9.3610 N.3   102  THR102     -0.1203
     60  CA        17.5000    8.0090  -10.2570 C.3   102  THR102      0.1994
     61  C         16.5240    7.1800  -11.0720 C.2   102  THR102      0.2618
     62  O         15.3550    7.0050  -10.7180 O.2   102  THR102     -0.2717
     63  CB        18.4540    7.0120   -9.5480 C.3   102  THR102      0.1784
     64  OG1       17.7360    6.1300   -8.6550 O.3   102  THR102     -0.2211
     65  CG2       19.6340    7.7490   -8.8450 C.3   102  THR102      0.0376
     66  N         17.0390    6.6290  -12.1540 N.am  103  ARG103     -0.1965
     67  CA        16.2770    5.8150  -13.0540 C.3   103  ARG103      0.1714
     68  C         17.0690    4.5580  -13.3980 C.2   103  ARG103      0.2458
     69  O         18.3020    4.5410  -13.2510 O.2   103  ARG103     -0.2730
     70  CB        16.0780    6.6040  -14.3330 C.3   103  ARG103      0.0347
     71  CG        15.3800    7.9370  -14.1840 C.3   103  ARG103      0.0492
     72  CD        14.5430    8.1760  -15.3770 C.3   103  ARG103      0.2205
     73  NE        13.1750    7.7700  -15.0760 N.pl3 103  ARG103     -0.0865
     74  CZ        12.3420    7.2120  -15.9520 C.cat 103  ARG103      0.5346
     75  NH1       12.7510    6.9220  -17.1960 N.pl3 103  ARG103      0.1354
     76  NH2       11.0920    6.9290  -15.5570 N.pl3 103  ARG103      0.1354
     77  N         16.3680    3.5050  -13.8960 N.am  104  PRO104     -0.2727
     78  CA        17.0080    2.2670  -14.3420 C.3   104  PRO104      0.1402
     79  C         18.1860    2.5570  -15.2640 C.2   104  PRO104      0.2269
     80  O         18.0890    3.4490  -16.1170 O.2   104  PRO104     -0.2865
     81  CB        15.9220    1.6000  -15.1660 C.3   104  PRO104      0.0296
     82  CG        14.6420    2.1270  -14.6020 C.3   104  PRO104      0.0237
     83  CD        14.9440    3.5470  -14.2610 C.3   104  PRO104      0.0939
     84  N         21.0800   -2.6920  -15.0240 N.3   108  GLN108     -0.1245
     85  CA        19.9560   -3.1710  -14.2480 C.3   108  GLN108      0.1566
     86  C         18.9730   -3.7890  -15.1920 C.2   108  GLN108      0.2260
     87  O         18.0830   -4.5170  -14.7650 O.2   108  GLN108     -0.2867
     88  CB        19.3000   -2.0540  -13.4420 C.3   108  GLN108      0.0367
     89  CG        20.2290   -1.4110  -12.4490 C.3   108  GLN108      0.0905
     90  CD        19.5910   -0.2380  -11.7540 C.2   108  GLN108      0.2608
     91  OE1       18.8750    0.5790  -12.3630 O.2   108  GLN108     -0.2717
     92  NE2       19.8200   -0.1530  -10.4500 N.am  108  GLN108     -0.0878
     93  N         18.2720   -7.5790  -14.5780 N.3   111  THR111     -0.1203
     94  CA        17.5770   -7.6880  -13.2680 C.3   111  THR111      0.1994
     95  C         16.1200   -7.2550  -13.3680 C.2   111  THR111      0.2617
     96  O         15.2230   -7.9910  -12.9680 O.2   111  THR111     -0.2717
     97  CB        18.2590   -6.8420  -12.1600 C.3   111  THR111      0.1784
     98  OG1       19.4340   -7.5080  -11.6950 O.3   111  THR111     -0.2211
     99  CG2       17.3210   -6.5920  -10.9790 C.3   111  THR111      0.0376
    100  N         15.9050   -6.0750  -13.9400 N.am  112  LEU112     -0.1979
    101  CA        14.6120   -5.4630  -13.9700 C.3   112  LEU112      0.1596
    102  C         13.6830   -6.1150  -14.9500 C.2   112  LEU112      0.2287
    103  O         12.5110   -6.1870  -14.6930 O.2   112  LEU112     -0.2864
    104  CB        14.7440   -4.0030  -14.3520 C.3   112  LEU112      0.0297
    105  CG        15.4280   -3.0610  -13.3760 C.3   112  LEU112      0.0022
    106  CD1       15.6160   -1.7120  -14.0220 C.3   112  LEU112      0.0001
    107  CD2       14.6630   -2.9230  -12.0500 C.3   112  LEU112      0.0001
    108  N         12.4980   -9.0680  -13.4140 N.3   115  GLN115     -0.1231
    109  CA        11.5470   -8.6860  -12.3660 C.3   115  GLN115      0.1698
    110  C         10.1020   -8.5500  -12.8590 C.2   115  GLN115      0.2592
    111  O          9.1840   -8.8320  -12.1170 O.2   115  GLN115     -0.2718
    112  CB        11.9780   -7.3990  -11.6780 C.3   115  GLN115      0.0381
    113  CG        12.7780   -7.6030  -10.4040 C.3   115  GLN115      0.0905
    114  CD        13.2890   -6.2880   -9.7660 C.2   115  GLN115      0.2608
    115  OE1       12.7070   -5.2140   -9.9480 O.2   115  GLN115     -0.2717
    116  NE2       14.3900   -6.3830   -9.0330 N.am  115  GLN115     -0.0878
    117  N          9.9190   -8.1250  -14.1080 N.am  116  LEU116     -0.1980
    118  CA         8.5980   -7.8710  -14.6350 C.3   116  LEU116      0.1596
    119  C          8.1140   -9.1660  -15.2450 C.2   116  LEU116      0.2287
    120  O          6.9150   -9.4710  -15.2050 O.2   116  LEU116     -0.2864
    121  CB         8.6420   -6.7480  -15.6800 C.3   116  LEU116      0.0297
    122  CG         8.9390   -5.3280  -15.1290 C.3   116  LEU116      0.0022
    123  CD1        9.9940   -4.5100  -15.9290 C.3   116  LEU116      0.0001
    124  CD2        7.6520   -4.5350  -14.9700 C.3   116  LEU116      0.0001
    125  N          4.0700   -3.5020  -13.1620 N.3   130  LEU130     -0.1245
    126  CA         5.0000   -2.4330  -13.0740 C.3   130  LEU130      0.1561
    127  C          4.4300   -1.5170  -12.0210 C.2   130  LEU130      0.2260
    128  O          5.1840   -0.8090  -11.3130 O.2   130  LEU130     -0.2867
    129  CB         5.1940   -1.7870  -14.4460 C.3   130  LEU130      0.0270
    130  CG         4.4930   -0.5910  -15.1240 C.3   130  LEU130      0.0019
    131  CD1        3.2110   -0.1660  -14.4880 C.3   130  LEU130      0.0001
    132  CD2        5.4090    0.5800  -15.1370 C.3   130  LEU130      0.0001
    133  N          5.2630   -2.7850   -8.7060 N.3   133  LEU133     -0.1231
    134  CA         6.6720   -2.4360   -8.4010 C.3   133  LEU133      0.1693
    135  C          6.7830   -1.0270   -7.9400 C.2   133  LEU133      0.2592
    136  O          7.4970   -0.7310   -6.9500 O.2   133  LEU133     -0.2718
    137  CB         7.6190   -2.6850   -9.6050 C.3   133  LEU133      0.0284
    138  CG         7.7710   -4.2050   -9.9220 C.3   133  LEU133      0.0019
    139  CD1        8.6590   -4.4900  -11.0860 C.3   133  LEU133      0.0001
    140  CD2        8.2860   -5.0290   -8.7120 C.3   133  LEU133      0.0001
    141  N          6.0770   -0.1280   -8.5990 N.am  134  SER134     -0.1952
    142  CA         6.2260    1.2380   -8.1590 C.3   134  SER134      0.1924
    143  C          5.5770    1.5160   -6.7780 C.2   134  SER134      0.2314
    144  O          6.1030    2.3060   -5.9710 O.2   134  SER134     -0.2863
    145  CB         5.7960    2.2240   -9.2500 C.3   134  SER134      0.2116
    146  OG         4.4300    2.3880   -9.2470 O.3   134  SER134     -0.2180
    147  N          5.2490   -0.5330   -4.1610 N.3   136  VAL136     -0.1231
    148  CA         6.2480   -0.9670   -3.2160 C.3   136  VAL136      0.1692
    149  C          7.4810   -0.0500   -3.1270 C.2   136  VAL136      0.2592
    150  O          8.0580    0.1290   -2.0630 O.2   136  VAL136     -0.2718
    151  CB         6.7150   -2.3730   -3.6470 C.3   136  VAL136      0.0266
    152  CG1        8.0350   -2.7520   -2.9780 C.3   136  VAL136      0.0020
    153  CG2        5.6080   -3.4390   -3.3730 C.3   136  VAL136      0.0020
    154  N          7.9340    0.5020   -4.2360 N.am  137  GLY137     -0.1957
    155  CA         9.1380    1.3400   -4.2000 C.3   137  GLY137      0.1869
    156  C          8.8220    2.7120   -3.6380 C.2   137  GLY137      0.2309
    157  O          9.5150    3.2140   -2.7510 O.2   137  GLY137     -0.2863
@<TRIPOS>BOND
     1    75    74    1
     2    80    79    2
     3    74    76    1
     4    74    73    2
     5   123   122    1
     6   121   122    1
     7   121   118    1
     8    72    73    1
     9    72    71    1
    10    79    78    1
    11   119   120    2
    12   119   118    1
    13    86    87    2
    14    86    85    1
    15    81    82    1
    16    81    78    1
    17   132   130    1
    18   122   124    1
    19   130   131    1
    20   130   129    1
    21    84    85    1
    22   102   103    2
    23   102   101    1
    24   118   117    1
    25    82    83    1
    26    93    94    1
    27   129   126    1
    28   104   101    1
    29   104   105    1
    30    78    77    1
    31    70    71    1
    32    70    67    1
    33    83    77    1
    34    85    88    1
    35   117   110   am
    36   106   105    1
    37   101   100    1
    38   100    95   am
    39    77    68   am
    40    88    89    1
    41   108   109    1
    42    68    69    2
    43    68    67    1
    44   105   107    1
    45    95    94    1
    46    95    96    2
    47    94    97    1
    48   125   126    1
    49   126   127    1
    50    67    66    1
    51   110   109    1
    52   110   111    2
    53    89    90    1
    54   109   112    1
    55    91    90    2
    56    97    98    1
    57    97    99    1
    58    66    61   am
    59   127   128    2
    60    90    92   am
    61   112   113    1
    62   139   138    1
    63    61    62    2
    64    61    60    1
    65   113   114    1
    66    60    63    1
    67    60    59    1
    68   115   114    2
    69   138   137    1
    70   138   140    1
    71   114   116   am
    72   137   134    1
    73    63    65    1
    74    63    64    1
    75   145   146    1
    76   145   142    1
    77    27    25   ar
    78    27    29   ar
    79   133   134    1
    80    25    24   ar
    81   141   142    1
    82   141   135   am
    83    22    21    2
    84   134   135    1
    85   142   143    1
    86   135   136    2
    87    29    28   ar
    88    21    20    1
    89    24    23    1
    90    24    26   ar
    91    23    20    1
    92     7     6    1
    93    28    26   ar
    94   143   144    2
    95    52    51    2
    96    58    57   ar
    97    58    56   ar
    98    20    19    1
    99    57    55   ar
   100    56    54   ar
   101    51    50    1
   102     5     6    1
   103     5     2    1
   104    55    54   ar
   105     6     8    1
   106    37    35   am
   107    18    16   ar
   108    18    17   ar
   109    16    14   ar
   110    36    35    2
   111    54    53    1
   112    35    34    1
   113    50    53    1
   114    50    49    1
   115     3     2    1
   116     3     4    2
   117     2     1    1
   118   154   155    1
   119   154   149   am
   120   155   156    1
   121    12    11    2
   122   147   148    1
   123    17    15   ar
   124    14    13    1
   125    14    15   ar
   126    46    48   ar
   127    46    44   ar
   128    34    31    1
   129    48    47   ar
   130   151   153    1
   131   151   148    1
   132   151   152    1
   133   156   157    2
   134    44    43   ar
   135    13    10    1
   136   148   149    1
   137   149   150    2
   138    47    45   ar
   139    11    10    1
   140    43    45   ar
   141    43    42    1
   142    31    32    1
   143    31    30    1
   144    10     9    1
   145    33    32    2
   146    42    39    1
   147    39    38    1
   148    39    40    1
   149    40    41    2
