@<TRIPOS>MOLECULE
tmp/4ac2A00.pdb
 77 70 0 0 0
SMALL
GASTEIGER

@<TRIPOS>ATOM
      1  N         11.3570   -2.1140   -0.4460 N.3     4  MET4       -0.1245
      2  CA        10.5960   -0.8760   -0.5890 C.3     4  MET4        0.1570
      3  C         10.1900   -0.4180    0.8120 C.2     4  MET4        0.2261
      4  O         10.1280   -1.2120    1.7610 O.2     4  MET4       -0.2867
      5  CB         9.3410   -1.1130   -1.4230 C.3     4  MET4        0.0387
      6  CG         8.6090    0.2310   -1.8600 C.3     4  MET4        0.0595
      7  SD         7.1350    0.7520   -0.8760 S.3     4  MET4       -0.1393
      8  CE         5.8120   -0.4600   -1.2550 C.3     4  MET4        0.0692
      9  N          7.4530    2.2200    2.9320 N.3     6  LYS6       -0.1245
     10  CA         6.2370    2.9910    2.7980 C.3     6  LYS6        0.1561
     11  C          5.9120    3.6170    4.1390 C.2     6  LYS6        0.2260
     12  O          5.9630    2.9180    5.1930 O.2     6  LYS6       -0.2867
     13  CB         5.0600    2.0750    2.3960 C.3     6  LYS6        0.0271
     14  CG         3.7570    2.9070    2.4130 C.3     6  LYS6        0.0035
     15  CD         2.5370    2.2940    1.6650 C.3     6  LYS6        0.0206
     16  CE         1.4180    3.3540    1.6500 C.3     6  LYS6        0.1093
     17  NZ         1.3020    4.1320    0.4080 N.3     6  LYS6       -0.1314
     18  N          3.3430    6.2160    6.4300 N.3     8  LEU8       -0.1245
     19  CA         2.0240    6.9230    6.5340 C.3     8  LEU8        0.1561
     20  C          2.0240    7.8450    7.7980 C.2     8  LEU8        0.2260
     21  O          2.7570    7.6060    8.7440 O.2     8  LEU8       -0.2867
     22  CB         0.8950    5.8690    6.6870 C.3     8  LEU8        0.0270
     23  CG         0.7000    4.9120    5.4960 C.3     8  LEU8        0.0019
     24  CD1       -0.4970    4.0680    5.8020 C.3     8  LEU8        0.0001
     25  CD2        0.4390    5.7000    4.2960 C.3     8  LEU8        0.0001
     26  N          8.7750   -5.2770    1.9960 N.3    97  THR97      -0.1218
     27  CA         8.2090   -3.9460    2.1780 C.3    97  THR97       0.1862
     28  C          8.2590   -3.6440    3.6520 C.2    97  THR97       0.2287
     29  O          7.8170   -4.4260    4.5290 O.2    97  THR97      -0.2866
     30  CB         6.7800   -3.8270    1.7140 C.3    97  THR97       0.1770
     31  OG1        6.7580   -4.0230    0.3190 O.3    97  THR97      -0.2211
     32  CG2        6.2020   -2.4440    2.0660 C.3    97  THR97       0.0375
     33  N          6.8890   -1.1050    6.2510 N.3    99  ALA99      -0.1231
     34  CA         5.8690   -0.0260    6.2990 C.3    99  ALA99       0.1694
     35  C          5.9180    0.5400    7.7040 C.2    99  ALA99       0.2592
     36  O          6.3000   -0.1620    8.6100 O.2    99  ALA99      -0.2718
     37  CB         4.4750   -0.5530    6.0200 C.3    99  ALA99       0.0304
     38  N          5.6730    1.8420    7.8280 N.am  100  ALA100     -0.1966
     39  CA         5.7670    2.5120    9.1350 C.3   100  ALA100      0.1728
     40  C          4.6150    3.4490    9.1900 C.2   100  ALA100      0.2616
     41  O          4.2530    4.0420    8.1610 O.2   100  ALA100     -0.2715
     42  CB         7.1070    3.3030    9.2670 C.3   100  ALA100      0.0334
     43  N          4.0010    3.5680   10.3540 N.am  101  LEU101     -0.1977
     44  CA         2.9100    4.4590   10.5850 C.3   101  LEU101      0.1596
     45  C          3.3360    5.4020   11.6980 C.2   101  LEU101      0.2287
     46  O          3.6550    4.9790   12.8010 O.2   101  LEU101     -0.2864
     47  CB         1.7260    3.6540   11.1210 C.3   101  LEU101      0.0297
     48  CG         0.4540    4.4800   11.4360 C.3   101  LEU101      0.0022
     49  CD1       -0.0250    5.2970   10.2160 C.3   101  LEU101      0.0001
     50  CD2       -0.6560    3.6620   12.0610 C.3   101  LEU101      0.0001
     51  N          4.5600    2.6400   14.5010 N.3   108  SER108     -0.1202
     52  CA         4.5730    1.2010   14.3350 C.3   108  SER108      0.2020
     53  C          5.2380    0.8400   13.0060 C.2   108  SER108      0.2619
     54  O          5.2630    1.6360   12.0480 O.2   108  SER108     -0.2717
     55  CB         3.1520    0.6120   14.4530 C.3   108  SER108      0.2103
     56  OG         2.4140    0.9480   13.3170 O.3   108  SER108     -0.2182
     57  N          5.8010   -0.3700   12.9530 N.am  109  THR109     -0.1938
     58  CA         6.3620   -0.8160   11.6900 C.3   109  THR109      0.2028
     59  C          6.0050   -2.2800   11.4670 C.2   109  THR109      0.2642
     60  O          5.8620   -3.0170   12.4310 O.2   109  THR109     -0.2714
     61  CB         7.8620   -0.5570   11.6540 C.3   109  THR109      0.1808
     62  OG1        8.3580   -0.9200   10.3950 O.3   109  THR109     -0.2208
     63  CG2        8.6630   -1.2950   12.7510 C.3   109  THR109      0.0379
     64  N          5.8280   -2.6540   10.2060 N.am  110  THR110     -0.1950
     65  CA         5.4760   -4.0120    9.8770 C.3   110  THR110      0.1897
     66  C          6.2450   -4.3430    8.6550 C.2   110  THR110      0.2313
     67  O          6.6100   -3.4530    7.9060 O.2   110  THR110     -0.2863
     68  CB         4.0330   -4.1950    9.5330 C.3   110  THR110      0.1794
     69  OG1        3.2990   -3.3790   10.4540 O.3   110  THR110     -0.2208
     70  CG2        3.7330   -5.7350    9.7760 C.3   110  THR110      0.0378
     71  N          6.2460   -6.7530    5.1960 N.3   112  VAL112     -0.1245
     72  CA         5.3850   -7.5600    4.3110 C.3   112  VAL112      0.1561
     73  C          6.3630   -8.1940    3.3530 C.2   112  VAL112      0.2260
     74  O          7.0380   -7.4750    2.5650 O.2   112  VAL112     -0.2867
     75  CB         4.3680   -6.7230    3.5510 C.3   112  VAL112      0.0252
     76  CG1        3.4350   -7.6730    2.7830 C.3   112  VAL112      0.0019
     77  CG2        3.5990   -5.7810    4.5120 C.3   112  VAL112      0.0019
@<TRIPOS>BOND
     1     6     5    1
     2     6     7    1
     3     5     2    1
     4     8     7    1
     5     2     1    1
     6     2     3    1
     7    31    30    1
     8    17    16    1
     9     3     4    2
    10    16    15    1
    11    15    14    1
    12    30    32    1
    13    30    27    1
    14    26    27    1
    15    27    28    1
    16    13    14    1
    17    13    10    1
    18    74    73    2
    19    76    75    1
    20    10     9    1
    21    10    11    1
    22    73    72    1
    23    75    72    1
    24    75    77    1
    25    28    29    2
    26    11    12    2
    27    25    23    1
    28    72    71    1
    29    23    24    1
    30    23    22    1
    31    37    34    1
    32    33    34    1
    33    34    35    1
    34    18    19    1
    35    19    22    1
    36    19    20    1
    37    35    38   am
    38    35    36    2
    39    20    21    2
    40    38    39    1
    41    67    66    2
    42    41    40    2
    43    66    65    1
    44    39    40    1
    45    39    42    1
    46    40    43   am
    47    68    70    1
    48    68    65    1
    49    68    69    1
    50    65    64    1
    51    64    59   am
    52    49    48    1
    53    43    44    1
    54    62    61    1
    55    44    47    1
    56    44    45    1
    57    47    48    1
    58    48    50    1
    59    59    58    1
    60    59    60    2
    61    61    58    1
    62    61    63    1
    63    58    57    1
    64    45    46    2
    65    54    53    2
    66    57    53   am
    67    53    52    1
    68    56    55    1
    69    52    55    1
    70    52    51    1
