@<TRIPOS>MOLECULE
tmp/4ac4A00.pdb
 77 70 0 0 0
SMALL
GASTEIGER

@<TRIPOS>ATOM
      1  N         10.9780    3.5870   32.5050 N.3     4  MET4       -0.1245
      2  CA        10.2710    2.3060   32.7110 C.3     4  MET4        0.1570
      3  C          9.8930    1.8020   31.3250 C.2     4  MET4        0.2261
      4  O          9.6230    2.6060   30.4040 O.2     4  MET4       -0.2867
      5  CB         9.0210    2.4370   33.5950 C.3     4  MET4        0.0387
      6  CG         8.3140    1.0680   33.9880 C.3     4  MET4        0.0595
      7  SD         7.1310    0.3500   32.7630 S.3     4  MET4       -0.1393
      8  CE         5.5330    0.9630   33.3660 C.3     4  MET4        0.0692
      9  N          7.6380   -1.2130   29.2860 N.3     6  LYS6       -0.1245
     10  CA         6.5960   -2.2150   29.3820 C.3     6  LYS6        0.1561
     11  C          6.3930   -2.8690   27.9980 C.2     6  LYS6        0.2260
     12  O          6.3340   -2.1470   27.0150 O.2     6  LYS6       -0.2867
     13  CB         5.3120   -1.6160   29.8330 C.3     6  LYS6        0.0271
     14  CG         4.2620   -2.6990   30.2020 C.3     6  LYS6        0.0035
     15  CD         2.9880   -2.0360   30.8050 C.3     6  LYS6        0.0206
     16  CE         1.9670   -3.2200   31.1040 C.3     6  LYS6        0.1093
     17  NZ         1.0590   -2.6670   32.1990 N.3     6  LYS6       -0.1314
     18  N          4.2780   -5.8350   25.7120 N.3     8  LEU8       -0.1245
     19  CA         3.1080   -6.7060   25.5920 C.3     8  LEU8        0.1561
     20  C          3.2630   -7.6010   24.3380 C.2     8  LEU8        0.2260
     21  O          3.9490   -7.2540   23.3570 O.2     8  LEU8       -0.2867
     22  CB         1.8520   -5.8580   25.4040 C.3     8  LEU8        0.0270
     23  CG         1.6270   -4.9400   26.6290 C.3     8  LEU8        0.0019
     24  CD1        0.4910   -4.0880   26.2680 C.3     8  LEU8        0.0001
     25  CD2        1.2690   -5.8560   27.8400 C.3     8  LEU8        0.0001
     26  N          7.9250    6.4340   30.1170 N.3    97  THR97      -0.1218
     27  CA         7.4990    5.0410   30.0140 C.3    97  THR97       0.1862
     28  C          7.5300    4.6750   28.5420 C.2    97  THR97       0.2287
     29  O          6.8870    5.3540   27.7330 O.2    97  THR97      -0.2866
     30  CB         6.0860    4.8280   30.5590 C.3    97  THR97       0.1770
     31  OG1        6.0970    4.9910   31.9890 O.3    97  THR97      -0.2211
     32  CG2        5.6880    3.3460   30.3150 C.3    97  THR97       0.0375
     33  N          6.6160    1.8830   25.9650 N.3    99  ALA99      -0.1231
     34  CA         5.8040    0.7080   25.8380 C.3    99  ALA99       0.1694
     35  C          5.9960    0.1690   24.4310 C.2    99  ALA99       0.2592
     36  O          6.1110    0.9650   23.5010 O.2    99  ALA99      -0.2718
     37  CB         4.3740    1.0480   26.0060 C.3    99  ALA99       0.0304
     38  N          6.0800   -1.1450   24.3100 N.am  100  ALA100     -0.1966
     39  CA         6.1880   -1.8310   23.0030 C.3   100  ALA100      0.1728
     40  C          5.1500   -2.9480   22.9190 C.2   100  ALA100      0.2616
     41  O          4.9820   -3.7280   23.8700 O.2   100  ALA100     -0.2715
     42  CB         7.5480   -2.4580   22.8920 C.3   100  ALA100      0.0334
     43  N          4.5140   -3.0810   21.7620 N.am  101  LEU101     -0.1977
     44  CA         3.5340   -4.1450   21.5130 C.3   101  LEU101      0.1596
     45  C          4.1690   -4.9920   20.3830 C.2   101  LEU101      0.2287
     46  O          4.5210   -4.4670   19.3330 O.2   101  LEU101     -0.2864
     47  CB         2.2370   -3.4880   21.0450 C.3   101  LEU101      0.0297
     48  CG         1.0700   -4.4230   20.5880 C.3   101  LEU101      0.0022
     49  CD1        0.6800   -5.2950   21.8380 C.3   101  LEU101      0.0001
     50  CD2       -0.0160   -3.6100   20.0740 C.3   101  LEU101      0.0001
     51  N          4.9480   -1.9990   17.6350 N.3   108  SER108     -0.1202
     52  CA         4.5920   -0.6430   17.7870 C.3   108  SER108      0.2020
     53  C          5.2380   -0.1770   19.0950 C.2   108  SER108      0.2619
     54  O          5.4220   -1.0040   20.0560 O.2   108  SER108     -0.2717
     55  CB         3.0780   -0.5470   17.9680 C.3   108  SER108      0.2103
     56  OG         2.4130   -1.1730   16.8600 O.3   108  SER108     -0.2182
     57  N          5.6470    1.0640   19.1060 N.am  109  THR109     -0.1938
     58  CA         6.1810    1.6600   20.3530 C.3   109  THR109      0.2028
     59  C          5.5710    2.9810   20.6570 C.2   109  THR109      0.2642
     60  O          5.3280    3.7280   19.7630 O.2   109  THR109     -0.2714
     61  CB         7.7160    1.7170   20.4090 C.3   109  THR109      0.1808
     62  OG1        8.0780    2.2190   21.6600 O.3   109  THR109     -0.2208
     63  CG2        8.3980    2.5810   19.3250 C.3   109  THR109      0.0379
     64  N          5.2950    3.2560   21.9560 N.am  110  THR110     -0.1950
     65  CA         4.7770    4.5470   22.2580 C.3   110  THR110      0.1897
     66  C          5.5120    5.0550   23.5030 C.2   110  THR110      0.2313
     67  O          6.0650    4.2710   24.2270 O.2   110  THR110     -0.2863
     68  CB         3.2950    4.5320   22.4290 C.3   110  THR110      0.1794
     69  OG1        2.8430    5.8970   22.4600 O.3   110  THR110     -0.2208
     70  CG2        2.9330    3.9240   23.7270 C.3   110  THR110      0.0378
     71  N          5.0760    7.4960   26.9760 N.3   112  VAL112     -0.1245
     72  CA         4.2490    8.3300   27.8640 C.3   112  VAL112      0.1561
     73  C          5.2540    9.0950   28.6830 C.2   112  VAL112      0.2260
     74  O          6.0970    8.4710   29.3780 O.2   112  VAL112     -0.2867
     75  CB         3.3680    7.4680   28.7180 C.3   112  VAL112      0.0252
     76  CG1        2.4960    8.3280   29.6180 C.3   112  VAL112      0.0019
     77  CG2        2.5500    6.4640   27.8120 C.3   112  VAL112      0.0019
@<TRIPOS>BOND
     1    56    55    1
     2    51    52    1
     3    52    55    1
     4    52    53    1
     5    53    57   am
     6    53    54    2
     7    57    58    1
     8    63    61    1
     9    46    45    2
    10    60    59    2
    11    50    48    1
    12    58    61    1
    13    58    59    1
    14    45    44    1
    15    61    62    1
    16    48    47    1
    17    48    49    1
    18    59    64   am
    19    47    44    1
    20    44    43    1
    21    43    40   am
    22    64    65    1
    23    65    68    1
    24    65    66    1
    25    68    69    1
    26    68    70    1
    27    42    39    1
    28    40    39    1
    29    40    41    2
    30    39    38    1
    31    21    20    2
    32    36    35    2
    33    66    67    2
    34    38    35   am
    35    20    19    1
    36    35    34    1
    37    22    19    1
    38    22    23    1
    39    19    18    1
    40    34    33    1
    41    34    37    1
    42    24    23    1
    43    23    25    1
    44    71    72    1
    45    12    11    2
    46    29    28    2
    47    77    75    1
    48    72    73    1
    49    72    75    1
    50    11    10    1
    51    28    27    1
    52    73    74    2
    53    75    76    1
    54     9    10    1
    55    10    13    1
    56    13    14    1
    57    27    26    1
    58    27    30    1
    59    14    15    1
    60    32    30    1
    61     4     3    2
    62    30    31    1
    63    15    16    1
    64    16    17    1
    65     3     2    1
    66     1     2    1
    67     2     5    1
    68     7     8    1
    69     7     6    1
    70     5     6    1
