@<TRIPOS>MOLECULE
tmp/4ac7C00.pdb
 124 118 0 0 0
SMALL
GASTEIGER

@<TRIPOS>ATOM
      1  N         25.3050   80.2110   69.7650 N.3   137  HIS137     -0.1241
      2  CA        25.6250   78.9120   70.3390 C.3   137  HIS137      0.1621
      3  C         24.4070   78.2910   70.9680 C.2   137  HIS137      0.2264
      4  O         24.2970   78.1850   72.2090 O.2   137  HIS137     -0.2867
      5  CB        26.7800   79.0550   71.3410 C.3   137  HIS137      0.0745
      6  CG        27.4200   77.7450   71.7130 C.ar  137  HIS137      0.0817
      7  ND1       28.7390   77.6330   71.9880 N.ar  137  HIS137     -0.2268
      8  CD2       26.8790   76.4530   71.8360 C.ar  137  HIS137      0.1154
      9  CE1       29.0160   76.3480   72.2640 C.ar  137  HIS137      0.1986
     10  NE2       27.8840   75.6310   72.1890 N.ar  137  HIS137     -0.2212
     11  N         21.9140   74.9770   71.2280 N.3   139  HIS139     -0.1241
     12  CA        21.5780   73.5810   70.9940 C.3   139  HIS139      0.1621
     13  C         20.0730   73.4880   70.9440 C.2   139  HIS139      0.2264
     14  O         19.3960   73.8800   71.9010 O.2   139  HIS139     -0.2867
     15  CB        22.1090   72.6810   72.1010 C.3   139  HIS139      0.0745
     16  CG        23.6230   72.6430   72.1840 C.ar  139  HIS139      0.0817
     17  ND1       24.3390   71.5300   71.8700 N.ar  139  HIS139     -0.2268
     18  CD2       24.5350   73.6050   72.5670 C.ar  139  HIS139      0.1154
     19  CE1       25.6670   71.7870   72.0290 C.ar  139  HIS139      0.1986
     20  NE2       25.7950   73.0580   72.4560 N.ar  139  HIS139     -0.2212
     21  N         22.2660   67.0070   72.2850 N.3   169  LYS169     -0.1231
     22  CA        22.4660   67.3750   73.6750 C.3   169  LYS169      0.1693
     23  C         23.9480   67.6860   73.9250 C.2   169  LYS169      0.2591
     24  O         24.2680   68.4200   74.8460 O.2   169  LYS169     -0.2718
     25  CB        21.9270   66.2870   74.6070 C.3   169  LYS169      0.0285
     26  CG        20.4070   66.2230   74.6020 C.3   169  LYS169      0.0035
     27  CD        19.8190   65.3460   75.6950 C.3   169  LYS169      0.0206
     28  CE        20.1520   63.8780   75.5050 C.3   169  LYS169      0.1093
     29  NZ        19.5180   62.9990   76.5510 N.3   169  LYS169     -0.1314
     30  N         24.8330   67.1490   73.0830 N.am  170  ALA170     -0.1980
     31  CA        26.2690   67.3850   73.1760 C.3   170  ALA170      0.1597
     32  C         26.7630   68.4810   72.2330 C.2   170  ALA170      0.2287
     33  O         27.6840   69.2010   72.5840 O.2   170  ALA170     -0.2864
     34  CB        27.0220   66.0990   72.8800 C.3   170  ALA170      0.0319
     35  N         33.1700   69.7000   66.4420 N.3   221  HIS221     -0.1241
     36  CA        33.0460   69.3650   67.8660 C.3   221  HIS221      0.1621
     37  C         33.8800   68.1590   68.1940 C.2   221  HIS221      0.2264
     38  O         33.8350   67.1410   67.5030 O.2   221  HIS221     -0.2867
     39  CB        31.5950   69.0940   68.2140 C.3   221  HIS221      0.0745
     40  CG        31.3100   69.1630   69.6850 C.ar  221  HIS221      0.0817
     41  ND1       31.8170   68.2760   70.5690 N.ar  221  HIS221     -0.2268
     42  CD2       30.5730   70.0720   70.4160 C.ar  221  HIS221      0.1154
     43  CE1       31.4130   68.6120   71.8080 C.ar  221  HIS221      0.1986
     44  NE2       30.6660   69.7180   71.7190 N.ar  221  HIS221     -0.2212
     45  N         33.3580   65.8580   70.1890 N.3   223  ASP223     -0.1239
     46  CA        32.5570   64.6510   70.3770 C.3   223  ASP223      0.1674
     47  C         32.3390   63.8690   69.0610 C.2   223  ASP223      0.2266
     48  O         32.0220   62.6930   69.1030 O.2   223  ASP223     -0.2867
     49  CB        31.2070   64.9740   71.0140 C.3   223  ASP223      0.1410
     50  CG        31.2980   65.4130   72.4790 C.2   223  ASP223      0.3668
     51  OD1       32.3970   65.6130   73.0370 O.co2 223  ASP223     -0.2456
     52  OD2       30.2000   65.5550   73.0810 O.co2 223  ASP223     -0.2456
     53  N         34.6100   73.6200   68.7380 N.3   248  HIS248     -0.1241
     54  CA        34.8490   73.1180   70.0980 C.3   248  HIS248      0.1621
     55  C         35.9480   72.1080   69.9140 C.2   248  HIS248      0.2264
     56  O         35.7440   71.0110   69.3570 O.2   248  HIS248     -0.2867
     57  CB        33.5440   72.5290   70.6420 C.3   248  HIS248      0.0745
     58  CG        33.6640   71.7610   71.9480 C.ar  248  HIS248      0.0817
     59  ND1       32.6760   71.7970   72.9160 N.ar  248  HIS248     -0.2268
     60  CD2       34.6420   70.8680   72.4110 C.ar  248  HIS248      0.1154
     61  CE1       33.0450   70.9710   73.9290 C.ar  248  HIS248      0.1986
     62  NE2       34.2440   70.4180   73.6260 N.ar  248  HIS248     -0.2212
     63  N         33.1350   79.0640   73.3580 N.3   274  HIS274     -0.1241
     64  CA        33.5900   78.9630   74.7610 C.3   274  HIS274      0.1621
     65  C         35.0950   78.9790   74.8860 C.2   274  HIS274      0.2264
     66  O         35.7170   78.0350   75.3740 O.2   274  HIS274     -0.2867
     67  CB        32.9840   77.7700   75.5130 C.3   274  HIS274      0.0745
     68  CG        32.9210   76.4890   74.7220 C.ar  274  HIS274      0.0817
     69  ND1       34.0070   75.8410   74.2780 N.ar  274  HIS274     -0.2268
     70  CD2       31.8260   75.7490   74.3020 C.ar  274  HIS274      0.1154
     71  CE1       33.6420   74.7430   73.6010 C.ar  274  HIS274      0.1986
     72  NE2       32.3020   74.6690   73.6150 N.ar  274  HIS274     -0.2212
     73  N         33.8980   75.2910   78.9750 N.3   279  GLY279     -0.1225
     74  CA        32.9130   74.7190   78.0790 C.3   279  GLY279      0.1811
     75  C         33.4590   73.7820   77.0220 C.2   279  GLY279      0.2280
     76  O         32.6870   73.1600   76.2750 O.2   279  GLY279     -0.2866
     77  N         27.6530   65.2560   83.9020 N.3   321  CYS321     -0.1221
     78  CA        27.3980   65.1520   82.4660 C.3   321  CYS321      0.1808
     79  C         28.2410   64.1240   81.7090 C.2   321  CYS321      0.2601
     80  O         27.7890   63.5790   80.7120 O.2   321  CYS321     -0.2717
     81  CB        27.5900   66.5090   81.8270 C.3   321  CYS321      0.0970
     82  SG        26.3190   67.6430   82.3900 S.3   321  CYS321     -0.0800
     83  N         29.4640   63.8860   82.1720 N.am  322  HIS322     -0.1975
     84  CA        30.3630   62.9110   81.5480 C.3   322  HIS322      0.1656
     85  C         30.3690   61.5980   82.2940 C.2   322  HIS322      0.2291
     86  O         31.1790   60.7150   82.0010 O.2   322  HIS322     -0.2864
     87  CB        31.7710   63.5030   81.4610 C.3   322  HIS322      0.0771
     88  CG        31.9120   64.5640   80.4010 C.ar  322  HIS322      0.0820
     89  ND1       32.6370   64.3750   79.2770 N.ar  322  HIS322     -0.2267
     90  CD2       31.3720   65.8490   80.3120 C.ar  322  HIS322      0.1154
     91  CE1       32.5720   65.4830   78.5100 C.ar  322  HIS322      0.1986
     92  NE2       31.7890   66.3820   79.1390 N.ar  322  HIS322     -0.2212
     93  N         40.3950   70.9940   83.2520 N.3   338  ARG338     -0.1245
     94  CA        39.3890   71.6800   82.4310 C.3   338  ARG338      0.1563
     95  C         38.6990   72.8580   83.1090 C.2   338  ARG338      0.2260
     96  O         38.4040   73.8550   82.4450 O.2   338  ARG338     -0.2867
     97  CB        38.3530   70.6760   81.9240 C.3   338  ARG338      0.0307
     98  CG        37.2700   71.3510   81.0770 C.3   338  ARG338      0.0489
     99  CD        36.5590   70.4090   80.1380 C.3   338  ARG338      0.2205
    100  NE        35.2900   70.9930   79.7460 N.pl3 338  ARG338     -0.0865
    101  CZ        34.3740   70.4250   78.9770 C.cat 338  ARG338      0.5346
    102  NH1       34.5690   69.2400   78.4010 N.pl3 338  ARG338      0.1354
    103  NH2       33.2340   71.0650   78.8040 N.pl3 338  ARG338      0.1354
    104  N         25.1830   78.6270   74.8810 N.3   362  ASP362     -0.1239
    105  CA        25.3580   77.1700   75.0050 C.3   362  ASP362      0.1674
    106  C         24.0890   76.5490   75.5850 C.2   362  ASP362      0.2266
    107  O         24.1670   75.5540   76.3070 O.2   362  ASP362     -0.2867
    108  CB        26.6130   76.8040   75.8220 C.3   362  ASP362      0.1410
    109  CG        27.2920   75.5420   75.3660 C.2   362  ASP362      0.3668
    110  OD1       26.7050   74.7660   74.5740 O.co2 362  ASP362     -0.2456
    111  OD2       28.4910   75.3420   75.7560 O.co2 362  ASP362     -0.2456
    112  N         23.0960   72.7070   76.8400 N.3   365  ALA365     -0.1231
    113  CA        24.2360   71.7830   76.7360 C.3   365  ALA365      0.1694
    114  C         25.2740   72.0470   77.8260 C.2   365  ALA365      0.2591
    115  O         25.6940   71.1220   78.5330 O.2   365  ALA365     -0.2718
    116  CB        24.8430   71.8280   75.3320 C.3   365  ALA365      0.0304
    117  N         25.6300   73.3090   77.9990 N.am  366  MET366     -0.1979
    118  CA        26.3960   73.7840   79.1490 C.3   366  MET366      0.1605
    119  C         26.2280   75.3140   79.1920 C.2   366  MET366      0.2287
    120  O         27.1720   76.0910   79.0870 O.2   366  MET366     -0.2864
    121  CB        27.8630   73.3860   79.0500 C.3   366  MET366      0.0413
    122  CG        28.6200   73.5740   80.3300 C.3   366  MET366      0.0598
    123  SD        30.2250   72.7450   80.2220 S.3   366  MET366     -0.1393
    124  CE        30.9000   73.1450   81.8270 C.3   366  MET366      0.0692
@<TRIPOS>BOND
     1    35    36    1
     2    38    37    2
     3    36    37    1
     4    36    39    1
     5    39    40    1
     6    53    54    1
     7    47    48    2
     8    47    46    1
     9    56    55    2
    10    40    42   ar
    11    40    41   ar
    12     1     2    1
    13    55    54    1
    14    54    57    1
    15    45    46    1
    16     2     3    1
    17     2     5    1
    18    46    49    1
    19    42    44   ar
    20    41    43   ar
    21    57    58    1
    22    13    12    1
    23    13    14    2
    24     3     4    2
    25    12    11    1
    26    12    15    1
    27    49    50    1
    28     5     6    1
    29     6     8   ar
    30     6     7   ar
    31    44    43   ar
    32     8    10   ar
    33    17    19   ar
    34    17    16   ar
    35    58    60   ar
    36    58    59   ar
    37     7     9   ar
    38    19    20   ar
    39    15    16    1
    40    16    18   ar
    41    10     9   ar
    42    32    33    2
    43    32    31    1
    44    21    22    1
    45    60    62   ar
    46    20    18   ar
    47    50    51   ar
    48    50    52   ar
    49    34    31    1
    50    59    61   ar
    51    30    31    1
    52    30    23   am
    53    63    64    1
    54    71    72   ar
    55    71    69   ar
    56    72    70   ar
    57    62    61   ar
    58    22    23    1
    59    22    25    1
    60    23    24    2
    61    69    68   ar
    62    70    68   ar
    63   110   109   ar
    64    26    25    1
    65    26    27    1
    66    68    67    1
    67    64    65    1
    68    64    67    1
    69   104   105    1
    70    65    66    2
    71   105   106    1
    72   105   108    1
    73   116   113    1
    74   109   111   ar
    75   109   108    1
    76    28    27    1
    77    28    29    1
    78   106   107    2
    79    76    75    2
    80   113   112    1
    81   113   114    1
    82    75    74    1
    83   114   117   am
    84   114   115    2
    85   117   118    1
    86    74    73    1
    87   102   101    1
    88    91    92   ar
    89    91    89   ar
    90   103   101    1
    91   101   100    2
    92   121   118    1
    93   121   122    1
    94   120   119    2
    95    92    90   ar
    96   118   119    1
    97    89    88   ar
    98   100    99    1
    99    99    98    1
   100   123   122    1
   101   123   124    1
   102    90    88   ar
   103    88    87    1
   104    80    79    2
   105    98    97    1
   106    87    84    1
   107    84    83    1
   108    84    85    1
   109    79    83   am
   110    79    78    1
   111    81    82    1
   112    81    78    1
   113    97    94    1
   114    86    85    2
   115    94    95    1
   116    94    93    1
   117    96    95    2
   118    78    77    1
