@<TRIPOS>MOLECULE
tmp/4ac8A00.pdb
 212 204 0 0 0
SMALL
GASTEIGER

@<TRIPOS>ATOM
      1  N        -27.3810   46.1400   18.5520 N.3    55  TYR55      -0.1241
      2  CA       -26.8650   47.5200   18.4120 C.3    55  TYR55       0.1605
      3  C        -25.4190   47.6530   18.9000 C.2    55  TYR55       0.2264
      4  O        -24.5700   48.2070   18.2070 O.2    55  TYR55      -0.2867
      5  CB       -27.7580   48.5800   19.1060 C.3    55  TYR55       0.0534
      6  CG       -27.3660   49.9970   18.7150 C.ar   55  TYR55      -0.0201
      7  CD1      -27.9300   50.6110   17.5850 C.ar   55  TYR55      -0.0009
      8  CD2      -26.3930   50.7090   19.4330 C.ar   55  TYR55      -0.0009
      9  CE1      -27.5620   51.8940   17.1910 C.ar   55  TYR55       0.0417
     10  CE2      -26.0180   51.9970   19.0470 C.ar   55  TYR55       0.0417
     11  CZ       -26.6060   52.5870   17.9200 C.ar   55  TYR55       0.1957
     12  OH       -26.2360   53.8570   17.5060 O.3    55  TYR55      -0.2866
     13  N        -22.0580   48.5670   16.5520 N.3    59  LEU59      -0.1245
     14  CA       -21.2810   49.7610   16.8280 C.3    59  LEU59       0.1561
     15  C        -19.8410   49.3770   17.0880 C.2    59  LEU59       0.2260
     16  O        -18.9260   50.0840   16.6730 O.2    59  LEU59      -0.2867
     17  CB       -21.8740   50.5370   18.0150 C.3    59  LEU59       0.0270
     18  CG       -21.0290   51.6350   18.6820 C.3    59  LEU59       0.0019
     19  CD1      -20.7940   52.8470   17.7810 C.3    59  LEU59       0.0001
     20  CD2      -21.6850   52.0430   19.9890 C.3    59  LEU59       0.0001
     21  N        -18.1470   48.4520   13.7180 N.3    62  GLN62      -0.1231
     22  CA       -17.7190   49.6390   12.9980 C.3    62  GLN62       0.1698
     23  C        -16.4210   50.1850   13.5820 C.2    62  GLN62       0.2592
     24  O        -15.4950   50.5450   12.8430 O.2    62  GLN62      -0.2718
     25  CB       -18.8160   50.6990   13.0300 C.3    62  GLN62       0.0381
     26  CG       -19.9850   50.3690   12.1230 C.3    62  GLN62       0.0905
     27  CD       -21.2000   51.2260   12.3930 C.2    62  GLN62       0.2608
     28  OE1      -21.4080   52.2520   11.7440 O.2    62  GLN62      -0.2717
     29  NE2      -22.0130   50.8090   13.3650 N.am   62  GLN62      -0.0878
     30  N        -16.3510   50.2220   14.9100 N.am   63  PHE63      -0.1976
     31  CA       -15.1800   50.7470   15.5910 C.3    63  PHE63       0.1639
     32  C        -13.9170   49.9740   15.2480 C.2    63  PHE63       0.2290
     33  O        -12.8810   50.5670   14.9570 O.2    63  PHE63      -0.2864
     34  CB       -15.3930   50.7800   17.1110 C.3    63  PHE63       0.0560
     35  CG       -15.7240   52.1390   17.6380 C.ar   63  PHE63      -0.0200
     36  CD1      -14.7400   53.1050   17.7520 C.ar   63  PHE63      -0.0042
     37  CD2      -17.0250   52.4620   18.0030 C.ar   63  PHE63      -0.0042
     38  CE1      -15.0410   54.3760   18.2240 C.ar   63  PHE63      -0.0003
     39  CE2      -17.3330   53.7290   18.4850 C.ar   63  PHE63      -0.0003
     40  CZ       -16.3380   54.6870   18.5910 C.ar   63  PHE63      -0.0000
     41  N        -12.8750   50.2510   11.7520 N.3    66  GLY66      -0.1210
     42  CA       -12.3920   51.6140   11.6030 C.3    66  GLY66       0.1956
     43  C        -10.9840   51.7770   12.1380 C.2    66  GLY66       0.2611
     44  O        -10.1370   52.3930   11.4950 O.2    66  GLY66      -0.2717
     45  N        -10.7220   51.2260   13.3160 N.am   67  GLU67      -0.1979
     46  CA        -9.3970   51.3120   13.9220 C.3    67  GLU67       0.1602
     47  C         -8.3890   50.5500   13.0750 C.2    67  GLU67       0.2287
     48  O         -7.2690   51.0210   12.8770 O.2    67  GLU67      -0.2864
     49  CB        -9.4190   50.8000   15.3640 C.3    67  GLU67       0.0415
     50  CG       -10.3760   51.5590   16.2980 C.3    67  GLU67       0.1163
     51  CD        -9.8220   52.8850   16.8100 C.2    67  GLU67       0.3649
     52  OE1       -8.6980   53.2440   16.4350 O.co2  67  GLU67      -0.2457
     53  OE2      -10.5020   53.5830   17.6010 O.co2  67  GLU67      -0.2457
     54  N         -7.5340   52.6340    9.8080 N.3    70  VAL70      -0.1208
     55  CA        -6.6330   53.7700   10.0320 C.3    70  VAL70       0.1923
     56  C         -5.2050   53.3420   10.3880 C.2    70  VAL70       0.2297
     57  O         -4.2660   54.0820   10.1310 O.2    70  VAL70      -0.2866
     58  CB        -7.1880   54.8220   11.0440 C.3    70  VAL70       0.1565
     59  CG1       -8.6100   55.2270   10.6670 C.3    70  VAL70       0.0456
     60  CG2       -7.1600   54.3110   12.4740 C.3    70  VAL70       0.0456
     61  N         -3.0610   53.0530   16.8840 N.3   100  GLU100     -0.1245
     62  CA        -4.1980   52.5230   16.1540 C.3   100  GLU100      0.1567
     63  C         -4.2150   50.9820   16.0860 C.2   100  GLU100      0.2260
     64  O         -5.2950   50.3830   16.2180 O.2   100  GLU100     -0.2867
     65  CB        -4.2890   53.1630   14.7810 C.3   100  GLU100      0.0388
     66  CG        -4.2910   54.6900   14.8130 C.3   100  GLU100      0.1160
     67  CD        -5.5730   55.2920   15.3740 C.2   100  GLU100      0.3649
     68  OE1       -6.3470   54.5910   16.0490 O.co2 100  GLU100     -0.2457
     69  OE2       -5.8150   56.4900   15.1370 O.co2 100  GLU100     -0.2457
     70  N        -20.8650   53.2820    5.6050 N.3   130  TYR130     -0.1241
     71  CA       -19.6590   52.8150    6.2720 C.3   130  TYR130      0.1605
     72  C        -18.5440   52.4430    5.2980 C.2   130  TYR130      0.2264
     73  O        -17.3750   52.7880    5.5070 O.2   130  TYR130     -0.2867
     74  CB       -19.9370   51.6100    7.1720 C.3   130  TYR130      0.0534
     75  CG       -18.7250   51.3040    8.0180 C.ar  130  TYR130     -0.0201
     76  CD1      -18.5370   51.9400    9.2370 C.ar  130  TYR130     -0.0009
     77  CD2      -17.7310   50.4310    7.5630 C.ar  130  TYR130     -0.0009
     78  CE1      -17.4140   51.6910    9.9910 C.ar  130  TYR130      0.0417
     79  CE2      -16.6020   50.1780    8.3130 C.ar  130  TYR130      0.0417
     80  CZ       -16.4530   50.8110    9.5240 C.ar  130  TYR130      0.1957
     81  OH       -15.3390   50.5730   10.2870 O.3   130  TYR130     -0.2866
     82  N        -14.9020   54.0970    4.8770 N.3   134  PHE134     -0.1241
     83  CA       -13.7550   53.2780    5.3140 C.3   134  PHE134      0.1605
     84  C        -13.0870   52.3660    4.2800 C.2   134  PHE134      0.2264
     85  O        -11.8770   52.1760    4.3280 O.2   134  PHE134     -0.2867
     86  CB       -14.0810   52.5220    6.6050 C.3   134  PHE134      0.0534
     87  CG       -14.2290   53.4240    7.7830 C.ar  134  PHE134     -0.0203
     88  CD1      -13.1060   53.9480    8.4150 C.ar  134  PHE134     -0.0042
     89  CD2      -15.4810   53.8060    8.2240 C.ar  134  PHE134     -0.0042
     90  CE1      -13.2300   54.8180    9.4880 C.ar  134  PHE134     -0.0003
     91  CE2      -15.6140   54.6680    9.3020 C.ar  134  PHE134     -0.0003
     92  CZ       -14.4880   55.1760    9.9340 C.ar  134  PHE134     -0.0000
     93  N         -8.9810   61.7910    7.3820 N.3   161  TYR161     -0.1241
     94  CA        -8.5580   61.0340    8.5550 C.3   161  TYR161      0.1605
     95  C         -8.8510   61.7350    9.8990 C.2   161  TYR161      0.2264
     96  O         -9.6200   61.2350   10.7240 O.2   161  TYR161     -0.2867
     97  CB        -7.0690   60.6580    8.4530 C.3   161  TYR161      0.0534
     98  CG        -6.7640   59.3960    9.2090 C.ar  161  TYR161     -0.0201
     99  CD1       -6.8880   59.3500   10.6050 C.ar  161  TYR161     -0.0011
    100  CD2       -6.4030   58.2310    8.5400 C.ar  161  TYR161     -0.0011
    101  CE1       -6.6530   58.1860   11.3140 C.ar  161  TYR161      0.0366
    102  CE2       -6.1460   57.0620    9.2410 C.ar  161  TYR161      0.0366
    103  CZ        -6.2800   57.0440   10.6400 C.ar  161  TYR161      0.1383
    104  OH        -6.0640   55.8880   11.3750 O.3   161  TYR161     -0.4807
    105  N        -13.0450   61.3450   10.2710 N.3   165  VAL165     -0.1231
    106  CA       -13.0480   59.9820   10.8050 C.3   165  VAL165      0.1692
    107  C        -12.8380   59.9430   12.3290 C.2   165  VAL165      0.2591
    108  O        -13.5870   59.2900   13.0520 O.2   165  VAL165     -0.2718
    109  CB       -12.0180   59.1010   10.0530 C.3   165  VAL165      0.0266
    110  CG1      -11.4640   58.0000   10.9470 C.3   165  VAL165      0.0020
    111  CG2      -12.6270   58.5310    8.7790 C.3   165  VAL165      0.0020
    112  N        -11.8330   60.6660   12.8050 N.am  166  GLU166     -0.1979
    113  CA       -11.5690   60.7560   14.2420 C.3   166  GLU166      0.1602
    114  C        -12.4110   61.8590   14.8610 C.2   166  GLU166      0.2287
    115  O        -13.1910   61.6250   15.7800 O.2   166  GLU166     -0.2864
    116  CB       -10.0730   60.9880   14.5150 C.3   166  GLU166      0.0415
    117  CG        -9.1640   60.0050   13.7840 C.3   166  GLU166      0.1163
    118  CD        -7.6760   60.2670   13.9830 C.2   166  GLU166      0.3649
    119  OE1       -7.2320   61.4200   13.7380 O.co2 166  GLU166     -0.2457
    120  OE2       -6.9430   59.3090   14.3660 O.co2 166  GLU166     -0.2457
    121  N        -16.7450   61.1250   13.3940 N.3   169  LEU169     -0.1231
    122  CA       -17.3410   59.7910   13.5130 C.3   169  LEU169      0.1693
    123  C        -16.9520   59.0650   14.8080 C.2   169  LEU169      0.2591
    124  O        -17.8060   58.5050   15.4770 O.2   169  LEU169     -0.2718
    125  CB       -17.0300   58.9260   12.2870 C.3   169  LEU169      0.0284
    126  CG       -17.6530   59.2610   10.9200 C.3   169  LEU169      0.0019
    127  CD1      -17.2550   58.2170    9.8920 C.3   169  LEU169      0.0001
    128  CD2      -19.1690   59.3710   10.9690 C.3   169  LEU169      0.0001
    129  N        -15.6710   59.0840   15.1640 N.am  170  ALA170     -0.1980
    130  CA       -15.2270   58.4930   16.4260 C.3   170  ALA170      0.1597
    131  C        -15.7840   59.2710   17.6190 C.2   170  ALA170      0.2287
    132  O        -16.3220   58.6650   18.5600 O.2   170  ALA170     -0.2864
    133  CB       -13.7060   58.3880   16.4930 C.3   170  ALA170      0.0319
    134  N        -18.4890   61.0170   17.7890 N.3   172  THR172     -0.1203
    135  CA       -19.9080   60.6110   17.8640 C.3   172  THR172      0.1994
    136  C        -20.0770   59.1550   18.2880 C.2   172  THR172      0.2618
    137  O        -21.0840   58.7860   18.8920 O.2   172  THR172     -0.2717
    138  CB       -20.6540   60.8480   16.5350 C.3   172  THR172      0.1784
    139  OG1      -20.5910   62.2360   16.2030 O.3   172  THR172     -0.2211
    140  CG2      -22.1210   60.4330   16.6380 C.3   172  THR172      0.0376
    141  N        -19.0860   58.3300   17.9810 N.am  173  GLY173     -0.1942
    142  CA       -19.1110   56.9280   18.3860 C.3   173  GLY173      0.2014
    143  C        -18.8330   56.7180   19.8600 C.2   173  GLY173      0.2638
    144  O        -19.4020   55.8210   20.4660 O.2   173  GLY173     -0.2714
    145  N        -17.9340   57.5230   20.4240 N.am  174  TYR174     -0.1973
    146  CA       -17.6490   57.4950   21.8600 C.3   174  TYR174      0.1639
    147  C        -18.9070   57.8740   22.6580 C.2   174  TYR174      0.2290
    148  O        -19.2690   57.2330   23.6530 O.2   174  TYR174     -0.2864
    149  CB       -16.5110   58.4640   22.2040 C.3   174  TYR174      0.0560
    150  CG       -15.1890   58.1750   21.5170 C.ar  174  TYR174     -0.0198
    151  CD1      -14.8080   56.8750   21.2260 C.ar  174  TYR174     -0.0009
    152  CD2      -14.3020   59.2050   21.1900 C.ar  174  TYR174     -0.0009
    153  CE1      -13.6010   56.6090   20.6110 C.ar  174  TYR174      0.0417
    154  CE2      -13.0890   58.9430   20.5770 C.ar  174  TYR174      0.0417
    155  CZ       -12.7480   57.6410   20.2880 C.ar  174  TYR174      0.1957
    156  OH       -11.5500   57.3240   19.6680 O.3   174  TYR174     -0.2866
    157  N        -21.9170   57.4300   21.6960 N.3   176  ALA176     -0.1245
    158  CA       -22.8010   56.2660   21.7170 C.3   176  ALA176      0.1562
    159  C        -22.4310   55.3670   22.8760 C.2   176  ALA176      0.2260
    160  O        -23.3130   54.9620   23.6270 O.2   176  ALA176     -0.2867
    161  CB       -22.7780   55.5010   20.3970 C.3   176  ALA176      0.0290
    162  N         -6.6730   59.6830   20.9850 N.3   201  GLU201     -0.1245
    163  CA        -7.4060   60.3520   19.9120 C.3   201  GLU201      0.1567
    164  C         -7.3230   61.8790   19.9370 C.2   201  GLU201      0.2260
    165  O         -7.3910   62.5250   18.8900 O.2   201  GLU201     -0.2867
    166  CB        -8.8600   59.9010   19.9440 C.3   201  GLU201      0.0388
    167  CG        -9.3790   59.4390   18.5980 C.3   201  GLU201      0.1160
    168  CD        -8.3620   58.6090   17.8170 C.2   201  GLU201      0.3649
    169  OE1       -7.9740   57.5000   18.2550 O.co2 201  GLU201     -0.2457
    170  OE2       -7.9390   59.0710   16.7360 O.co2 201  GLU201     -0.2457
    171  N        -23.9570   57.8920    7.5980 N.3   240  LEU240     -0.1231
    172  CA       -23.6380   56.6840    8.3440 C.3   240  LEU240      0.1693
    173  C        -24.4600   56.6520    9.6170 C.2   240  LEU240      0.2591
    174  O        -25.0320   55.6200    9.9560 O.2   240  LEU240     -0.2718
    175  CB       -22.1520   56.6210    8.6910 C.3   240  LEU240      0.0284
    176  CG       -21.4880   55.2670    8.9770 C.3   240  LEU240      0.0019
    177  CD1      -20.0330   55.4730    9.3690 C.3   240  LEU240      0.0001
    178  CD2      -22.2090   54.4800   10.0560 C.3   240  LEU240      0.0001
    179  N        -24.5080   57.7780   10.3240 N.am  241  ILE241     -0.1980
    180  CA       -25.3490   57.8840   11.5060 C.3   241  ILE241      0.1595
    181  C        -26.7990   57.5160   11.1670 C.2   241  ILE241      0.2287
    182  O        -27.3960   56.6730   11.8420 O.2   241  ILE241     -0.2864
    183  CB       -25.2650   59.2820   12.1670 C.3   241  ILE241      0.0276
    184  CG1      -23.8220   59.6110   12.5580 C.3   241  ILE241      0.0022
    185  CG2      -26.1680   59.3720   13.3950 C.3   241  ILE241      0.0022
    186  CD1      -23.7010   60.9110   13.3240 C.3   241  ILE241      0.0001
    187  N        -27.3020   53.8010   10.2900 N.3   244  GLY244     -0.1210
    188  CA       -27.2440   53.0270   11.5200 C.3   244  GLY244      0.1956
    189  C        -28.6000   52.9910   12.1890 C.2   244  GLY244      0.2611
    190  O        -29.0990   51.9150   12.5330 O.2   244  GLY244     -0.2717
    191  N        -29.1980   54.1740   12.3390 N.am  245  PHE245     -0.1976
    192  CA       -30.5090   54.3460   12.9660 C.3   245  PHE245      0.1639
    193  C        -31.6660   53.7610   12.1700 C.2   245  PHE245      0.2290
    194  O        -32.6210   53.2510   12.7560 O.2   245  PHE245     -0.2864
    195  CB       -30.7750   55.8300   13.2270 C.3   245  PHE245      0.0560
    196  CG       -30.1450   56.3390   14.4830 C.ar  245  PHE245     -0.0200
    197  CD1      -28.8110   56.7340   14.4960 C.ar  245  PHE245     -0.0042
    198  CD2      -30.8830   56.4100   15.6610 C.ar  245  PHE245     -0.0042
    199  CE1      -28.2260   57.1930   15.6550 C.ar  245  PHE245     -0.0003
    200  CE2      -30.3030   56.8690   16.8270 C.ar  245  PHE245     -0.0003
    201  CZ       -28.9690   57.2580   16.8230 C.ar  245  PHE245     -0.0000
    202  N        -28.1520   62.5290   18.1130 N.3   261  PHE261     -0.1241
    203  CA       -26.9220   62.1010   17.4370 C.3   261  PHE261      0.1605
    204  C        -26.5750   62.9400   16.2200 C.2   261  PHE261      0.2264
    205  O        -25.4070   63.2500   16.0130 O.2   261  PHE261     -0.2867
    206  CB       -26.9840   60.6200   17.0510 C.3   261  PHE261      0.0534
    207  CG       -26.4410   59.7070   18.1050 C.ar  261  PHE261     -0.0203
    208  CD1      -27.1600   59.4670   19.2770 C.ar  261  PHE261     -0.0042
    209  CD2      -25.2100   59.0980   17.9420 C.ar  261  PHE261     -0.0042
    210  CE1      -26.6590   58.6300   20.2650 C.ar  261  PHE261     -0.0003
    211  CE2      -24.7060   58.2610   18.9250 C.ar  261  PHE261     -0.0003
    212  CZ       -25.4290   58.0320   20.0900 C.ar  261  PHE261     -0.0000
@<TRIPOS>BOND
     1    84    85    2
     2    84    83    1
     3    82    83    1
     4    72    73    2
     5    72    71    1
     6    83    86    1
     7    70    71    1
     8    71    74    1
     9    86    87    1
    10    74    75    1
    11    93    94    1
    12    77    75   ar
    13    77    79   ar
    14   171   172    1
    15    87    89   ar
    16    87    88   ar
    17    75    76   ar
    18    89    91   ar
    19    79    80   ar
    20   172   175    1
    21   172   173    1
    22    88    90   ar
    23    97    94    1
    24    97    98    1
    25   100    98   ar
    26   100   102   ar
    27    94    95    1
    28   175   176    1
    29   111   109    1
    30   176   177    1
    31   176   178    1
    32    98    99   ar
    33    76    78   ar
    34   102   103   ar
    35    91    92   ar
    36    90    92   ar
    37    80    78   ar
    38    80    81    1
    39   173   174    2
    40   173   179   am
    41    54    55    1
    42   127   126    1
    43    95    96    2
    44    55    56    1
    45    55    58    1
    46   109   106    1
    47   109   110    1
    48    57    56    2
    49   105   106    1
    50   187   188    1
    51   179   180    1
    52    99   101   ar
    53   103   101   ar
    54   103   104    1
    55    59    58    1
    56   106   107    1
    57   126   128    1
    58   126   125    1
    59    58   104    1
    60    58    60    1
    61   181   180    1
    62   181   182    2
    63    44    43    2
    64   180   183    1
    65   188   189    1
    66    42    41    1
    67    42    43    1
    68    28    27    2
    69    26    27    1
    70    26    25    1
    71    43    45   am
    72   183   184    1
    73   183   185    1
    74   193   194    2
    75   193   192    1
    76   189   191   am
    77   189   190    2
    78   125   122    1
    79   107   112   am
    80   107   108    2
    81   191   192    1
    82    27    29   am
    83   184   186    1
    84   112   113    1
    85    24    23    2
    86    48    47    2
    87   192   195    1
    88    22    25    1
    89    22    23    1
    90    22    21    1
    91    47    46    1
    92   195   196    1
    93    45    46    1
    94   121   122    1
    95   122   123    1
    96    23    30   am
    97   119   118   ar
    98   117   118    1
    99   117   116    1
   100    46    49    1
   101   118   120   ar
   102   113   116    1
   103   113   114    1
   104   196   197   ar
   105   196   198   ar
   106   197   199   ar
   107    65    66    1
   108    65    62    1
   109   123   129   am
   110   123   124    2
   111    66    67    1
   112   114   115    2
   113    30    31    1
   114    33    32    2
   115    69    67   ar
   116   129   130    1
   117    32    31    1
   118    49    50    1
   119    67    68   ar
   120    31    34    1
   121   199   201   ar
   122   198   200   ar
   123   205   204    2
   124    63    62    1
   125    63    64    2
   126    62    61    1
   127   139   138    1
   128   204   203    1
   129    50    51    1
   130   130   133    1
   131   130   131    1
   132    52    51   ar
   133   138   140    1
   134   138   135    1
   135    13    14    1
   136    16    15    2
   137   170   168   ar
   138    51    53   ar
   139   201   200   ar
   140    14    15    1
   141    14    17    1
   142   206   203    1
   143   206   207    1
   144    34    35    1
   145     9     7   ar
   146     9    11   ar
   147   203   202    1
   148    12    11    1
   149     7     6   ar
   150   131   132    2
   151    35    36   ar
   152    35    37   ar
   153    36    38   ar
   154    19    18    1
   155   134   135    1
   156   168   169   ar
   157   168   167    1
   158   135   136    1
   159    11    10   ar
   160   209   207   ar
   161   209   211   ar
   162   141   136   am
   163   141   142    1
   164    37    39   ar
   165    17    18    1
   166   207   208   ar
   167     4     3    2
   168    38    40   ar
   169   136   137    2
   170   142   143    1
   171     2     1    1
   172     2     3    1
   173     2     5    1
   174    39    40   ar
   175   167   166    1
   176    18    20    1
   177     6     5    1
   178     6     8   ar
   179   165   164    2
   180   211   212   ar
   181    10     8   ar
   182   208   210   ar
   183   156   155    1
   184   143   145   am
   185   143   144    2
   186   163   164    1
   187   163   166    1
   188   163   162    1
   189   212   210   ar
   190   155   154   ar
   191   155   153   ar
   192   161   158    1
   193   145   146    1
   194   154   152   ar
   195   153   151   ar
   196   152   150   ar
   197   151   150   ar
   198   150   149    1
   199   157   158    1
   200   158   159    1
   201   146   149    1
   202   146   147    1
   203   147   148    2
   204   159   160    2
