@<TRIPOS>MOLECULE
tmp/4ac9C03.pdb
 69 64 0 0 0
SMALL
GASTEIGER

@<TRIPOS>ATOM
      1  N         57.2060  -57.4580   25.9100 N.3   124  SER124     -0.1202
      2  CA        56.0770  -57.1700   26.7850 C.3   124  SER124      0.2020
      3  C         54.7960  -57.7830   26.2310 C.2   124  SER124      0.2618
      4  O         53.8210  -57.9670   26.9570 O.2   124  SER124     -0.2717
      5  CB        55.9100  -55.6600   26.9620 C.3   124  SER124      0.2103
      6  OG        57.0760  -55.0820   27.5230 O.3   124  SER124     -0.2182
      7  N         54.8100  -58.1020   24.9410 N.am  125  ASP125     -0.1973
      8  CA        53.6750  -58.7470   24.2920 C.3   125  ASP125      0.1709
      9  C         53.5560  -60.2130   24.6980 C.2   125  ASP125      0.2293
     10  O         52.5020  -60.8270   24.5370 O.2   125  ASP125     -0.2864
     11  CB        53.7930  -58.6270   22.7700 C.3   125  ASP125      0.1436
     12  CG        55.0370  -59.3040   22.2230 C.2   125  ASP125      0.3671
     13  OD1       56.0960  -58.6420   22.1490 O.co2 125  ASP125     -0.2456
     14  OD2       54.9560  -60.4970   21.8610 O.co2 125  ASP125     -0.2456
     15  N         54.2390  -61.2740   27.8510 N.3   127  ALA127     -0.1231
     16  CA        54.0970  -61.3550   29.3020 C.3   127  ALA127      0.1694
     17  C         52.7570  -60.8340   29.8100 C.2   127  ALA127      0.2593
     18  O         52.1440  -59.9600   29.1980 O.2   127  ALA127     -0.2718
     19  CB        55.2370  -60.6180   29.9840 C.3   127  ALA127      0.0304
     20  N         52.3150  -61.3780   30.9400 N.am  128  GLY128     -0.1942
     21  CA        51.1140  -60.9050   31.6010 C.3   128  GLY128      0.2014
     22  C         51.4020  -59.6340   32.3750 C.2   128  GLY128      0.2639
     23  O         52.5430  -59.1800   32.4250 O.2   128  GLY128     -0.2714
     24  N         50.3680  -59.0630   32.9840 N.am  129  THR129     -0.1950
     25  CA        50.4990  -57.7990   33.7040 C.3   129  THR129      0.1897
     26  C         51.4900  -57.8840   34.8690 C.2   129  THR129      0.2313
     27  O         52.4180  -57.0710   34.9820 O.2   129  THR129     -0.2863
     28  CB        49.1350  -57.3280   34.2450 C.3   129  THR129      0.1794
     29  OG1       48.1400  -57.4530   33.2200 O.3   129  THR129     -0.2208
     30  CG2       49.2130  -55.8820   34.7000 C.3   129  THR129      0.0378
     31  N         55.3140  -58.3020   33.9380 N.3   132  ILE132     -0.1245
     32  CA        55.9190  -57.0270   33.5690 C.3   132  ILE132      0.1561
     33  C         56.1450  -56.1630   34.8060 C.2   132  ILE132      0.2260
     34  O         57.2280  -55.5940   34.9880 O.2   132  ILE132     -0.2867
     35  CB        55.0410  -56.2520   32.5660 C.3   132  ILE132      0.0252
     36  CG1       54.6690  -57.1420   31.3810 C.3   132  ILE132      0.0019
     37  CG2       55.7600  -55.0010   32.0840 C.3   132  ILE132      0.0019
     38  CD1       53.6620  -56.5150   30.4430 C.3   132  ILE132      0.0001
     39  N         58.8830  -50.3240   29.2770 N.3   156  PRO156     -0.2116
     40  CA        58.4820  -51.5850   28.6490 C.3   156  PRO156      0.1372
     41  C         58.1760  -51.3630   27.1720 C.2   156  PRO156      0.2244
     42  O         57.5490  -50.3630   26.8200 O.2   156  PRO156     -0.2868
     43  CB        57.2050  -51.9550   29.4040 C.3   156  PRO156      0.0268
     44  CG        56.6410  -50.6470   29.8430 C.3   156  PRO156      0.0207
     45  CD        57.8240  -49.7640   30.1350 C.3   156  PRO156      0.0892
     46  N         57.2500  -53.6120   23.2550 N.3   158  SER158     -0.1217
     47  CA        57.1470  -54.8030   22.4410 C.3   158  SER158      0.1889
     48  C         57.6900  -54.4200   21.0860 C.2   158  SER158      0.2288
     49  O         57.1010  -53.5860   20.4000 O.2   158  SER158     -0.2866
     50  CB        55.6960  -55.2580   22.3040 C.3   158  SER158      0.2089
     51  OG        55.5850  -56.2990   21.3460 O.3   158  SER158     -0.2183
     52  N         54.9950  -55.8060   18.4920 N.3   161  THR161     -0.1218
     53  CA        53.8300  -54.9470   18.3150 C.3   161  THR161      0.1862
     54  C         54.2690  -53.5630   17.8600 C.2   161  THR161      0.2287
     55  O         53.6490  -52.9500   16.9900 O.2   161  THR161     -0.2866
     56  CB        53.0060  -54.8310   19.6150 C.3   161  THR161      0.1770
     57  OG1       52.1420  -55.9670   19.7350 O.3   161  THR161     -0.2211
     58  CG2       52.1590  -53.5630   19.6120 C.3   161  THR161      0.0375
     59  N         54.8090  -51.3950   20.3030 N.3   163  PHE163     -0.1241
     60  CA        54.4280  -50.6850   21.5140 C.3   163  PHE163      0.1605
     61  C         55.6550  -50.1530   22.2490 C.2   163  PHE163      0.2264
     62  O         56.6210  -50.8830   22.4660 O.2   163  PHE163     -0.2867
     63  CB        53.6310  -51.6300   22.4190 C.3   163  PHE163      0.0534
     64  CG        53.4020  -51.1060   23.8070 C.ar  163  PHE163     -0.0203
     65  CD1       52.3360  -50.2660   24.0770 C.ar  163  PHE163     -0.0042
     66  CD2       54.2400  -51.4750   24.8480 C.ar  163  PHE163     -0.0042
     67  CE1       52.1190  -49.7900   25.3540 C.ar  163  PHE163     -0.0003
     68  CE2       54.0290  -51.0000   26.1260 C.ar  163  PHE163     -0.0003
     69  CZ        52.9660  -50.1580   26.3810 C.ar  163  PHE163     -0.0000
@<TRIPOS>BOND
     1    55    54    2
     2    54    53    1
     3    53    52    1
     4    53    56    1
     5    58    56    1
     6    56    57    1
     7    59    60    1
     8    49    48    2
     9    48    47    1
    10    51    50    1
    11    60    61    1
    12    60    63    1
    13    14    12   ar
    14    13    12   ar
    15    12    11    1
    16    61    62    2
    17    50    47    1
    18    63    64    1
    19    47    46    1
    20    11     8    1
    21    64    65   ar
    22    64    66   ar
    23    65    67   ar
    24     8     9    1
    25     8     7    1
    26    10     9    2
    27    66    68   ar
    28     7     3   am
    29    67    69   ar
    30     1     2    1
    31    68    69   ar
    32     3     2    1
    33     3     4    2
    34     2     5    1
    35    42    41    2
    36     5     6    1
    37    41    40    1
    38    15    16    1
    39    40    39    1
    40    40    43    1
    41    18    17    2
    42    39    45    1
    43    16    17    1
    44    16    19    1
    45    43    44    1
    46    17    20   am
    47    44    45    1
    48    38    36    1
    49    20    21    1
    50    36    35    1
    51    21    22    1
    52    37    35    1
    53    22    23    2
    54    22    24   am
    55    35    32    1
    56    24    25    1
    57    29    28    1
    58    32    31    1
    59    32    33    1
    60    25    28    1
    61    25    26    1
    62    28    30    1
    63    33    34    2
    64    26    27    2
