@<TRIPOS>MOLECULE
tmp/4ac9C00.pdb
 124 121 0 0 0
SMALL
GASTEIGER

@<TRIPOS>ATOM
      1  N         71.1300  -59.7320   28.7310 N.3    16  HIS16      -0.1226
      2  CA        71.3570  -61.1580   28.5680 C.3    16  HIS16       0.1752
      3  C         71.0400  -61.5190   27.1250 C.2    16  HIS16       0.2596
      4  O         70.1800  -60.8960   26.5040 O.2    16  HIS16      -0.2718
      5  CB        70.4610  -61.9490   29.5240 C.3    16  HIS16       0.0759
      6  CG        70.6700  -63.4300   29.4650 C.ar   16  HIS16       0.0818
      7  ND1       71.9150  -64.0120   29.5740 N.ar   16  HIS16      -0.2268
      8  CD2       69.7910  -64.4490   29.3170 C.ar   16  HIS16       0.1154
      9  CE1       71.7940  -65.3240   29.4900 C.ar   16  HIS16       0.1986
     10  NE2       70.5150  -65.6160   29.3340 N.ar   16  HIS16      -0.2212
     11  N         71.7450  -62.5040   26.5790 N.am   17  ILE17      -0.1966
     12  CA        71.4350  -62.9800   25.2380 C.3    17  ILE17       0.1727
     13  C         70.0380  -63.5890   25.2640 C.2    17  ILE17       0.2616
     14  O         69.5820  -64.0350   26.3180 O.2    17  ILE17      -0.2715
     15  CB        72.4620  -64.0100   24.7330 C.3    17  ILE17       0.0290
     16  CG1       73.5650  -64.2260   25.7710 C.3    17  ILE17       0.0022
     17  CG2       73.0630  -63.5520   23.4110 C.3    17  ILE17       0.0023
     18  CD1       74.6590  -65.1680   25.3110 C.3    17  ILE17       0.0001
     19  N         69.3660  -63.5740   24.1120 N.am   18  ASP18      -0.1957
     20  CA        67.9780  -64.0360   23.9680 C.3    18  ASP18       0.1840
     21  C         66.9500  -63.0340   24.5040 C.2    18  ASP18       0.2622
     22  O         65.7470  -63.2750   24.4290 O.2    18  ASP18      -0.2715
     23  CB        67.7520  -65.4300   24.5760 C.3    18  ASP18       0.1450
     24  CG        68.6590  -66.4850   23.9740 C.2    18  ASP18       0.3671
     25  OD1       69.8590  -66.5110   24.3230 O.co2  18  ASP18      -0.2456
     26  OD2       68.1720  -67.2900   23.1530 O.co2  18  ASP18      -0.2456
     27  N         67.4260  -61.9200   25.0540 N.am   19  HIS19      -0.1959
     28  CA        66.5350  -60.9110   25.6280 C.3    19  HIS19       0.1787
     29  C         66.1140  -59.7940   24.6670 C.2    19  HIS19       0.2621
     30  O         65.4680  -58.8330   25.0810 O.2    19  HIS19      -0.2715
     31  CB        67.1120  -60.3270   26.9200 C.3    19  HIS19       0.0785
     32  CG        66.8770  -61.1860   28.1230 C.ar   19  HIS19       0.0821
     33  ND1       66.5900  -60.6650   29.3660 N.ar   19  HIS19      -0.2267
     34  CD2       66.8800  -62.5320   28.2710 C.ar   19  HIS19       0.1154
     35  CE1       66.4280  -61.6530   30.2280 C.ar   19  HIS19       0.1986
     36  NE2       66.5980  -62.7960   29.5890 N.ar   19  HIS19      -0.2212
     37  N         66.4860  -59.9120   23.3960 N.am   20  GLY20      -0.1940
     38  CA        65.9950  -58.9860   22.3890 C.3    20  GLY20       0.2014
     39  C         66.9110  -57.8420   21.9930 C.2    20  GLY20       0.2639
     40  O         66.4450  -56.8440   21.4400 O.2    20  GLY20      -0.2714
     41  N         68.2030  -57.9700   22.2840 N.am   21  LYS21      -0.1963
     42  CA        69.1810  -56.9610   21.8780 C.3    21  LYS21       0.1728
     43  C         69.1570  -56.7320   20.3700 C.2    21  LYS21       0.2617
     44  O         69.0110  -55.6020   19.9040 O.2    21  LYS21      -0.2715
     45  CB        70.5960  -57.3630   22.3010 C.3    21  LYS21       0.0311
     46  CG        70.8270  -57.4130   23.7980 C.3    21  LYS21       0.0038
     47  CD        72.3130  -57.4760   24.1160 C.3    21  LYS21       0.0206
     48  CE        72.9820  -58.6590   23.4350 C.3    21  LYS21       0.1093
     49  NZ        72.4610  -59.9590   23.9370 N.3    21  LYS21      -0.1314
     50  N         69.3030  -57.8170   19.6150 N.am   22  THR22      -0.1937
     51  CA        69.3530  -57.7500   18.1590 C.3    22  THR22       0.2028
     52  C         68.0490  -57.2280   17.5640 C.2    22  THR22       0.2642
     53  O         68.0620  -56.4200   16.6390 O.2    22  THR22      -0.2714
     54  CB        69.6890  -59.1260   17.5480 C.3    22  THR22       0.1808
     55  OG1       71.0410  -59.4690   17.8680 O.3    22  THR22      -0.2208
     56  CG2       69.5330  -59.1030   16.0380 C.3    22  THR22       0.0379
     57  N         66.9270  -57.6910   18.1040 N.am   23  THR23      -0.1950
     58  CA        65.6190  -57.2660   17.6240 C.3    23  THR23       0.1897
     59  C         65.4190  -55.7690   17.8490 C.2    23  THR23       0.2313
     60  O         64.9330  -55.0600   16.9670 O.2    23  THR23      -0.2863
     61  CB        64.4890  -58.0470   18.3140 C.3    23  THR23       0.1794
     62  OG1       64.6950  -59.4540   18.1310 O.3    23  THR23      -0.2208
     63  CG2       63.1480  -57.6630   17.7300 C.3    23  THR23       0.0378
     64  N         56.6680  -53.0140   14.4270 N.3    39  LYS39      -0.1245
     65  CA        57.7690  -53.8530   13.9490 C.3    39  LYS39       0.1561
     66  C         57.5010  -54.2900   12.5240 C.2    39  LYS39       0.2260
     67  O         56.3830  -54.1510   12.0270 O.2    39  LYS39      -0.2867
     68  CB        57.9520  -55.0870   14.8290 C.3    39  LYS39       0.0271
     69  CG        59.2680  -55.8260   14.6420 C.3    39  LYS39       0.0035
     70  CD        59.2430  -57.1540   15.3720 C.3    39  LYS39       0.0206
     71  CE        60.5600  -57.9060   15.2560 C.3    39  LYS39       0.1093
     72  NZ        60.6060  -59.1070   16.1540 N.3    39  LYS39      -0.1314
     73  N         61.8510  -55.8080   27.1440 N.3   122  THR122     -0.1203
     74  CA        61.5060  -56.4380   25.8740 C.3   122  THR122      0.1994
     75  C         60.4300  -57.5120   25.9820 C.2   122  THR122      0.2617
     76  O         60.2050  -58.0740   27.0540 O.2   122  THR122     -0.2717
     77  CB        62.7460  -57.0360   25.1930 C.3   122  THR122      0.1784
     78  OG1       63.1960  -58.1790   25.9310 O.3   122  THR122     -0.2211
     79  CG2       63.8560  -56.0030   25.1290 C.3   122  THR122      0.0376
     80  N         59.7650  -57.7740   24.8590 N.am  123  LYS123     -0.1979
     81  CA        58.8000  -58.8640   24.7450 C.3   123  LYS123      0.1596
     82  C         57.6380  -58.7000   25.7150 C.2   123  LYS123      0.2287
     83  O         57.1440  -59.6790   26.2740 O.2   123  LYS123     -0.2864
     84  CB        59.4790  -60.2180   24.9650 C.3   123  LYS123      0.0298
     85  CG        60.7320  -60.4330   24.1370 C.3   123  LYS123      0.0038
     86  CD        61.4240  -61.7260   24.5270 C.3   123  LYS123      0.0206
     87  CE        62.7550  -61.8780   23.8130 C.3   123  LYS123      0.1093
     88  NZ        63.4630  -63.1130   24.2450 N.3   123  LYS123     -0.1314
     89  N         54.8100  -58.1020   24.9410 N.3   125  ASP125     -0.1225
     90  CA        53.6750  -58.7470   24.2920 C.3   125  ASP125      0.1805
     91  C         53.5560  -60.2130   24.6980 C.2   125  ASP125      0.2597
     92  O         52.5020  -60.8270   24.5370 O.2   125  ASP125     -0.2718
     93  CB        53.7930  -58.6270   22.7700 C.3   125  ASP125      0.1424
     94  CG        55.0370  -59.3040   22.2230 C.2   125  ASP125      0.3668
     95  OD1       56.0960  -58.6420   22.1490 O.co2 125  ASP125     -0.2456
     96  OD2       54.9560  -60.4970   21.8610 O.co2 125  ASP125     -0.2456
     97  N         54.6440  -60.7700   25.2200 N.am  126  ASN126     -0.1974
     98  CA        54.6700  -62.1710   25.6250 C.3   126  ASN126      0.1688
     99  C         54.4010  -62.3720   27.1190 C.2   126  ASN126      0.2292
    100  O         54.3300  -63.5030   27.5990 O.2   126  ASN126     -0.2864
    101  CB        56.0120  -62.8020   25.2410 C.3   126  ASN126      0.1181
    102  CG        55.9890  -64.3160   25.3140 C.2   126  ASN126      0.2629
    103  OD1       54.9320  -64.9380   25.2150 O.2   126  ASN126     -0.2716
    104  ND2       57.1600  -64.9170   25.4910 N.am  126  ASN126     -0.0877
    105  N         57.2500  -53.6120   23.2550 N.3   158  SER158     -0.1202
    106  CA        57.1470  -54.8030   22.4410 C.3   158  SER158      0.2020
    107  C         57.6900  -54.4200   21.0860 C.2   158  SER158      0.2619
    108  O         57.1010  -53.5860   20.4000 O.2   158  SER158     -0.2717
    109  CB        55.6960  -55.2580   22.3040 C.3   158  SER158      0.2103
    110  OG        55.5850  -56.2990   21.3460 O.3   158  SER158     -0.2182
    111  N         58.8270  -54.9950   20.7110 N.am  159  ALA159     -0.1965
    112  CA        59.3450  -54.7780   19.3710 C.3   159  ALA159      0.1728
    113  C         58.2770  -55.2690   18.4170 C.2   159  ALA159      0.2616
    114  O         57.8060  -54.5140   17.5730 O.2   159  ALA159     -0.2715
    115  CB        60.6480  -55.5350   19.1510 C.3   159  ALA159      0.0334
    116  N         57.8600  -56.5200   18.6080 N.am  160  LYS160     -0.1977
    117  CA        56.8700  -57.1730   17.7450 C.3   160  LYS160      0.1596
    118  C         55.6200  -56.3380   17.4490 C.2   160  LYS160      0.2287
    119  O         55.2330  -56.1760   16.2900 O.2   160  LYS160     -0.2864
    120  CB        56.4650  -58.5380   18.3140 C.3   160  LYS160      0.0298
    121  CG        55.3450  -59.2120   17.5310 C.3   160  LYS160      0.0038
    122  CD        55.1980  -60.6740   17.9010 C.3   160  LYS160      0.0206
    123  CE        54.0830  -61.3180   17.1020 C.3   160  LYS160      0.1093
    124  NZ        53.9970  -62.7850   17.3180 N.3   160  LYS160     -0.1314
@<TRIPOS>BOND
     1    67    66    2
     2    66    65    1
     3    65    64    1
     4    65    68    1
     5    69    68    1
     6    69    70    1
     7    71    70    1
     8    71    72    1
     9    56    54    1
    10   119   118    2
    11    53    52    2
    12    60    59    2
    13   123   124    1
    14   123   122    1
    15   118   117    1
    16   121   122    1
    17   121   120    1
    18    54    55    1
    19    54    51    1
    20    52    57   am
    21    52    51    1
    22   114   113    2
    23    58    59    1
    24    58    57    1
    25    58    61    1
    26    63    61    1
    27   117   120    1
    28   117   116    1
    29    62    61    1
    30    51    50    1
    31   113   116   am
    32   113   112    1
    33   115   112    1
    34   112   111    1
    35    50    43   am
    36    44    43    2
    37    43    42    1
    38   108   107    2
    39   111   107   am
    40   107   106    1
    41   110   109    1
    42    40    39    2
    43    96    94   ar
    44    42    41    1
    45    42    45    1
    46    39    41   am
    47    39    38    1
    48    95    94   ar
    49    94    93    1
    50    45    46    1
    51   109   106    1
    52    38    37    1
    53   106   105    1
    54    93    90    1
    55    26    24   ar
    56    37    29   am
    57    17    15    1
    58    48    49    1
    59    48    47    1
    60    46    47    1
    61    87    88    1
    62    87    86    1
    63    20    19    1
    64    20    21    1
    65    20    23    1
    66    24    25   ar
    67    24    23    1
    68    19    13   am
    69    85    86    1
    70    85    84    1
    71    90    91    1
    72    90    89    1
    73    22    21    2
    74    21    27   am
    75    92    91    2
    76    29    30    2
    77    29    28    1
    78    91    97   am
    79    15    12    1
    80    15    16    1
    81    81    80    1
    82    81    84    1
    83    81    82    1
    84    80    75   am
    85    27    28    1
    86    79    77    1
    87    77    74    1
    88    77    78    1
    89   103   102    2
    90    97    98    1
    91    12    13    1
    92    12    11    1
    93   101   102    1
    94   101    98    1
    95    13    14    2
    96    18    16    1
    97   102   104   am
    98    98    99    1
    99    28    31    1
   100    82    83    2
   101    74    75    1
   102    74    73    1
   103    75    76    2
   104     4     3    2
   105    11     3   am
   106    31    32    1
   107    99   100    2
   108     3     2    1
   109    32    34   ar
   110    32    33   ar
   111    34    36   ar
   112     2     1    1
   113     2     5    1
   114     8    10   ar
   115     8     6   ar
   116    10     9   ar
   117    33    35   ar
   118     6     5    1
   119     6     7   ar
   120     9     7   ar
   121    36    35   ar
