@<TRIPOS>MOLECULE
tmp/4ac9C01.pdb
 119 111 0 0 0
SMALL
GASTEIGER

@<TRIPOS>ATOM
      1  N         74.4690  -58.1010    4.1300 N.3    49  THR49      -0.1203
      2  CA        75.5510  -57.1350    4.1610 C.3    49  THR49       0.1994
      3  C         76.3580  -57.4200    5.4150 C.2    49  THR49       0.2618
      4  O         75.7820  -57.6290    6.4820 O.2    49  THR49      -0.2717
      5  CB        75.0270  -55.6830    4.1660 C.3    49  THR49       0.1784
      6  OG1       74.2970  -55.4310    2.9570 O.3    49  THR49      -0.2211
      7  CG2       76.1800  -54.6950    4.2650 C.3    49  THR49       0.0376
      8  N         77.6810  -57.4370    5.2880 N.am   50  ILE50      -0.1965
      9  CA        78.5430  -57.7700    6.4160 C.3    50  ILE50       0.1727
     10  C         78.2690  -56.8160    7.5710 C.2    50  ILE50       0.2616
     11  O         77.9400  -55.6540    7.3510 O.2    50  ILE50      -0.2715
     12  CB        80.0390  -57.7230    6.0280 C.3    50  ILE50       0.0290
     13  CG1       80.5170  -56.2810    5.8410 C.3    50  ILE50       0.0022
     14  CG2       80.2770  -58.5160    4.7590 C.3    50  ILE50       0.0023
     15  CD1       81.9870  -56.1660    5.4980 C.3    50  ILE50       0.0001
     16  N         78.3410  -57.3170    8.7990 N.am   51  ASP51      -0.1957
     17  CA        78.1830  -56.4400    9.9490 C.3    51  ASP51       0.1840
     18  C         79.4790  -56.3690   10.7450 C.2    51  ASP51       0.2621
     19  O         79.8210  -57.2900   11.4860 O.2    51  ASP51      -0.2715
     20  CB        77.0420  -56.9400   10.8380 C.3    51  ASP51       0.1450
     21  CG        76.7670  -56.0210   12.0110 C.2    51  ASP51       0.3671
     22  OD1       77.1050  -54.8220   11.9250 O.co2  51  ASP51      -0.2456
     23  OD2       76.2060  -56.5000   13.0190 O.co2  51  ASP51      -0.2456
     24  N         80.1920  -55.2600   10.5870 N.am   52  ILE52      -0.1977
     25  CA        81.3780  -54.9730   11.3880 C.3    52  ILE52       0.1596
     26  C         81.1430  -53.9840   12.5370 C.2    52  ILE52       0.2287
     27  O         82.0900  -53.5600   13.1990 O.2    52  ILE52      -0.2864
     28  CB        82.6240  -54.6460   10.5360 C.3    52  ILE52       0.0276
     29  CG1       82.2870  -53.6750    9.4100 C.3    52  ILE52       0.0022
     30  CG2       83.1820  -55.9230    9.9380 C.3    52  ILE52       0.0022
     31  CD1       83.4130  -53.5140    8.4030 C.3    52  ILE52       0.0001
     32  N         78.9400  -51.0780   12.1460 N.3    54  PHE54      -0.1227
     33  CA        78.6000  -49.7510   11.6370 C.3    54  PHE54       0.1736
     34  C         77.0990  -49.4530   11.5600 C.2    54  PHE54       0.2596
     35  O         76.7000  -48.4370   10.9890 O.2    54  PHE54      -0.2718
     36  CB        79.2730  -49.4960   10.2880 C.3    54  PHE54       0.0547
     37  CG        80.7590  -49.3180   10.3850 C.ar   54  PHE54      -0.0202
     38  CD1       81.5950  -50.4170   10.4720 C.ar   54  PHE54      -0.0042
     39  CD2       81.3200  -48.0530   10.4000 C.ar   54  PHE54      -0.0042
     40  CE1       82.9630  -50.2600   10.5680 C.ar   54  PHE54      -0.0003
     41  CE2       82.6890  -47.8880   10.4950 C.ar   54  PHE54      -0.0003
     42  CZ        83.5110  -48.9940   10.5790 C.ar   54  PHE54      -0.0000
     43  N         76.2740  -50.3470   12.1030 N.am   55  SER55      -0.1952
     44  CA        74.8300  -50.1200   12.1540 C.3    55  SER55       0.1924
     45  C         74.5300  -48.7790   12.8170 C.2    55  SER55       0.2314
     46  O         74.9810  -48.5130   13.9300 O.2    55  SER55      -0.2863
     47  CB        74.1330  -51.2420   12.9280 C.3    55  SER55       0.2116
     48  OG        74.3200  -52.4970   12.2970 O.3    55  SER55      -0.2180
     49  N         90.5860  -56.1900    7.3000 N.3   197  PHE197     -0.1241
     50  CA        90.6670  -57.1290    6.1850 C.3   197  PHE197      0.1605
     51  C         91.5610  -56.5870    5.0810 C.2   197  PHE197      0.2264
     52  O         91.5700  -55.3850    4.8160 O.2   197  PHE197     -0.2867
     53  CB        89.2770  -57.5280    5.6560 C.3   197  PHE197      0.0534
     54  CG        88.4880  -56.3950    5.0570 C.ar  197  PHE197     -0.0203
     55  CD1       88.5800  -56.1040    3.7040 C.ar  197  PHE197     -0.0042
     56  CD2       87.6240  -55.6460    5.8400 C.ar  197  PHE197     -0.0042
     57  CE1       87.8450  -55.0710    3.1480 C.ar  197  PHE197     -0.0003
     58  CE2       86.8850  -54.6150    5.2910 C.ar  197  PHE197     -0.0003
     59  CZ        86.9970  -54.3260    3.9440 C.ar  197  PHE197     -0.0000
     60  N         93.1630  -55.7020    1.4250 N.3   199  ILE199     -0.1245
     61  CA        92.8640  -55.4390    0.0300 C.3   199  ILE199      0.1561
     62  C         94.1660  -55.7300   -0.6930 C.2   199  ILE199      0.2260
     63  O         95.1330  -54.9840   -0.5410 O.2   199  ILE199     -0.2867
     64  CB        92.4810  -53.9740   -0.1970 C.3   199  ILE199      0.0252
     65  CG1       91.2840  -53.5860    0.6710 C.3   199  ILE199      0.0019
     66  CG2       92.1670  -53.7360   -1.6520 C.3   199  ILE199      0.0019
     67  CD1       90.7200  -52.2230    0.3350 C.3   199  ILE199      0.0001
     68  N         92.3040  -52.5940    5.2180 N.3   205  VAL205     -0.1245
     69  CA        91.1690  -51.8930    5.8070 C.3   205  VAL205      0.1561
     70  C         91.1050  -52.1850    7.2970 C.2   205  VAL205      0.2260
     71  O         91.1840  -53.3410    7.7050 O.2   205  VAL205     -0.2867
     72  CB        89.8340  -52.3200    5.1680 C.3   205  VAL205      0.0252
     73  CG1       88.6610  -51.7350    5.9430 C.3   205  VAL205      0.0019
     74  CG2       89.7810  -51.8890    3.7200 C.3   205  VAL205      0.0019
     75  N         88.9420  -50.9540   11.0690 N.3   207  THR207     -0.1218
     76  CA        87.7590  -50.2740   11.5850 C.3   207  THR207      0.1862
     77  C         87.9470  -49.9240   13.0510 C.2   207  THR207      0.2287
     78  O         88.7070  -50.5880   13.7550 O.2   207  THR207     -0.2866
     79  CB        86.4990  -51.1480   11.4550 C.3   207  THR207      0.1770
     80  OG1       86.6420  -52.3230   12.2640 O.3   207  THR207     -0.2211
     81  CG2       86.2720  -51.5540   10.0100 C.3   207  THR207      0.0375
     82  N         92.5320  -43.5290    3.1410 N.3   234  SER234     -0.1217
     83  CA        91.1280  -43.1350    3.0720 C.3   234  SER234      0.1889
     84  C         90.4040  -43.2820    4.4030 C.2   234  SER234      0.2288
     85  O         90.7340  -44.1500    5.2080 O.2   234  SER234     -0.2866
     86  CB        90.4010  -43.9420    1.9970 C.3   234  SER234      0.2089
     87  OG        89.0470  -43.5380    1.8890 O.3   234  SER234     -0.2183
     88  N         86.3500  -43.3870    6.0420 N.3   236  GLN236     -0.1245
     89  CA        84.9040  -43.3960    5.8580 C.3   236  GLN236      0.1566
     90  C         84.1650  -43.2750    7.1820 C.2   236  GLN236      0.2260
     91  O         84.3940  -44.0600    8.1090 O.2   236  GLN236     -0.2867
     92  CB        84.4380  -44.6610    5.1360 C.3   236  GLN236      0.0367
     93  CG        82.9550  -44.9430    5.3370 C.3   236  GLN236      0.0905
     94  CD        82.4350  -46.0480    4.4470 C.2   236  GLN236      0.2608
     95  OE1       82.8510  -46.1850    3.2960 O.2   236  GLN236     -0.2717
     96  NE2       81.5160  -46.8470    4.9750 N.am  236  GLN236     -0.0878
     97  N         82.5730  -40.9930    2.3910 N.3   241  SER241     -0.1217
     98  CA        83.9990  -40.7050    2.4600 C.3   241  SER241      0.1889
     99  C         84.2420  -39.3260    3.0600 C.2   241  SER241      0.2288
    100  O         83.6230  -38.3430    2.6540 O.2   241  SER241     -0.2866
    101  CB        84.6350  -40.7990    1.0730 C.3   241  SER241      0.2089
    102  OG        86.0490  -40.8060    1.1640 O.3   241  SER241     -0.2183
    103  N         85.6550  -46.4880    9.2230 N.3   252  GLY252     -0.1210
    104  CA        86.4390  -47.4390    8.4630 C.3   252  GLY252      0.1956
    105  C         87.6030  -46.6680    7.8760 C.2   252  GLY252      0.2612
    106  O         87.5050  -45.4600    7.6760 O.2   252  GLY252     -0.2717
    107  N         88.7060  -47.3500    7.6020 N.am  253  MET253     -0.1965
    108  CA        89.8920  -46.6880    7.0810 C.3   253  MET253      0.1736
    109  C         90.6970  -47.5810    6.1510 C.2   253  MET253      0.2616
    110  O         90.8660  -48.7740    6.4040 O.2   253  MET253     -0.2715
    111  CB        90.7800  -46.1960    8.2280 C.3   253  MET253      0.0427
    112  CG        90.4060  -44.8210    8.7520 C.3   253  MET253      0.0599
    113  SD        91.3180  -44.3510   10.2310 S.3   253  MET253     -0.1393
    114  CE        93.0010  -44.5670    9.6720 C.3   253  MET253      0.0692
    115  N         91.1970  -46.9860    5.0760 N.am  254  ALA254     -0.1977
    116  CA        92.1360  -47.6520    4.1950 C.3   254  ALA254      0.1597
    117  C         93.5180  -47.1090    4.5090 C.2   254  ALA254      0.2287
    118  O         93.8000  -45.9310    4.2780 O.2   254  ALA254     -0.2864
    119  CB        91.7800  -47.3960    2.7440 C.3   254  ALA254      0.0319
@<TRIPOS>BOND
     1    66    64    1
     2    62    63    2
     3    62    61    1
     4    64    61    1
     5    64    65    1
     6    61    60    1
     7    67    65    1
     8   101   102    1
     9   101    98    1
    10    87    86    1
    11    86    83    1
    12    97    98    1
    13    98    99    1
    14   100    99    2
    15   119   116    1
    16     6     5    1
    17    83    82    1
    18    83    84    1
    19    57    55   ar
    20    57    59   ar
    21    95    94    2
    22    55    54   ar
    23    74    72    1
    24    59    58   ar
    25     1     2    1
    26     2     5    1
    27     2     3    1
    28     5     7    1
    29   116   117    1
    30   116   115    1
    31   118   117    2
    32    84    85    2
    33    94    96   am
    34    94    93    1
    35    14    12    1
    36    52    51    2
    37    54    53    1
    38    54    56   ar
    39   115   109   am
    40    51    50    1
    41    92    93    1
    42    92    89    1
    43    72    69    1
    44    72    73    1
    45    68    69    1
    46     8     3   am
    47     8     9    1
    48    58    56   ar
    49     3     4    2
    50    15    13    1
    51    53    50    1
    52    69    70    1
    53    13    12    1
    54    89    88    1
    55    89    90    1
    56    12     9    1
    57   109   110    2
    58   109   108    1
    59    50    49    1
    60     9    10    1
    61   108   107    1
    62   108   111    1
    63    90    91    2
    64    70    71    2
    65    11    10    2
    66    10    16   am
    67   107   105   am
    68   106   105    2
    69   105   104    1
    70   111   112    1
    71    31    29    1
    72   104   103    1
    73   112   113    1
    74    16    17    1
    75    29    28    1
    76   114   113    1
    77    30    28    1
    78    17    18    1
    79    17    20    1
    80    81    79    1
    81    36    37    1
    82    36    33    1
    83    37    39   ar
    84    37    38   ar
    85    39    41   ar
    86    38    40   ar
    87    41    42   ar
    88    28    25    1
    89    40    42   ar
    90    24    18   am
    91    24    25    1
    92    18    19    2
    93    20    21    1
    94    35    34    2
    95    75    76    1
    96    25    26    1
    97    79    76    1
    98    79    80    1
    99    34    33    1
   100    34    43   am
   101    76    77    1
   102    33    32    1
   103    22    21   ar
   104    21    23   ar
   105    43    44    1
   106    44    45    1
   107    44    47    1
   108    48    47    1
   109    26    27    2
   110    45    46    2
   111    77    78    2
