@<TRIPOS>MOLECULE
tmp/4ac9C02.pdb
 119 110 0 0 0
SMALL
GASTEIGER

@<TRIPOS>ATOM
      1  N         60.8190  -63.4460   31.9840 N.3    97  GLU97      -0.1245
      2  CA        61.8190  -64.1270   32.8050 C.3    97  GLU97       0.1567
      3  C         62.6890  -63.1810   33.6310 C.2    97  GLU97       0.2260
      4  O         63.5910  -63.6220   34.3440 O.2    97  GLU97      -0.2867
      5  CB        62.6870  -65.0680   31.9610 C.3    97  GLU97       0.0388
      6  CG        63.6440  -64.3790   31.0060 C.3    97  GLU97       0.1160
      7  CD        64.5570  -65.3640   30.3000 C.2    97  GLU97       0.3649
      8  OE1       64.4260  -66.5810   30.5500 O.co2  97  GLU97      -0.2457
      9  OE2       65.4070  -64.9250   29.4970 O.co2  97  GLU97      -0.2457
     10  N         65.3630  -60.2020   34.9550 N.3    99  PRO99      -0.2102
     11  CA        66.8030  -60.0040   34.7780 C.3    99  PRO99       0.1504
     12  C         67.6000  -61.2690   35.0610 C.2    99  PRO99       0.2576
     13  O         67.1590  -62.1210   35.8320 O.2    99  PRO99      -0.2718
     14  CB        67.1450  -58.9270   35.8200 C.3    99  PRO99       0.0282
     15  CG        65.8540  -58.6110   36.5480 C.3    99  PRO99       0.0208
     16  CD        64.9060  -59.7220   36.2670 C.3    99  PRO99       0.0893
     17  N         68.7640  -61.3870   34.4320 N.am  100  LYS100     -0.1966
     18  CA        69.6830  -62.4760   34.7300 C.3   100  LYS100      0.1728
     19  C         71.0660  -61.9280   35.0620 C.2   100  LYS100      0.2616
     20  O         71.2600  -60.7140   35.1240 O.2   100  LYS100     -0.2715
     21  CB        69.7500  -63.4790   33.5760 C.3   100  LYS100      0.0311
     22  CG        68.5520  -64.4180   33.5110 C.3   100  LYS100      0.0038
     23  CD        68.8140  -65.5890   32.5770 C.3   100  LYS100      0.0206
     24  CE        67.7490  -66.6660   32.7280 C.3   100  LYS100      0.1093
     25  NZ        68.0600  -67.8720   31.9100 N.3   100  LYS100     -0.1314
     26  N         72.0160  -62.8330   35.2760 N.am  101  THR101     -0.1951
     27  CA        73.3570  -62.4780   35.7370 C.3   101  THR101      0.1897
     28  C         74.0210  -61.4160   34.8630 C.2   101  THR101      0.2313
     29  O         74.5770  -60.4310   35.3650 O.2   101  THR101     -0.2863
     30  CB        74.2690  -63.7220   35.7860 C.3   101  THR101      0.1794
     31  OG1       73.5240  -64.8510   36.2610 O.3   101  THR101     -0.2208
     32  CG2       75.4630  -63.4780   36.6980 C.3   101  THR101      0.0378
     33  N         72.7150  -57.7940   35.2340 N.3   104  GLY104     -0.1210
     34  CA        73.2980  -57.1380   36.3870 C.3   104  GLY104      0.1956
     35  C         74.7490  -56.7530   36.1850 C.2   104  GLY104      0.2611
     36  O         75.1460  -55.6460   36.5420 O.2   104  GLY104     -0.2717
     37  N         75.5420  -57.6610   35.6210 N.am  105  GLU105     -0.1979
     38  CA        76.9480  -57.3610   35.3550 C.3   105  GLU105      0.1602
     39  C         77.0880  -56.1380   34.4470 C.2   105  GLU105      0.2287
     40  O         77.9030  -55.2480   34.7080 O.2   105  GLU105     -0.2864
     41  CB        77.6650  -58.5710   34.7490 C.3   105  GLU105      0.0415
     42  CG        77.7500  -59.7690   35.6850 C.3   105  GLU105      0.1163
     43  CD        78.7260  -60.8250   35.1990 C.2   105  GLU105      0.3649
     44  OE1       79.5400  -60.5200   34.3020 O.co2 105  GLU105     -0.2457
     45  OE2       78.6790  -61.9620   35.7150 O.co2 105  GLU105     -0.2457
     46  N         76.1790  -52.9410   36.5020 N.3   108  LEU108     -0.1245
     47  CA        77.2400  -52.5050   37.4030 C.3   108  LEU108      0.1561
     48  C         78.4210  -51.9340   36.6300 C.2   108  LEU108      0.2260
     49  O         79.0310  -50.9510   37.0490 O.2   108  LEU108     -0.2867
     50  CB        77.7040  -53.6530   38.3010 C.3   108  LEU108      0.0270
     51  CG        76.6660  -54.3140   39.2120 C.3   108  LEU108      0.0019
     52  CD1       77.3630  -54.9500   40.3970 C.3   108  LEU108      0.0001
     53  CD2       75.6010  -53.3310   39.6800 C.3   108  LEU108      0.0001
     54  N         56.4730  -57.1330   37.9110 N.3   134  ARG134     -0.1245
     55  CA        57.5000  -57.7660   38.7300 C.3   134  ARG134      0.1563
     56  C         58.9000  -57.4820   38.1970 C.2   134  ARG134      0.2260
     57  O         59.7940  -57.0920   38.9550 O.2   134  ARG134     -0.2867
     58  CB        57.2620  -59.2750   38.8020 C.3   134  ARG134      0.0307
     59  CG        58.2050  -60.0260   39.7250 C.3   134  ARG134      0.0489
     60  CD        59.0490  -61.0230   38.9490 C.3   134  ARG134      0.2205
     61  NE        59.6520  -62.0300   39.8170 N.pl3 134  ARG134     -0.0865
     62  CZ        60.4760  -62.9820   39.3930 C.cat 134  ARG134      0.5346
     63  NH1       60.8010  -63.0560   38.1100 N.pl3 134  ARG134      0.1354
     64  NH2       60.9780  -63.8600   40.2510 N.pl3 134  ARG134      0.1354
     65  N         61.7880  -55.3200   40.1700 N.3   138  ILE138     -0.1245
     66  CA        63.1100  -55.8830   40.4370 C.3   138  ILE138      0.1561
     67  C         64.2070  -54.9960   39.8600 C.2   138  ILE138      0.2260
     68  O         65.2020  -54.7030   40.5270 O.2   138  ILE138     -0.2867
     69  CB        63.2550  -57.3110   39.8680 C.3   138  ILE138      0.0252
     70  CG1       62.3550  -58.2840   40.6320 C.3   138  ILE138      0.0019
     71  CG2       64.7080  -57.7740   39.9360 C.3   138  ILE138      0.0019
     72  CD1       62.5220  -59.7320   40.2100 C.3   138  ILE138      0.0001
     73  N         67.2070  -53.0810   41.8610 N.3   142  ILE142     -0.1245
     74  CA        68.6180  -53.3010   41.5550 C.3   142  ILE142      0.1561
     75  C         69.3010  -51.9810   41.2090 C.2   142  ILE142      0.2260
     76  O         70.4380  -51.7340   41.6150 O.2   142  ILE142     -0.2867
     77  CB        68.8140  -54.3090   40.4040 C.3   142  ILE142      0.0252
     78  CG1       68.2510  -55.6760   40.7940 C.3   142  ILE142      0.0019
     79  CG2       70.2870  -54.4350   40.0450 C.3   142  ILE142      0.0019
     80  CD1       68.6010  -56.7840   39.8240 C.3   142  ILE142      0.0001
     81  N         78.0440  -54.1350   46.7290 N.3   290  ILE290     -0.1245
     82  CA        77.2920  -55.3800   46.8580 C.3   290  ILE290      0.1561
     83  C         78.1450  -56.6320   46.6610 C.2   290  ILE290      0.2260
     84  O         77.6240  -57.7470   46.6630 O.2   290  ILE290     -0.2867
     85  CB        76.0810  -55.4210   45.9090 C.3   290  ILE290      0.0252
     86  CG1       76.5340  -55.3260   44.4530 C.3   290  ILE290      0.0019
     87  CG2       75.1080  -54.3010   46.2410 C.3   290  ILE290      0.0019
     88  CD1       75.3880  -55.3520   43.4640 C.3   290  ILE290      0.0001
     89  N         80.2110  -59.6090   47.6490 N.3   292  LYS292     -0.1245
     90  CA        80.1050  -60.3930   48.8800 C.3   292  LYS292      0.1561
     91  C         81.4220  -61.0280   49.3200 C.2   292  LYS292      0.2260
     92  O         81.4510  -61.7970   50.2790 O.2   292  LYS292     -0.2867
     93  CB        79.0430  -61.4890   48.7370 C.3   292  LYS292      0.0271
     94  CG        77.6390  -60.9980   48.4190 C.3   292  LYS292      0.0035
     95  CD        76.6390  -62.1470   48.5080 C.3   292  LYS292      0.0206
     96  CE        75.3440  -61.8350   47.7700 C.3   292  LYS292      0.1093
     97  NZ        74.6240  -60.6680   48.3490 N.3   292  LYS292     -0.1314
     98  N         77.4820  -67.8590   39.8100 N.3   366  THR366     -0.1203
     99  CA        76.2370  -67.1510   40.0970 C.3   366  THR366      0.1994
    100  C         76.4660  -65.8190   40.8110 C.2   366  THR366      0.2619
    101  O         75.7890  -64.8310   40.5260 O.2   366  THR366     -0.2717
    102  CB        75.2680  -68.0180   40.9230 C.3   366  THR366      0.1784
    103  OG1       76.0120  -68.8050   41.8610 O.3   366  THR366     -0.2211
    104  CG2       74.4800  -68.9450   40.0110 C.3   366  THR366      0.0376
    105  N         77.4190  -65.8000   41.7370 N.am  367  THR367     -0.1938
    106  CA        77.7500  -64.5830   42.4700 C.3   367  THR367      0.2028
    107  C         78.3770  -63.5360   41.5570 C.2   367  THR367      0.2642
    108  O         78.9450  -63.8680   40.5170 O.2   367  THR367     -0.2714
    109  CB        78.7130  -64.8710   43.6350 C.3   367  THR367      0.1808
    110  OG1       79.7710  -65.7230   43.1810 O.3   367  THR367     -0.2208
    111  CG2       77.9760  -65.5550   44.7770 C.3   367  THR367      0.0379
    112  N         78.2710  -62.2710   41.9500 N.am  368  LEU368     -0.1977
    113  CA        78.8470  -61.1860   41.1680 C.3   368  LEU368      0.1596
    114  C         80.3650  -61.2620   41.2530 C.2   368  LEU368      0.2287
    115  O         80.9420  -61.1910   42.3380 O.2   368  LEU368     -0.2864
    116  CB        78.3510  -59.8430   41.7050 C.3   368  LEU368      0.0297
    117  CG        79.2240  -58.6070   41.4820 C.3   368  LEU368      0.0022
    118  CD1       79.1550  -58.1340   40.0380 C.3   368  LEU368      0.0001
    119  CD2       78.8260  -57.5000   42.4460 C.3   368  LEU368      0.0001
@<TRIPOS>BOND
     1     9     7   ar
     2     7     8   ar
     3     7     6    1
     4     6     5    1
     5    25    24    1
     6     5     2    1
     7     1     2    1
     8    23    24    1
     9    23    22    1
    10     2     3    1
    11    22    21    1
    12    21    18    1
    13     3     4    2
    14    44    43   ar
    15    17    18    1
    16    17    12   am
    17    39    40    2
    18    39    38    1
    19    18    19    1
    20    41    38    1
    21    41    42    1
    22    11    10    1
    23    11    12    1
    24    11    14    1
    25    28    29    2
    26    28    27    1
    27    10    16    1
    28    12    13    2
    29    19    20    2
    30    19    26   am
    31    43    42    1
    32    43    45   ar
    33    33    34    1
    34    26    27    1
    35    38    37    1
    36    37    35   am
    37    27    30    1
    38    30    31    1
    39    30    32    1
    40    14    15    1
    41    35    34    1
    42    35    36    2
    43    16    15    1
    44    46    47    1
    45    48    49    2
    46    48    47    1
    47    47    50    1
    48    54    55    1
    49    63    62    1
    50    56    55    1
    51    56    57    2
    52    50    51    1
    53    55    58    1
    54    58    59    1
    55    60    59    1
    56    60    61    1
    57    51    53    1
    58    51    52    1
    59    62    61    2
    60    62    64    1
    61    98    99    1
    62    80    78    1
    63    67    66    1
    64    67    68    2
    65    69    71    1
    66    69    66    1
    67    69    70    1
    68   104   102    1
    69   118   117    1
    70    79    77    1
    71    99   100    1
    72    99   102    1
    73    65    66    1
    74    72    70    1
    75    77    78    1
    76    77    74    1
    77   108   107    2
    78   101   100    2
    79   100   105   am
    80   102   103    1
    81   113   114    1
    82   113   116    1
    83   113   112    1
    84    75    74    1
    85    75    76    2
    86   114   115    2
    87   117   116    1
    88   117   119    1
    89    74    73    1
    90   107   112   am
    91   107   106    1
    92   105   106    1
    93   106   109    1
    94   110   109    1
    95    88    86    1
    96   109   111    1
    97    86    85    1
    98    85    87    1
    99    85    82    1
   100    83    84    2
   101    83    82    1
   102    81    82    1
   103    89    90    1
   104    96    97    1
   105    96    95    1
   106    94    95    1
   107    94    93    1
   108    93    90    1
   109    90    91    1
   110    91    92    2
