@<TRIPOS>MOLECULE
tmp/4acbB02.pdb
 112 105 0 0 0
SMALL
GASTEIGER

@<TRIPOS>ATOM
      1  N         35.4390  -16.9030  -20.2960 N.3    84  PRO84      -0.2102
      2  CA        35.2630  -18.0500  -19.4140 C.3    84  PRO84       0.1504
      3  C         35.4910  -19.3680  -20.1320 C.2    84  PRO84       0.2576
      4  O         35.1980  -19.4870  -21.3140 O.2    84  PRO84      -0.2718
      5  CB        33.7960  -17.9210  -18.9930 C.3    84  PRO84       0.0282
      6  CG        33.5650  -16.4890  -18.9740 C.3    84  PRO84       0.0208
      7  CD        34.3680  -15.9140  -20.0970 C.3    84  PRO84       0.0893
      8  N         36.0440  -20.3350  -19.4160 N.am   85  LYS85      -0.1966
      9  CA        36.2140  -21.6890  -19.9180 C.3    85  LYS85       0.1728
     10  C         36.0990  -22.6370  -18.7080 C.2    85  LYS85       0.2616
     11  O         36.1690  -22.1850  -17.5630 O.2    85  LYS85      -0.2715
     12  CB        37.5470  -21.8060  -20.6670 C.3    85  LYS85       0.0311
     13  CG        37.8450  -23.1640  -21.2880 C.3    85  LYS85       0.0038
     14  CD        36.6800  -23.7770  -22.0450 C.3    85  LYS85       0.0206
     15  CE        36.9250  -25.2730  -22.2520 C.3    85  LYS85       0.1093
     16  NZ        35.7200  -25.9900  -22.7530 N.3    85  LYS85      -0.1314
     17  N         35.9010  -23.9300  -18.9630 N.am   86  THR86      -0.1951
     18  CA        35.5810  -24.9140  -17.9260 C.3    86  THR86       0.1897
     19  C         36.4630  -24.8690  -16.6740 C.2    86  THR86       0.2313
     20  O         35.9550  -24.9840  -15.5610 O.2    86  THR86      -0.2863
     21  CB        35.5760  -26.3510  -18.4870 C.3    86  THR86       0.1794
     22  OG1       34.8350  -26.3840  -19.7100 O.3    86  THR86      -0.2208
     23  CG2       34.9330  -27.3040  -17.5000 C.3    86  THR86       0.0378
     24  N         38.1370  -22.1750  -15.5780 N.3    88  THR88      -0.1203
     25  CA        37.8510  -20.9260  -14.8580 C.3    88  THR88       0.1994
     26  C         36.5390  -21.0520  -14.0880 C.2    88  THR88       0.2618
     27  O         36.2520  -20.2580  -13.1970 O.2    88  THR88      -0.2717
     28  CB        37.7610  -19.6690  -15.7730 C.3    88  THR88       0.1784
     29  OG1       36.5630  -19.7190  -16.5500 O.3    88  THR88      -0.2211
     30  CG2       38.9680  -19.5380  -16.6910 C.3    88  THR88       0.0376
     31  N         35.7460  -22.0550  -14.4450 N.am   89  GLY89      -0.1956
     32  CA        34.4740  -22.3010  -13.7930 C.3    89  GLY89       0.1869
     33  C         34.6210  -23.2020  -12.5840 C.2    89  GLY89       0.2309
     34  O         33.8940  -23.0610  -11.6030 O.2    89  GLY89      -0.2863
     35  N         36.2520  -21.0100   -9.8950 N.3    92  MET92      -0.1230
     36  CA        35.2180  -20.1660   -9.3120 C.3    92  MET92       0.1702
     37  C         34.3470  -20.9470   -8.3330 C.2    92  MET92       0.2592
     38  O         33.9290  -20.4210   -7.3060 O.2    92  MET92      -0.2718
     39  CB        34.3320  -19.5870  -10.4030 C.3    92  MET92       0.0401
     40  CG        33.3950  -18.5270   -9.9070 C.3    92  MET92       0.0596
     41  SD        33.8450  -16.9630  -10.6380 S.3    92  MET92      -0.1393
     42  CE        33.5310  -17.3460  -12.3580 C.3    92  MET92       0.0692
     43  N         34.0680  -22.2020   -8.6630 N.am   93  LEU93      -0.1980
     44  CA        33.2830  -23.0640   -7.7910 C.3    93  LEU93       0.1596
     45  C         34.0410  -23.3800   -6.5040 C.2    93  LEU93       0.2287
     46  O         33.4620  -23.3970   -5.4140 O.2    93  LEU93      -0.2864
     47  CB        32.9370  -24.3650   -8.5100 C.3    93  LEU93       0.0297
     48  CG        31.4730  -24.5810   -8.8770 C.3    93  LEU93       0.0022
     49  CD1       31.2930  -25.9740   -9.4510 C.3    93  LEU93       0.0001
     50  CD2       30.5820  -24.3740   -7.6650 C.3    93  LEU93       0.0001
     51  N         34.4440  -20.3680   -4.2950 N.3    96  ASP96      -0.1239
     52  CA        33.1470  -20.0320   -3.7140 C.3    96  ASP96       0.1674
     53  C         32.8470  -20.9270   -2.5210 C.2    96  ASP96       0.2266
     54  O         32.3720  -20.4630   -1.4830 O.2    96  ASP96      -0.2867
     55  CB        32.0250  -20.1610   -4.7410 C.3    96  ASP96       0.1410
     56  CG        30.6790  -19.7310   -4.1880 C.2    96  ASP96       0.3668
     57  OD1       30.6210  -18.6710   -3.5260 O.co2  96  ASP96      -0.2456
     58  OD2       29.6770  -20.4410   -4.4250 O.co2  96  ASP96      -0.2456
     59  N         27.7230  -14.4270  -14.2940 N.3   127  ILE127     -0.1245
     60  CA        28.0250  -15.7300  -13.7150 C.3   127  ILE127      0.1561
     61  C         28.1540  -15.5870  -12.2040 C.2   127  ILE127      0.2260
     62  O         27.6480  -16.4120  -11.4430 O.2   127  ILE127     -0.2867
     63  CB        29.3020  -16.3560  -14.3140 C.3   127  ILE127      0.0252
     64  CG1       28.9900  -16.9740  -15.6790 C.3   127  ILE127      0.0019
     65  CG2       29.8720  -17.4160  -13.3810 C.3   127  ILE127      0.0019
     66  CD1       30.1740  -17.6300  -16.3440 C.3   127  ILE127      0.0001
     67  N         25.2080  -16.0270   -9.8540 N.3   130  SER130     -0.1202
     68  CA        24.7130  -17.3590   -9.5670 C.3   130  SER130      0.2020
     69  C         25.6300  -18.0250   -8.5480 C.2   130  SER130      0.2619
     70  O         25.4500  -19.1910   -8.2010 O.2   130  SER130     -0.2717
     71  CB        24.6470  -18.1920  -10.8430 C.3   130  SER130      0.2103
     72  OG        25.9480  -18.5120  -11.2980 O.3   130  SER130     -0.2182
     73  N         26.6140  -17.2680   -8.0740 N.am  131  THR131     -0.1952
     74  CA        27.6020  -17.7700   -7.1310 C.3   131  THR131      0.1897
     75  C         27.2020  -17.3740   -5.7230 C.2   131  THR131      0.2313
     76  O         26.8130  -16.2350   -5.4940 O.2   131  THR131     -0.2863
     77  CB        28.9840  -17.1880   -7.4470 C.3   131  THR131      0.1794
     78  OG1       29.4870  -17.7840   -8.6470 O.3   131  THR131     -0.2208
     79  CG2       29.9480  -17.4500   -6.3300 C.3   131  THR131      0.0378
     80  N         26.5190  -28.0350   -4.4010 N.3   273  SER273     -0.1217
     81  CA        26.2090  -26.8750   -5.2260 C.3   273  SER273      0.1889
     82  C         24.9390  -27.1390   -6.0310 C.2   273  SER273      0.2288
     83  O         24.8600  -28.1080   -6.7820 O.2   273  SER273     -0.2866
     84  CB        27.3830  -26.5480   -6.1510 C.3   273  SER273      0.2089
     85  OG        27.9410  -27.7260   -6.7100 O.3   273  SER273     -0.2183
     86  N         23.6560  -25.7570   -8.5450 N.3   275  ILE275     -0.1231
     87  CA        23.8330  -25.6770   -9.9900 C.3   275  ILE275      0.1692
     88  C         24.3700  -27.0020  -10.5470 C.2   275  ILE275      0.2592
     89  O         24.2120  -27.3010  -11.7330 O.2   275  ILE275     -0.2718
     90  CB        24.7370  -24.4680  -10.3600 C.3   275  ILE275      0.0266
     91  CG1       23.9970  -23.1510  -10.1120 C.3   275  ILE275      0.0019
     92  CG2       25.2020  -24.5080  -11.8030 C.3   275  ILE275      0.0020
     93  CD1       22.9050  -22.8540  -11.1230 C.3   275  ILE275      0.0001
     94  N         24.9650  -27.8160   -9.6790 N.am  276  PHE276     -0.1976
     95  CA        25.4140  -29.1470  -10.0810 C.3   276  PHE276      0.1639
     96  C         24.2460  -30.0240  -10.5330 C.2   276  PHE276      0.2290
     97  O         24.4380  -30.9850  -11.2820 O.2   276  PHE276     -0.2864
     98  CB        26.1700  -29.8370   -8.9460 C.3   276  PHE276      0.0560
     99  CG        26.4180  -31.2990   -9.1840 C.ar  276  PHE276     -0.0200
    100  CD1       27.3640  -31.7120  -10.1100 C.ar  276  PHE276     -0.0042
    101  CD2       25.7050  -32.2610   -8.4840 C.ar  276  PHE276     -0.0042
    102  CE1       27.5950  -33.0600  -10.3310 C.ar  276  PHE276     -0.0003
    103  CE2       25.9310  -33.6090   -8.6990 C.ar  276  PHE276     -0.0003
    104  CZ        26.8760  -34.0100   -9.6230 C.ar  276  PHE276     -0.0000
    105  N         31.3790  -29.8540  -15.6780 N.3   353  LEU353     -0.1245
    106  CA        31.9290  -29.3230  -14.4380 C.3   353  LEU353      0.1561
    107  C         32.0280  -30.4580  -13.4370 C.2   353  LEU353      0.2260
    108  O         31.0210  -30.9640  -12.9460 O.2   353  LEU353     -0.2867
    109  CB        31.0530  -28.2000  -13.8920 C.3   353  LEU353      0.0270
    110  CG        31.7660  -26.8550  -13.7630 C.3   353  LEU353      0.0019
    111  CD1       30.7820  -25.7250  -13.5080 C.3   353  LEU353      0.0001
    112  CD2       32.7810  -26.9370  -12.6520 C.3   353  LEU353      0.0001
@<TRIPOS>BOND
     1    16    15    1
     2    15    14    1
     3    14    13    1
     4     4     3    2
     5    13    12    1
     6    12     9    1
     7     1     7    1
     8     1     2    1
     9     3     8   am
    10     3     2    1
    11     7     6    1
    12     9     8    1
    13     9    10    1
    14    22    21    1
    15     2     5    1
    16     5     6    1
    17    17    10   am
    18    17    18    1
    19    10    11    2
    20    21    18    1
    21    21    23    1
    22    18    19    1
    23    30    28    1
    24    19    20    2
    25    29    28    1
    26    66    64    1
    27    28    25    1
    28    64    63    1
    29   105   106    1
    30    24    25    1
    31    25    26    1
    32    31    26   am
    33    31    32    1
    34   106   109    1
    35   106   107    1
    36    63    60    1
    37    63    65    1
    38    59    60    1
    39    26    27    2
    40   109   110    1
    41    32    33    1
    42   110   111    1
    43   110   112    1
    44    60    61    1
    45   107   108    2
    46    33    34    2
    47    42    41    1
    48    61    62    2
    49    92    90    1
    50    89    88    2
    51    72    71    1
    52    97    96    2
    53    93    91    1
    54    71    68    1
    55    41    40    1
    56    88    87    1
    57    88    94   am
    58    96    95    1
    59    39    40    1
    60    39    36    1
    61    90    91    1
    62    90    87    1
    63   102   100   ar
    64   102   104   ar
    65   100    99   ar
    66    95    94    1
    67    95    98    1
    68    87    86    1
    69    35    36    1
    70    67    68    1
    71   104   103   ar
    72    68    69    1
    73    49    48    1
    74    36    37    1
    75    99    98    1
    76    99   101   ar
    77    48    47    1
    78    48    50    1
    79   103   101   ar
    80    43    37   am
    81    43    44    1
    82    78    77    1
    83    69    70    2
    84    69    73   am
    85    47    44    1
    86    37    38    2
    87    73    74    1
    88    44    45    1
    89    77    74    1
    90    77    79    1
    91    74    75    1
    92    83    82    2
    93    85    84    1
    94    45    46    2
    95    84    81    1
    96    82    81    1
    97    75    76    2
    98    81    80    1
    99    55    56    1
   100    55    52    1
   101    58    56   ar
   102    51    52    1
   103    56    57   ar
   104    52    53    1
   105    53    54    2
