@<TRIPOS>MOLECULE
tmp/4acbA00.pdb
 114 106 0 0 0
SMALL
GASTEIGER

@<TRIPOS>ATOM
      1  N         21.1240  -48.2870  -48.6760 N.3    15  ILE15      -0.1231
      2  CA        21.6660  -49.0910  -47.5820 C.3    15  ILE15       0.1692
      3  C         22.8340  -49.9650  -48.0310 C.2    15  ILE15       0.2592
      4  O         22.7880  -50.5770  -49.0970 O.2    15  ILE15      -0.2718
      5  CB        20.6020  -49.9770  -46.9190 C.3    15  ILE15       0.0266
      6  CG1       19.4110  -50.1820  -47.8520 C.3    15  ILE15       0.0019
      7  CG2       20.1410  -49.3600  -45.6110 C.3    15  ILE15       0.0020
      8  CD1       18.3210  -51.0400  -47.2400 C.3    15  ILE15       0.0001
      9  N         23.8720  -50.0070  -47.1970 N.am   16  ASP16      -0.1974
     10  CA        25.1190  -50.7190  -47.4840 C.3    16  ASP16       0.1709
     11  C         25.8490  -50.1850  -48.7120 C.2    16  ASP16       0.2293
     12  O         26.6160  -50.9060  -49.3480 O.2    16  ASP16      -0.2864
     13  CB        24.8890  -52.2290  -47.6120 C.3    16  ASP16       0.1436
     14  CG        24.4110  -52.8540  -46.3200 C.2    16  ASP16       0.3671
     15  OD1       24.7550  -52.3270  -45.2420 O.co2  16  ASP16      -0.2456
     16  OD2       23.6920  -53.8730  -46.3820 O.co2  16  ASP16      -0.2456
     17  N         27.8680  -47.8110  -48.3500 N.3    18  GLY18      -0.1210
     18  CA        29.1360  -47.3990  -47.7760 C.3    18  GLY18       0.1956
     19  C         29.1660  -46.0070  -47.1750 C.2    18  GLY18       0.2612
     20  O         30.2140  -45.3600  -47.1730 O.2    18  GLY18      -0.2717
     21  N         28.0250  -45.5500  -46.6630 N.am   19  LYS19      -0.1965
     22  CA        27.9320  -44.2380  -46.0280 C.3    19  LYS19       0.1728
     23  C         28.7930  -44.1800  -44.7730 C.2    19  LYS19       0.2617
     24  O         29.7710  -43.4320  -44.7070 O.2    19  LYS19      -0.2715
     25  CB        26.4840  -43.9280  -45.6470 C.3    19  LYS19       0.0311
     26  CG        25.5950  -43.5490  -46.7960 C.3    19  LYS19       0.0038
     27  CD        24.1840  -43.3080  -46.3210 C.3    19  LYS19       0.0206
     28  CE        23.6670  -44.5010  -45.5470 C.3    19  LYS19       0.1093
     29  NZ        23.5990  -45.7210  -46.3850 N.3    19  LYS19      -0.1314
     30  N         28.3960  -44.9770  -43.7830 N.am   20  THR20      -0.1937
     31  CA        29.0710  -45.0720  -42.4920 C.3    20  THR20       0.2028
     32  C         30.5870  -45.2380  -42.6220 C.2    20  THR20       0.2642
     33  O         31.3510  -44.5740  -41.9200 O.2    20  THR20      -0.2714
     34  CB        28.4940  -46.2450  -41.6600 C.3    20  THR20       0.1808
     35  OG1       27.3090  -45.8210  -40.9660 O.3    20  THR20      -0.2208
     36  CG2       29.5220  -46.7620  -40.6550 C.3    20  THR20       0.0379
     37  N         31.0210  -46.1170  -43.5220 N.am   21  THR21      -0.1950
     38  CA        32.4450  -46.3870  -43.6750 C.3    21  THR21       0.1897
     39  C         33.1580  -45.1640  -44.2250 C.2    21  THR21       0.2313
     40  O         34.2560  -44.8250  -43.7850 O.2    21  THR21      -0.2863
     41  CB        32.7110  -47.5650  -44.6130 C.3    21  THR21       0.1794
     42  OG1       31.8360  -48.6490  -44.2830 O.3    21  THR21      -0.2208
     43  CG2       34.1540  -48.0180  -44.4780 C.3    21  THR21       0.0378
     44  N         22.8610  -47.8310  -38.5510 N.3    30  THR30      -0.1218
     45  CA        22.4820  -46.4230  -38.5470 C.3    30  THR30       0.1862
     46  C         20.9560  -46.2500  -38.5440 C.2    30  THR30       0.2287
     47  O         20.3250  -46.2740  -39.6010 O.2    30  THR30      -0.2866
     48  CB        23.0710  -45.6640  -39.7730 C.3    30  THR30       0.1770
     49  OG1       24.4700  -45.9610  -39.9330 O.3    30  THR30      -0.2211
     50  CG2       22.8850  -44.1630  -39.6110 C.3    30  THR30       0.0375
     51  N         25.5500  -38.0800  -40.6890 N.3    49  ASP49      -0.1239
     52  CA        25.4710  -39.4130  -41.2930 C.3    49  ASP49       0.1674
     53  C         24.0200  -39.8680  -41.4090 C.2    49  ASP49       0.2266
     54  O         23.4040  -40.2400  -40.4110 O.2    49  ASP49      -0.2867
     55  CB        26.2720  -40.4210  -40.4570 C.3    49  ASP49       0.1410
     56  CG        26.4610  -41.7600  -41.1580 C.2    49  ASP49       0.3668
     57  OD1       25.6090  -42.1460  -41.9880 O.co2  49  ASP49      -0.2456
     58  OD2       27.4710  -42.4360  -40.8690 O.co2  49  ASP49      -0.2456
     59  N         20.3920  -45.1190  -44.2590 N.3    52  GLY52      -0.1225
     60  CA        20.1170  -45.5800  -45.6050 C.3    52  GLY52       0.1811
     61  C         18.7240  -46.1570  -45.7480 C.2    52  GLY52       0.2280
     62  O         18.0850  -46.0100  -46.7950 O.2    52  GLY52      -0.2866
     63  N         31.3690  -45.5300  -54.2330 N.3   103  THR103     -0.1203
     64  CA        32.0260  -46.3120  -53.1980 C.3   103  THR103      0.1994
     65  C         32.2390  -47.7450  -53.6310 C.2   103  THR103      0.2617
     66  O         31.6030  -48.2210  -54.5740 O.2   103  THR103     -0.2717
     67  CB        31.2030  -46.3220  -51.9210 C.3   103  THR103      0.1784
     68  OG1       30.0100  -47.0830  -52.1330 O.3   103  THR103     -0.2211
     69  CG2       30.8290  -44.9060  -51.5380 C.3   103  THR103      0.0376
     70  N         33.1410  -48.4230  -52.9280 N.am  104  LYS104     -0.1979
     71  CA        33.4620  -49.8200  -53.1970 C.3   104  LYS104      0.1596
     72  C         34.0800  -50.0400  -54.5820 C.2   104  LYS104      0.2287
     73  O         33.7050  -50.9630  -55.3050 O.2   104  LYS104     -0.2864
     74  CB        32.2230  -50.6960  -53.0090 C.3   104  LYS104      0.0298
     75  CG        31.5940  -50.5850  -51.6260 C.3   104  LYS104      0.0038
     76  CD        30.4790  -51.5970  -51.4690 C.3   104  LYS104      0.0206
     77  CE        29.8360  -51.5040  -50.1140 C.3   104  LYS104      0.1093
     78  NZ        28.8060  -52.5620  -49.9550 N.3   104  LYS104     -0.1314
     79  N         37.0740  -50.8310  -55.0850 N.3   106  ASP106     -0.1225
     80  CA        38.0440  -51.9020  -54.9930 C.3   106  ASP106      0.1805
     81  C         37.3420  -53.2110  -55.2760 C.2   106  ASP106      0.2597
     82  O         37.9890  -54.2350  -55.4980 O.2   106  ASP106     -0.2718
     83  CB        38.6470  -51.9530  -53.5940 C.3   106  ASP106      0.1424
     84  CG        37.6130  -52.2850  -52.5300 C.2   106  ASP106      0.3668
     85  OD1       36.5800  -51.5860  -52.4710 O.co2 106  ASP106     -0.2456
     86  OD2       37.8230  -53.2510  -51.7630 O.co2 106  ASP106     -0.2456
     87  N         36.0130  -53.1760  -55.2550 N.am  107  ASN107     -0.1974
     88  CA        35.2150  -54.3740  -55.4900 C.3   107  ASN107      0.1688
     89  C         34.6520  -54.4350  -56.9060 C.2   107  ASN107      0.2292
     90  O         33.8490  -55.3130  -57.2400 O.2   107  ASN107     -0.2864
     91  CB        34.0810  -54.4820  -54.4740 C.3   107  ASN107      0.1181
     92  CG        33.7230  -55.9160  -54.1710 C.2   107  ASN107      0.2629
     93  OD1       34.5160  -56.8240  -54.4270 O.2   107  ASN107     -0.2716
     94  ND2       32.5310  -56.1340  -53.6270 N.am  107  ASN107     -0.0877
     95  N         37.5940  -45.8960  -52.7850 N.3   139  SER139     -0.1202
     96  CA        37.4600  -47.0450  -51.9130 C.3   139  SER139      0.2020
     97  C         37.8410  -46.6130  -50.5170 C.2   139  SER139      0.2619
     98  O         39.0040  -46.3160  -50.2590 O.2   139  SER139     -0.2717
     99  CB        38.3840  -48.1660  -52.3410 C.3   139  SER139      0.2103
    100  OG        38.3310  -49.2190  -51.3990 O.3   139  SER139     -0.2182
    101  N         36.8600  -46.5640  -49.6230 N.am  140  ALA140     -0.1965
    102  CA        37.1260  -46.2380  -48.2350 C.3   140  ALA140      0.1728
    103  C         38.0730  -47.2680  -47.6340 C.2   140  ALA140      0.2616
    104  O         39.0200  -46.9100  -46.9370 O.2   140  ALA140     -0.2715
    105  CB        35.8350  -46.1800  -47.4520 C.3   140  ALA140      0.0334
    106  N         37.8240  -48.5440  -47.9210 N.am  141  LYS141     -0.1977
    107  CA        38.7040  -49.6210  -47.4640 C.3   141  LYS141      0.1596
    108  C         40.1510  -49.5110  -47.9900 C.2   141  LYS141      0.2287
    109  O         41.1200  -49.7510  -47.2690 O.2   141  LYS141     -0.2864
    110  CB        38.1180  -50.9840  -47.8480 C.3   141  LYS141      0.0298
    111  CG        39.0050  -52.1620  -47.4480 C.3   141  LYS141      0.0038
    112  CD        38.5630  -53.4490  -48.1190 C.3   141  LYS141      0.0206
    113  CE        39.5790  -54.5630  -47.9080 C.3   141  LYS141      0.1093
    114  NZ        39.2580  -55.7540  -48.7450 N.3   141  LYS141     -0.1314
@<TRIPOS>BOND
     1    90    89    2
     2    89    88    1
     3    82    81    2
     4    88    87    1
     5    88    91    1
     6    73    72    2
     7    81    87   am
     8    81    80    1
     9    79    80    1
    10    80    83    1
    11    72    71    1
    12    66    65    2
    13    91    92    1
    14    93    92    2
    15    63    64    1
    16    92    94   am
    17    65    64    1
    18    65    70   am
    19    83    84    1
    20    64    67    1
    21    71    74    1
    22    71    70    1
    23    74    75    1
    24    95    96    1
    25    84    85   ar
    26    84    86   ar
    27    99    96    1
    28    99   100    1
    29    68    67    1
    30    67    69    1
    31    96    97    1
    32    75    76    1
    33    76    77    1
    34    97    98    2
    35    97   101   am
    36    77    78    1
    37   101   102    1
    38    12    11    2
    39     4     3    2
    40   114   113    1
    41    11    10    1
    42     1     2    1
    43    17    18    1
    44   102   103    1
    45   102   105    1
    46   112   113    1
    47   112   111    1
    48     3     2    1
    49     3     9   am
    50   108   107    1
    51   108   109    2
    52   106   103   am
    53   106   107    1
    54     6     8    1
    55     6     5    1
    56   110   107    1
    57   110   111    1
    58    18    19    1
    59   103   104    2
    60    13    10    1
    61    13    14    1
    62     2     5    1
    63    10     9    1
    64    19    20    2
    65    19    21   am
    66     5     7    1
    67    26    27    1
    68    26    25    1
    69    62    61    2
    70    21    22    1
    71    29    28    1
    72    16    14   ar
    73    27    28    1
    74    14    15   ar
    75    22    25    1
    76    22    23    1
    77    61    60    1
    78    60    59    1
    79    23    24    2
    80    23    30   am
    81    41    43    1
    82    41    42    1
    83    41    38    1
    84    39    40    2
    85    39    38    1
    86    30    31    1
    87    38    37    1
    88    37    32   am
    89    32    31    1
    90    32    33    2
    91    31    34    1
    92    57    56   ar
    93    34    35    1
    94    34    36    1
    95    53    52    1
    96    53    54    2
    97    52    51    1
    98    52    55    1
    99    56    58   ar
   100    56    55    1
   101    49    48    1
   102    48    50    1
   103    48    45    1
   104    47    46    2
   105    44    45    1
   106    45    46    1
