@<TRIPOS>MOLECULE
tmp/4accB00.pdb
 175 166 0 0 0
SMALL
GASTEIGER

@<TRIPOS>ATOM
      1  N         -7.2310   -7.8880   29.4990 N.3    27  VAL27      -0.1231
      2  CA        -5.8590   -7.8190   28.9970 C.3    27  VAL27       0.1692
      3  C         -5.1680   -6.6230   29.6650 C.2    27  VAL27       0.2592
      4  O         -5.6760   -5.5060   29.5930 O.2    27  VAL27      -0.2718
      5  CB        -5.7810   -7.7520   27.4500 C.3    27  VAL27       0.0266
      6  CG1       -4.3520   -7.4790   26.9750 C.3    27  VAL27       0.0020
      7  CG2       -6.3040   -9.0370   26.8230 C.3    27  VAL27       0.0020
      8  N         -4.0520   -6.8700   30.3620 N.am   28  ILE28      -0.1966
      9  CA        -3.2570   -5.8250   31.0110 C.3    28  ILE28       0.1727
     10  C         -1.9300   -5.6180   30.2680 C.2    28  ILE28       0.2616
     11  O         -1.2840   -4.5830   30.4330 O.2    28  ILE28      -0.2715
     12  CB        -3.0860   -6.0080   32.5440 C.3    28  ILE28       0.0290
     13  CG1       -2.3020   -7.3040   32.9270 C.3    28  ILE28       0.0022
     14  CG2       -4.4390   -5.8800   33.2440 C.3    28  ILE28       0.0023
     15  CD1       -2.0080   -7.5020   34.4220 C.3    28  ILE28       0.0001
     16  N         -1.5570   -6.5920   29.4430 N.am   29  GLY29      -0.1955
     17  CA        -0.3360   -6.5310   28.6630 C.3    29  GLY29       0.1869
     18  C         -0.3770   -7.3560   27.4020 C.2    29  GLY29       0.2309
     19  O         -1.0590   -8.3770   27.3390 O.2    29  GLY29      -0.2863
     20  N          6.1380  -11.8970   23.5620 N.3    33  PHE33      -0.1241
     21  CA         5.9880  -13.0920   24.3890 C.3    33  PHE33       0.1605
     22  C          4.6000  -13.7500   24.2970 C.2    33  PHE33       0.2264
     23  O          4.5060  -14.9750   24.2880 O.2    33  PHE33      -0.2867
     24  CB         6.3200  -12.7510   25.8620 C.3    33  PHE33       0.0534
     25  CG         5.3940  -11.7370   26.5040 C.ar   33  PHE33      -0.0203
     26  CD1        5.6610  -10.3770   26.4240 C.ar   33  PHE33      -0.0042
     27  CD2        4.2450  -12.1450   27.1760 C.ar   33  PHE33      -0.0042
     28  CE1        4.7810   -9.4450   26.9790 C.ar   33  PHE33      -0.0003
     29  CE2        3.3640  -11.2130   27.7120 C.ar   33  PHE33      -0.0003
     30  CZ         3.6420   -9.8690   27.6230 C.ar   33  PHE33      -0.0000
     31  N         -0.7080  -11.0690   28.8790 N.3    36  VAL36      -0.1245
     32  CA        -0.7980  -11.0430   30.3230 C.3    36  VAL36       0.1561
     33  C         -2.1820  -10.5040   30.6290 C.2    36  VAL36       0.2260
     34  O         -2.5690   -9.4380   30.1330 O.2    36  VAL36      -0.2867
     35  CB         0.3110  -10.2880   31.0980 C.3    36  VAL36       0.0252
     36  CG1        0.1310  -10.4790   32.6100 C.3    36  VAL36       0.0019
     37  CG2        1.6930  -10.7760   30.6880 C.3    36  VAL36       0.0019
     38  N         -2.4650  -12.1780   38.0580 N.3    49  ALA49      -0.1245
     39  CA        -2.0670  -11.9680   36.6760 C.3    49  ALA49       0.1562
     40  C         -1.9010  -13.3540   36.0430 C.2    49  ALA49       0.2260
     41  O         -1.4760  -14.2910   36.7170 O.2    49  ALA49      -0.2867
     42  CB        -0.7510  -11.2160   36.6180 C.3    49  ALA49       0.0290
     43  N         -0.0830  -14.9760   32.7840 N.3    51  LYS51      -0.1245
     44  CA         0.8240  -14.7990   31.6630 C.3    51  LYS51       0.1561
     45  C          0.6420  -16.0270   30.7560 C.2    51  LYS51       0.2260
     46  O          0.9500  -17.1540   31.1640 O.2    51  LYS51      -0.2867
     47  CB         2.2760  -14.6170   32.1350 C.3    51  LYS51       0.0271
     48  CG         3.2500  -14.4120   30.9700 C.3    51  LYS51       0.0035
     49  CD         4.7010  -14.4790   31.3790 C.3    51  LYS51       0.0206
     50  CE         5.5910  -14.0600   30.2410 C.3    51  LYS51       0.1093
     51  NZ         6.8490  -13.4440   30.7360 N.3    51  LYS51      -0.1314
     52  N         11.1370  -20.2710   31.4870 N.3    63  GLU63      -0.1245
     53  CA        10.5690  -19.3260   32.4560 C.3    63  GLU63       0.1567
     54  C          9.8540  -20.0800   33.5690 C.2    63  GLU63       0.2260
     55  O         10.0490  -19.7600   34.7390 O.2    63  GLU63      -0.2867
     56  CB         9.6460  -18.2940   31.7640 C.3    63  GLU63       0.0388
     57  CG         9.1090  -17.2160   32.6980 C.3    63  GLU63       0.1160
     58  CD         8.2510  -16.1380   32.0640 C.2    63  GLU63       0.3649
     59  OE1        7.9650  -16.2440   30.8520 O.co2  63  GLU63      -0.2457
     60  OE2        7.8510  -15.1930   32.7810 O.co2  63  GLU63      -0.2457
     61  N          7.4820  -11.4940   41.9430 N.3    76  VAL76      -0.1245
     62  CA         6.1360  -11.9160   41.6060 C.3    76  VAL76       0.1561
     63  C          6.1460  -13.4670   41.6660 C.2    76  VAL76       0.2260
     64  O          6.9930  -14.1180   41.0590 O.2    76  VAL76      -0.2867
     65  CB         5.7780  -11.2270   40.2450 C.3    76  VAL76       0.0252
     66  CG1        5.5700  -12.1850   39.0850 C.3    76  VAL76       0.0019
     67  CG2        4.6420  -10.2470   40.3980 C.3    76  VAL76       0.0019
     68  N          0.1980  -15.6240   38.4300 N.3    98  LEU98      -0.1231
     69  CA         1.1530  -14.8500   39.2080 C.3    98  LEU98       0.1693
     70  C          0.4970  -13.8820   40.1550 C.2    98  LEU98       0.2592
     71  O         -0.6790  -13.5610   39.9940 O.2    98  LEU98      -0.2718
     72  CB         2.0530  -14.0420   38.2360 C.3    98  LEU98       0.0284
     73  CG         2.8320  -14.7860   37.1270 C.3    98  LEU98       0.0019
     74  CD1        3.2400  -13.8260   36.0020 C.3    98  LEU98       0.0001
     75  CD2        4.0830  -15.4300   37.6750 C.3    98  LEU98       0.0001
     76  N          1.2760  -13.3660   41.1260 N.am   99  ASP99      -0.1960
     77  CA         0.8210  -12.2730   41.9710 C.3    99  ASP99       0.1840
     78  C          0.5540  -11.1010   41.0070 C.2    99  ASP99       0.2622
     79  O          1.3360  -10.8910   40.0540 O.2    99  ASP99      -0.2715
     80  CB         1.9520  -11.7960   42.8960 C.3    99  ASP99       0.1450
     81  CG         2.3820  -12.7070   44.0190 C.2    99  ASP99       0.3671
     82  OD1        1.5220  -13.4850   44.5290 O.co2  99  ASP99      -0.2456
     83  OD2        3.5660  -12.6090   44.4360 O.co2  99  ASP99      -0.2456
     84  N         -0.5420  -10.3570   41.2470 N.am  100  TYR100     -0.1960
     85  CA        -0.8560   -9.1420   40.4950 C.3   100  TYR100      0.1771
     86  C         -0.4290   -7.9560   41.3720 C.2   100  TYR100      0.2619
     87  O         -0.7750   -7.9150   42.5600 O.2   100  TYR100     -0.2715
     88  CB        -2.3450   -9.0540   40.1250 C.3   100  TYR100      0.0574
     89  CG        -2.7530   -7.6980   39.5910 C.ar  100  TYR100     -0.0198
     90  CD1       -2.5480   -7.3620   38.2590 C.ar  100  TYR100     -0.0009
     91  CD2       -3.3210   -6.7400   40.4280 C.ar  100  TYR100     -0.0009
     92  CE1       -2.8820   -6.0970   37.7740 C.ar  100  TYR100      0.0417
     93  CE2       -3.6670   -5.4770   39.9520 C.ar  100  TYR100      0.0417
     94  CZ        -3.4380   -5.1570   38.6270 C.ar  100  TYR100      0.1957
     95  OH        -3.7980   -3.9160   38.1650 O.3   100  TYR100     -0.2866
     96  N          0.3670   -7.0210   40.8070 N.am  101  VAL101     -0.1964
     97  CA         0.8280   -5.8030   41.5100 C.3   101  VAL101      0.1712
     98  C          0.3870   -4.6690   40.5690 C.2   101  VAL101      0.2458
     99  O          0.6240   -4.7850   39.3630 O.2   101  VAL101     -0.2730
    100  CB         2.3480   -5.8320   41.8390 C.3   101  VAL101      0.0289
    101  CG1        2.7320   -4.7180   42.7890 C.3   101  VAL101      0.0023
    102  CG2        2.7540   -7.1650   42.4430 C.3   101  VAL101      0.0023
    103  N         -0.3900   -3.6640   41.0560 N.am  102  PRO102     -0.2716
    104  CA        -1.0760   -2.7310   40.1280 C.3   102  PRO102      0.1536
    105  C         -0.3110   -1.6630   39.3630 C.2   102  PRO102      0.2598
    106  O         -0.7770   -1.2320   38.3140 O.2   102  PRO102     -0.2715
    107  CB        -2.1850   -2.1340   40.9960 C.3   102  PRO102      0.0310
    108  CG        -1.5970   -2.1480   42.3790 C.3   102  PRO102      0.0237
    109  CD        -0.8510   -3.4540   42.4480 C.3   102  PRO102      0.0939
    110  N          0.8210   -1.2140   39.8790 N.am  103  GLU103     -0.1964
    111  CA         1.5910   -0.1650   39.2220 C.3   103  GLU103      0.1733
    112  C          2.9860   -0.6430   38.7900 C.2   103  GLU103      0.2617
    113  O          3.4110   -1.7320   39.1530 O.2   103  GLU103     -0.2715
    114  CB         1.7000    1.0750   40.1510 C.3   103  GLU103      0.0429
    115  CG         0.5200    2.0250   40.0670 C.3   103  GLU103      0.1163
    116  CD         0.3260    2.7350   38.7320 C.2   103  GLU103      0.3649
    117  OE1        1.3090    2.8930   37.9710 O.co2 103  GLU103     -0.2457
    118  OE2       -0.8300    3.1170   38.4410 O.co2 103  GLU103     -0.2457
    119  N          3.6760    0.1690   37.9950 N.am  104  THR104     -0.1951
    120  CA         5.0370   -0.0930   37.5530 C.3   104  THR104      0.1897
    121  C          5.9010    1.1340   37.8810 C.2   104  THR104      0.2313
    122  O          5.3820    2.2500   37.9290 O.2   104  THR104     -0.2863
    123  CB         5.1000   -0.4130   36.0410 C.3   104  THR104      0.1794
    124  OG1        4.8770    0.7740   35.2840 O.3   104  THR104     -0.2208
    125  CG2        4.1490   -1.5210   35.6080 C.3   104  THR104      0.0378
    126  N          5.5320    3.7630   34.9540 N.3   107  ARG107     -0.1245
    127  CA         4.3430    4.6140   35.0510 C.3   107  ARG107      0.1563
    128  C          4.4880    5.6810   36.1360 C.2   107  ARG107      0.2260
    129  O          4.1520    6.8290   35.8910 O.2   107  ARG107     -0.2867
    130  CB         3.0730    3.7710   35.2900 C.3   107  ARG107      0.0307
    131  CG         2.6220    2.9720   34.0590 C.3   107  ARG107      0.0489
    132  CD         1.1650    3.1710   33.6500 C.3   107  ARG107      0.2205
    133  NE         0.2440    2.9070   34.7540 N.pl3 107  ARG107     -0.0865
    134  CZ        -1.0760    2.9890   34.6910 C.cat 107  ARG107      0.5346
    135  NH1       -1.6750    3.3120   33.5510 N.pl3 107  ARG107      0.1354
    136  NH2       -1.8130    2.7420   35.7660 N.pl3 107  ARG107      0.1354
    137  N          9.7080   -0.9100   33.4650 N.3   151  GLN151     -0.1231
    138  CA         8.4720   -1.6380   33.1390 C.3   151  GLN151      0.1698
    139  C          8.3380   -3.0100   33.8450 C.2   151  GLN151      0.2592
    140  O          7.2190   -3.4960   34.0180 O.2   151  GLN151     -0.2718
    141  CB         8.3160   -1.8190   31.6100 C.3   151  GLN151      0.0381
    142  CG         7.8760   -0.5490   30.8740 C.3   151  GLN151      0.0905
    143  CD         8.3080   -0.4800   29.4200 C.2   151  GLN151      0.2608
    144  OE1        9.4940   -0.6110   29.0780 O.2   151  GLN151     -0.2717
    145  NE2        7.3580   -0.1750   28.5390 N.am  151  GLN151     -0.0878
    146  N          9.4690   -3.6320   34.2230 N.am  152  ASN152     -0.1974
    147  CA         9.4890   -4.9430   34.8540 C.3   152  ASN152      0.1688
    148  C          9.5560   -4.8610   36.3890 C.2   152  ASN152      0.2292
    149  O          9.7970   -5.8690   37.0680 O.2   152  ASN152     -0.2864
    150  CB        10.6720   -5.7580   34.2950 C.3   152  ASN152      0.1181
    151  CG        10.4140   -6.2360   32.9070 C.2   152  ASN152      0.2629
    152  OD1        9.2680   -6.3380   32.4740 O.2   152  ASN152     -0.2716
    153  ND2       11.4640   -6.5970   32.2020 N.am  152  ASN152     -0.0877
    154  N          7.3100   -3.8850   39.3990 N.3   154  LEU154     -0.1245
    155  CA         5.9370   -3.6320   39.8140 C.3   154  LEU154      0.1561
    156  C          5.8920   -3.0440   41.2030 C.2   154  LEU154      0.2260
    157  O          6.7620   -3.3410   42.0030 O.2   154  LEU154     -0.2867
    158  CB         5.0800   -4.8970   39.7150 C.3   154  LEU154      0.0270
    159  CG         5.1470   -5.6790   38.4080 C.3   154  LEU154      0.0019
    160  CD1        4.3340   -6.9350   38.5120 C.3   154  LEU154      0.0001
    161  CD2        4.6940   -4.8510   37.2220 C.3   154  LEU154      0.0001
    162  N          9.2550   -8.5870   37.9500 N.3   165  CYS165     -0.1221
    163  CA         8.4330   -9.4510   37.1140 C.3   165  CYS165      0.1808
    164  C          9.1230   -9.7090   35.7770 C.2   165  CYS165      0.2601
    165  O         10.2370   -9.2160   35.5460 O.2   165  CYS165     -0.2717
    166  CB         7.0190   -8.8910   36.9360 C.3   165  CYS165      0.0970
    167  SG         6.8980   -7.5260   35.7400 S.3   165  CYS165     -0.0800
    168  N          8.4670  -10.5070   34.9070 N.am  166  ASP166     -0.1973
    169  CA         8.9550  -10.8970   33.5790 C.3   166  ASP166      0.1709
    170  C         10.2470  -11.6880   33.5950 C.2   166  ASP166      0.2293
    171  O         11.3360  -11.1340   33.4100 O.2   166  ASP166     -0.2864
    172  CB         9.0120   -9.7280   32.5720 C.3   166  ASP166      0.1436
    173  CG         9.3800  -10.1410   31.1380 C.2   166  ASP166      0.3671
    174  OD1        9.4500  -11.3690   30.8620 O.co2 166  ASP166     -0.2456
    175  OD2        9.6100   -9.2430   30.3030 O.co2 166  ASP166     -0.2456
@<TRIPOS>BOND
     1    20    21    1
     2    23    22    2
     3    22    21    1
     4    21    24    1
     5    24    25    1
     6    26    25   ar
     7    26    28   ar
     8    25    27   ar
     9     7     5    1
    10     6     5    1
    11    28    30   ar
    12    27    29   ar
    13    19    18    2
    14    18    17    1
    15     5     2    1
    16    30    29   ar
    17   145   143   am
    18    17    16    1
    19    31    32    1
    20     2     1    1
    21     2     3    1
    22   144   143    2
    23   143   142    1
    24    16    10   am
    25     4     3    2
    26     3     8   am
    27    34    33    2
    28    50    51    1
    29    50    49    1
    30    10    11    2
    31    10     9    1
    32   175   173   ar
    33    32    33    1
    34    32    35    1
    35     8     9    1
    36    37    35    1
    37    45    46    2
    38    45    44    1
    39    59    58   ar
    40   174   173   ar
    41   142   141    1
    42    48    49    1
    43    48    47    1
    44     9    12    1
    45    35    36    1
    46   173   172    1
    47    52    53    1
    48   141   138    1
    49    44    47    1
    50    44    43    1
    51    56    53    1
    52    56    57    1
    53    58    57    1
    54    58    60   ar
    55   153   151   am
    56    53    54    1
    57   152   151    2
    58    12    13    1
    59    12    14    1
    60   172   169    1
    61   151   150    1
    62    13    15    1
    63   138   137    1
    64   138   139    1
    65   171   170    2
    66   135   134    1
    67    54    55    2
    68   169   170    1
    69   169   168    1
    70   132   131    1
    71   132   133    1
    72   139   140    2
    73   139   146   am
    74   131   130    1
    75   146   147    1
    76   150   147    1
    77   134   133    2
    78   134   136    1
    79   147   148    1
    80   168   164   am
    81   126   127    1
    82   127   130    1
    83   127   128    1
    84   124   123    1
    85   165   164    2
    86   125   123    1
    87   167   166    1
    88   164   163    1
    89   129   128    2
    90    74    73    1
    91   123   120    1
    92    40    39    1
    93    40    41    2
    94   148   149    2
    95    42    39    1
    96    39    38    1
    97   166   163    1
    98   163   162    1
    99    73    75    1
   100    73    72    1
   101   161   159    1
   102   120   121    1
   103   120   119    1
   104    92    90   ar
   105    92    94   ar
   106   121   122    2
   107   117   116   ar
   108   119   112   am
   109    95    94    1
   110    72    69    1
   111    90    89   ar
   112   106   105    2
   113   159   160    1
   114   159   158    1
   115    68    69    1
   116   118   116   ar
   117    94    93   ar
   118   116   115    1
   119   112   113    2
   120   112   111    1
   121    66    65    1
   122    69    70    1
   123   111   110    1
   124   111   114    1
   125   105   110   am
   126   105   104    1
   127    99    98    2
   128   154   155    1
   129    89    88    1
   130    89    91   ar
   131   158   155    1
   132   155   156    1
   133    93    91   ar
   134    71    70    2
   135    79    78    2
   136   115   114    1
   137    88    85    1
   138   104   107    1
   139   104   103    1
   140    70    76   am
   141    65    67    1
   142    65    62    1
   143    85    84    1
   144    85    86    1
   145    98   103   am
   146    98    97    1
   147    96    86   am
   148    96    97    1
   149   107   108    1
   150    78    84   am
   151    78    77    1
   152   103   109    1
   153    64    63    2
   154    76    77    1
   155   156   157    2
   156    86    87    2
   157    97   100    1
   158    62    63    1
   159    62    61    1
   160   100   102    1
   161   100   101    1
   162    77    80    1
   163   108   109    1
   164    80    81    1
   165    81    83   ar
   166    81    82   ar
