@<TRIPOS>MOLECULE
tmp/4acdB00.pdb
 180 171 0 0 0
SMALL
GASTEIGER

@<TRIPOS>ATOM
      1  N         51.2410    8.6540   31.9640 N.3    26  LYS26      -0.1231
      2  CA        50.8550    7.4850   31.1630 C.3    26  LYS26       0.1693
      3  C         49.3930    7.6830   30.7400 C.2    26  LYS26       0.2592
      4  O         48.6440    8.3260   31.4740 O.2    26  LYS26      -0.2718
      5  CB        50.9350    6.1950   32.0150 C.3    26  LYS26       0.0285
      6  CG        52.2220    6.0140   32.8210 C.3    26  LYS26       0.0035
      7  CD        51.9580    5.4130   34.1960 C.3    26  LYS26       0.0206
      8  CE        53.1920    5.4560   35.0620 C.3    26  LYS26       0.1093
      9  NZ        52.8490    5.4970   36.5100 N.3    26  LYS26      -0.1314
     10  N         48.9710    7.0950   29.6040 N.am   27  VAL27      -0.1966
     11  CA        47.5870    7.1460   29.1300 C.3    27  VAL27       0.1727
     12  C         46.7650    5.9860   29.7140 C.2    27  VAL27       0.2616
     13  O         47.2330    4.8470   29.7310 O.2    27  VAL27      -0.2715
     14  CB        47.5210    7.1900   27.6090 C.3    27  VAL27       0.0290
     15  CG1       46.0790    7.1390   27.1280 C.3    27  VAL27       0.0023
     16  CG2       48.2100    8.4390   27.0900 C.3    27  VAL27       0.0023
     17  N         45.5640    6.2810   30.2430 N.am   28  ILE28      -0.1977
     18  CA        44.7130    5.2430   30.8250 C.3    28  ILE28       0.1596
     19  C         43.3960    5.0180   30.0760 C.2    28  ILE28       0.2287
     20  O         42.7190    4.0120   30.3070 O.2    28  ILE28      -0.2864
     21  CB        44.5680    5.3390   32.3700 C.3    28  ILE28       0.0276
     22  CG1       43.7450    6.5770   32.8250 C.3    28  ILE28       0.0022
     23  CG2       45.9420    5.2360   33.0520 C.3    28  ILE28       0.0022
     24  CD1       43.7130    6.8740   34.3580 C.3    28  ILE28       0.0001
     25  N         35.3190   11.7690   23.7280 N.3    33  PHE33      -0.1241
     26  CA        35.6060   12.9260   24.5810 C.3    33  PHE33       0.1605
     27  C         37.0170   13.5350   24.4460 C.2    33  PHE33       0.2264
     28  O         37.1620   14.7630   24.3930 O.2    33  PHE33      -0.2867
     29  CB        35.3470   12.5680   26.0560 C.3    33  PHE33       0.0534
     30  CG        36.2580   11.5050   26.6210 C.ar   33  PHE33      -0.0203
     31  CD1       35.9450   10.1640   26.4850 C.ar   33  PHE33      -0.0042
     32  CD2       37.4310   11.8490   27.2880 C.ar   33  PHE33      -0.0042
     33  CE1       36.7990    9.1820   26.9770 C.ar   33  PHE33      -0.0003
     34  CE2       38.3010   10.8660   27.7520 C.ar   33  PHE33      -0.0003
     35  CZ        37.9740    9.5390   27.6050 C.ar   33  PHE33      -0.0000
     36  N         42.3030   10.4130   28.8320 N.3    36  VAL36      -0.1245
     37  CA        42.4500   10.3740   30.2860 C.3    36  VAL36       0.1561
     38  C         43.8630    9.8360   30.5680 C.2    36  VAL36       0.2260
     39  O         44.2390    8.7650   30.0590 O.2    36  VAL36      -0.2867
     40  CB        41.3540    9.5670   31.0470 C.3    36  VAL36       0.0252
     41  CG1       41.5190    9.7030   32.5650 C.3    36  VAL36       0.0019
     42  CG2       39.9670   10.0130   30.6400 C.3    36  VAL36       0.0019
     43  N         47.1060    9.2490   33.6120 N.3    38  GLN38      -0.1245
     44  CA        47.4130    8.9770   35.0050 C.3    38  GLN38       0.1566
     45  C         48.7450    9.6920   35.1700 C.2    38  GLN38       0.2260
     46  O         49.5500    9.7380   34.2310 O.2    38  GLN38      -0.2867
     47  CB        47.5870    7.4850   35.2610 C.3    38  GLN38       0.0367
     48  CG        47.8530    7.1360   36.7160 C.3    38  GLN38       0.0905
     49  CD        48.7590    5.9400   36.8150 C.2    38  GLN38       0.2608
     50  OE1       49.9840    6.0630   36.8890 O.2    38  GLN38      -0.2717
     51  NE2       48.1830    4.7530   36.7480 N.am   38  GLN38      -0.0878
     52  N         44.1930   11.4980   38.0360 N.3    49  ALA49      -0.1245
     53  CA        43.8060   11.3000   36.6570 C.3    49  ALA49       0.1562
     54  C         43.6200   12.6930   36.0540 C.2    49  ALA49       0.2260
     55  O         43.1010   13.5960   36.7180 O.2    49  ALA49      -0.2867
     56  CB        42.5190   10.5100   36.5690 C.3    49  ALA49       0.0290
     57  N         41.8280   14.3520   32.8450 N.3    51  LYS51      -0.1245
     58  CA        40.9060   14.2090   31.7290 C.3    51  LYS51       0.1561
     59  C         41.1070   15.4520   30.8490 C.2    51  LYS51       0.2260
     60  O         40.8160   16.5660   31.2750 O.2    51  LYS51      -0.2867
     61  CB        39.4500   14.0600   32.2220 C.3    51  LYS51       0.0271
     62  CG        38.4490   13.9480   31.0780 C.3    51  LYS51       0.0035
     63  CD        37.0030   13.8380   31.5160 C.3    51  LYS51       0.0206
     64  CE        36.1720   13.6470   30.2660 C.3    51  LYS51       0.1093
     65  NZ        34.8370   13.0600   30.5510 N.3    51  LYS51      -0.1314
     66  N         34.2510   10.9610   42.0280 N.3    76  VAL76      -0.1245
     67  CA        35.6220   11.3300   41.7300 C.3    76  VAL76       0.1561
     68  C         35.7110   12.8510   41.8570 C.2    76  VAL76       0.2260
     69  O         34.8930   13.5760   41.2900 O.2    76  VAL76      -0.2867
     70  CB        35.9780   10.7140   40.3390 C.3    76  VAL76       0.0252
     71  CG1       36.0450   11.7340   39.2080 C.3    76  VAL76       0.0019
     72  CG2       37.2090    9.8350   40.4080 C.3    76  VAL76       0.0019
     73  N         41.6490   15.0160   38.4590 N.3    98  LEU98      -0.1231
     74  CA        40.7120   14.2360   39.2600 C.3    98  LEU98       0.1693
     75  C         41.3860   13.2200   40.1670 C.2    98  LEU98       0.2592
     76  O         42.5490   12.8640   39.9640 O.2    98  LEU98      -0.2718
     77  CB        39.7930   13.4240   38.3100 C.3    98  LEU98       0.0284
     78  CG        39.0460   14.1400   37.2020 C.3    98  LEU98       0.0019
     79  CD1       38.6190   13.1610   36.1300 C.3    98  LEU98       0.0001
     80  CD2       37.8270   14.8180   37.7360 C.3    98  LEU98       0.0001
     81  N         40.5910   12.6370   41.0640 N.am   99  ASP99      -0.1960
     82  CA        41.0110   11.5220   41.8880 C.3    99  ASP99       0.1840
     83  C         41.2850   10.3370   40.9420 C.2    99  ASP99       0.2622
     84  O         40.5710   10.1700   39.9420 O.2    99  ASP99      -0.2715
     85  CB        39.8610   11.1140   42.8350 C.3    99  ASP99       0.1450
     86  CG        39.5750   12.0140   44.0210 C.2    99  ASP99       0.3671
     87  OD1       40.4420   12.8540   44.3600 O.co2  99  ASP99      -0.2456
     88  OD2       38.5250   11.8250   44.6620 O.co2  99  ASP99      -0.2456
     89  N         42.3240    9.5260   41.2460 N.am  100  TYR100     -0.1960
     90  CA        42.6220    8.3180   40.4910 C.3   100  TYR100      0.1771
     91  C         42.1250    7.1430   41.3410 C.2   100  TYR100      0.2619
     92  O         42.4640    7.0420   42.5210 O.2   100  TYR100     -0.2715
     93  CB        44.1220    8.1870   40.1630 C.3   100  TYR100      0.0574
     94  CG        44.4890    6.8450   39.5640 C.ar  100  TYR100     -0.0198
     95  CD1       44.2870    6.5830   38.2090 C.ar  100  TYR100     -0.0009
     96  CD2       44.9940    5.8180   40.3600 C.ar  100  TYR100     -0.0009
     97  CE1       44.5690    5.3310   37.6650 C.ar  100  TYR100      0.0417
     98  CE2       45.2630    4.5580   39.8290 C.ar  100  TYR100      0.0417
     99  CZ        45.0620    4.3230   38.4800 C.ar  100  TYR100      0.1957
    100  OH        45.3710    3.0900   37.9570 O.3   100  TYR100     -0.2866
    101  N         41.2630    6.2990   40.7700 N.am  101  VAL101     -0.1964
    102  CA        40.7540    5.1340   41.4910 C.3   101  VAL101      0.1712
    103  C         41.1800    3.9720   40.6030 C.2   101  VAL101      0.2458
    104  O         41.0100    4.0770   39.3870 O.2   101  VAL101     -0.2730
    105  CB        39.2550    5.2240   41.8350 C.3   101  VAL101      0.0289
    106  CG1       38.8360    4.0920   42.7470 C.3   101  VAL101      0.0023
    107  CG2       38.9320    6.5500   42.5010 C.3   101  VAL101      0.0023
    108  N         41.9210    2.9720   41.1490 N.am  102  PRO102     -0.2716
    109  CA        42.6060    2.0010   40.2760 C.3   102  PRO102      0.1536
    110  C         41.8350    1.0290   39.4140 C.2   102  PRO102      0.2598
    111  O         42.3300    0.6650   38.3450 O.2   102  PRO102     -0.2715
    112  CB        43.5530    1.2870   41.2330 C.3   102  PRO102      0.0310
    113  CG        42.8700    1.3990   42.5670 C.3   102  PRO102      0.0237
    114  CD        42.2950    2.7640   42.5680 C.3   102  PRO102      0.0939
    115  N         40.6740    0.5760   39.8700 N.am  103  GLU103     -0.1964
    116  CA        39.9140   -0.4080   39.1150 C.3   103  GLU103      0.1733
    117  C         38.5730    0.1180   38.6870 C.2   103  GLU103      0.2617
    118  O         38.2150    1.2150   39.0680 O.2   103  GLU103     -0.2715
    119  CB        39.7800   -1.7190   39.9170 C.3   103  GLU103      0.0429
    120  CG        40.9410   -2.6900   39.7420 C.3   103  GLU103      0.1163
    121  CD        41.2530   -3.1630   38.3270 C.2   103  GLU103      0.3649
    122  OE1       40.3180   -3.2360   37.4920 O.co2 103  GLU103     -0.2457
    123  OE2       42.4380   -3.4730   38.0580 O.co2 103  GLU103     -0.2457
    124  N         37.8510   -0.6440   37.8610 N.am  104  THR104     -0.1951
    125  CA        36.4980   -0.3480   37.4130 C.3   104  THR104      0.1897
    126  C         35.6100   -1.5760   37.6730 C.2   104  THR104      0.2313
    127  O         36.1050   -2.6950   37.5680 O.2   104  THR104     -0.2863
    128  CB        36.4760    0.0270   35.9330 C.3   104  THR104      0.1794
    129  OG1       36.6320   -1.1410   35.1350 O.3   104  THR104     -0.2208
    130  CG2       37.5030    1.0560   35.5680 C.3   104  THR104      0.0378
    131  N         36.0250   -4.2900   34.7750 N.3   107  ARG107     -0.1245
    132  CA        37.1890   -5.1570   34.8210 C.3   107  ARG107      0.1563
    133  C         36.9790   -6.2270   35.8820 C.2   107  ARG107      0.2260
    134  O         37.2150   -7.4020   35.6080 O.2   107  ARG107     -0.2867
    135  CB        38.4460   -4.3250   35.1280 C.3   107  ARG107      0.0307
    136  CG        39.0580   -3.6050   33.9170 C.3   107  ARG107      0.0489
    137  CD        40.4170   -4.1790   33.5350 C.3   107  ARG107      0.2205
    138  NE        41.2070   -3.3330   32.6270 N.pl3 107  ARG107     -0.0865
    139  CZ        40.8920   -3.0360   31.3620 C.cat 107  ARG107      0.5346
    140  NH1       39.7470   -3.4570   30.8360 N.pl3 107  ARG107      0.1354
    141  NH2       41.7030   -2.2860   30.6280 N.pl3 107  ARG107      0.1354
    142  N         31.8830    0.5410   33.4890 N.3   151  GLN151     -0.1231
    143  CA        33.1040    1.2740   33.0980 C.3   151  GLN151      0.1698
    144  C         33.2790    2.6550   33.8040 C.2   151  GLN151      0.2592
    145  O         34.3970    3.2220   33.8250 O.2   151  GLN151     -0.2718
    146  CB        33.0900    1.5150   31.5810 C.3   151  GLN151      0.0381
    147  CG        33.1010    0.2380   30.7450 C.3   151  GLN151      0.0905
    148  CD        31.7690   -0.1100   30.1000 C.2   151  GLN151      0.2608
    149  OE1       30.7850   -0.4910   30.7770 O.2   151  GLN151     -0.2717
    150  NE2       31.7370   -0.0480   28.7570 N.am  151  GLN151     -0.0878
    151  N         32.1570    3.2240   34.2880 N.am  152  ASN152     -0.1974
    152  CA        32.0410    4.5260   34.9340 C.3   152  ASN152      0.1688
    153  C         31.9800    4.4590   36.4540 C.2   152  ASN152      0.2292
    154  O         31.8060    5.4870   37.1200 O.2   152  ASN152     -0.2864
    155  CB        30.8230    5.2120   34.3880 C.3   152  ASN152      0.1181
    156  CG        31.0660    5.7970   33.0350 C.2   152  ASN152      0.2629
    157  OD1       32.2100    5.9630   32.5910 O.2   152  ASN152     -0.2716
    158  ND2       29.9930    6.1690   32.3730 N.am  152  ASN152     -0.0877
    159  N         34.2610    3.2660   39.4150 N.3   154  LEU154     -0.1245
    160  CA        35.6310    2.9570   39.8090 C.3   154  LEU154      0.1561
    161  C         35.6730    2.3600   41.2090 C.2   154  LEU154      0.2260
    162  O         34.8350    2.6940   42.0360 O.2   154  LEU154     -0.2867
    163  CB        36.4970    4.2250   39.7650 C.3   154  LEU154      0.0270
    164  CG        36.4630    5.0490   38.5070 C.3   154  LEU154      0.0019
    165  CD1       37.2300    6.3170   38.7060 C.3   154  LEU154      0.0001
    166  CD2       37.0130    4.2790   37.3290 C.3   154  LEU154      0.0001
    167  N         32.3540    8.1840   37.9920 N.3   165  CYS165     -0.1221
    168  CA        33.1600    9.0470   37.1360 C.3   165  CYS165      0.1808
    169  C         32.4780    9.2710   35.8120 C.2   165  CYS165      0.2601
    170  O         31.3710    8.7650   35.5930 O.2   165  CYS165     -0.2717
    171  CB        34.5950    8.5350   36.9820 C.3   165  CYS165      0.0970
    172  SG        34.7830    7.0970   35.9000 S.3   165  CYS165     -0.0800
    173  N         33.1120   10.0910   34.9590 N.am  166  ASP166     -0.1973
    174  CA        32.6660   10.4950   33.6400 C.3   166  ASP166      0.1709
    175  C         31.3800   11.3060   33.6850 C.2   166  ASP166      0.2293
    176  O         30.2790   10.7650   33.5810 O.2   166  ASP166     -0.2864
    177  CB        32.6070    9.3060   32.6670 C.3   166  ASP166      0.1436
    178  CG        32.1900    9.6420   31.2470 C.2   166  ASP166      0.3671
    179  OD1       32.1470   10.8480   30.9040 O.co2 166  ASP166     -0.2456
    180  OD2       31.8720    8.7030   30.4900 O.co2 166  ASP166     -0.2456
@<TRIPOS>BOND
     1    25    26    1
     2    28    27    2
     3    27    26    1
     4    26    29    1
     5    29    30    1
     6    31    30   ar
     7    31    33   ar
     8    30    32   ar
     9    33    35   ar
    10    16    14    1
    11    15    14    1
    12    32    34   ar
    13    35    34   ar
    14    14    11    1
    15   150   148   am
    16    36    37    1
    17    11    10    1
    18    11    12    1
    19    10     3   am
    20    12    13    2
    21    12    17   am
    22    39    38    2
    23    19    20    2
    24    19    18    1
    25   148   147    1
    26   148   149    2
    27    17    18    1
    28    64    65    1
    29    64    63    1
    30    37    38    1
    31    37    40    1
    32   180   178   ar
    33   141   139    1
    34    42    40    1
    35     3     2    1
    36     3     4    2
    37   147   146    1
    38    18    21    1
    39   140   139    1
    40    59    60    2
    41    59    58    1
    42   179   178   ar
    43    40    41    1
    44    62    63    1
    45    62    61    1
    46     2     1    1
    47     2     5    1
    48   178   177    1
    49   139   138    2
    50   146   143    1
    51    58    61    1
    52    58    57    1
    53     5     6    1
    54    21    22    1
    55    21    23    1
    56   158   156   am
    57   157   156    2
    58   138   137    1
    59   177   174    1
    60     6     7    1
    61    22    24    1
    62   156   155    1
    63   143   142    1
    64   143   144    1
    65   137   136    1
    66   176   175    2
    67    43    44    1
    68   174   175    1
    69   174   173    1
    70   144   145    2
    71   144   151   am
    72   136   135    1
    73     7     8    1
    74    46    45    2
    75   151   152    1
    76   155   152    1
    77   131   132    1
    78   132   135    1
    79   132   133    1
    80   152   153    1
    81   173   169   am
    82    44    45    1
    83    44    47    1
    84     8     9    1
    85   129   128    1
    86    47    48    1
    87   130   128    1
    88   170   169    2
    89   134   133    2
    90   169   168    1
    91   172   171    1
    92   128   125    1
    93    54    53    1
    94    54    55    2
    95    79    78    1
    96   153   154    2
    97    56    53    1
    98    53    52    1
    99    48    49    1
   100    51    49   am
   101    49    50    2
   102   171   168    1
   103   168   167    1
   104    78    80    1
   105    78    77    1
   106   166   164    1
   107   125   126    1
   108   125   124    1
   109   122   121   ar
   110   127   126    2
   111    97    95   ar
   112    97    99   ar
   113   124   117   am
   114   100    99    1
   115   123   121   ar
   116    95    94   ar
   117    77    74    1
   118   121   120    1
   119   111   110    2
   120    73    74    1
   121    99    98   ar
   122   164   165    1
   123   164   163    1
   124   117   118    2
   125   117   116    1
   126   116   115    1
   127   116   119    1
   128    71    70    1
   129    74    75    1
   130   104   103    2
   131   110   115   am
   132   110   109    1
   133   159   160    1
   134    94    93    1
   135    94    96   ar
   136   120   119    1
   137   163   160    1
   138   160   161    1
   139    98    96   ar
   140    84    83    2
   141    76    75    2
   142    93    90    1
   143    75    81   am
   144   109   108    1
   145   109   112    1
   146    70    72    1
   147    70    67    1
   148    90    89    1
   149    90    91    1
   150   103   108   am
   151   103   102    1
   152   101    91   am
   153   101   102    1
   154    83    89   am
   155    83    82    1
   156    81    82    1
   157   108   114    1
   158   161   162    2
   159   112   113    1
   160    69    68    2
   161    91    92    2
   162   102   105    1
   163    67    68    1
   164    67    66    1
   165   105   107    1
   166   105   106    1
   167    82    85    1
   168   113   114    1
   169    85    86    1
   170    86    87   ar
   171    86    88   ar
