@<TRIPOS>MOLECULE
tmp/4acfF00.pdb
 108 104 0 0 0
SMALL
GASTEIGER

@<TRIPOS>ATOM
      1  N         11.2790  101.2990   17.8700 N.3   126  TYR126     -0.1241
      2  CA        11.6900   99.9100   17.8800 C.3   126  TYR126      0.1605
      3  C         11.7510   99.3590   19.3080 C.2   126  TYR126      0.2264
      4  O         12.2470  100.0170   20.2140 O.2   126  TYR126     -0.2867
      5  CB        13.0660   99.7540   17.2390 C.3   126  TYR126      0.0534
      6  CG        13.0610   99.9630   15.7560 C.ar  126  TYR126     -0.0201
      7  CD1       12.3660   99.0970   14.9210 C.ar  126  TYR126     -0.0009
      8  CD2       13.7890  101.0090   15.1770 C.ar  126  TYR126     -0.0009
      9  CE1       12.3680   99.2640   13.5600 C.ar  126  TYR126      0.0417
     10  CE2       13.8000  101.1900   13.8080 C.ar  126  TYR126      0.0417
     11  CZ        13.0970  100.3200   13.0120 C.ar  126  TYR126      0.1957
     12  OH        13.1110  100.4950   11.6750 O.3   126  TYR126     -0.2866
     13  N         12.8310   95.7840   21.2500 N.3   128  GLY128     -0.1225
     14  CA        13.4040   94.4480   21.3200 C.3   128  GLY128      0.1811
     15  C         13.1470   93.9690   22.7370 C.2   128  GLY128      0.2280
     16  O         13.5050   94.6500   23.7050 O.2   128  GLY128     -0.2866
     17  N         18.0440   85.3430   17.5540 N.3   211  GLU211     -0.1245
     18  CA        19.3520   85.8040   17.9390 C.3   211  GLU211      0.1567
     19  C         20.0560   84.8280   18.8790 C.2   211  GLU211      0.2260
     20  O         21.1830   84.4800   18.6390 O.2   211  GLU211     -0.2867
     21  CB        19.2670   87.1820   18.5780 C.3   211  GLU211      0.0388
     22  CG        18.6850   88.2340   17.6400 C.3   211  GLU211      0.1160
     23  CD        18.4490   89.5590   18.3440 C.2   211  GLU211      0.3649
     24  OE1       18.4070   89.5820   19.6080 O.co2 211  GLU211     -0.2457
     25  OE2       18.2880   90.5800   17.6330 O.co2 211  GLU211     -0.2457
     26  N         14.2970   92.5700   17.1830 N.3   229  PHE229     -0.1241
     27  CA        13.4210   93.6890   17.4780 C.3   229  PHE229      0.1605
     28  C         12.5280   93.9970   16.2670 C.2   229  PHE229      0.2264
     29  O         12.8390   93.6290   15.1290 O.2   229  PHE229     -0.2867
     30  CB        14.2780   94.9240   17.7980 C.3   229  PHE229      0.0534
     31  CG        15.0750   95.4090   16.6120 C.ar  229  PHE229     -0.0203
     32  CD1       14.4920   96.2710   15.6740 C.ar  229  PHE229     -0.0042
     33  CD2       16.3780   94.9610   16.3990 C.ar  229  PHE229     -0.0042
     34  CE1       15.2070   96.7060   14.5490 C.ar  229  PHE229     -0.0003
     35  CE2       17.1060   95.3840   15.2790 C.ar  229  PHE229     -0.0003
     36  CZ        16.5130   96.2640   14.3540 C.ar  229  PHE229     -0.0000
     37  N         14.2520   96.7860   25.2130 N.3   275  HIS275     -0.1241
     38  CA        15.2300   97.6340   24.5630 C.3   275  HIS275      0.1621
     39  C         14.4410   98.5280   23.6130 C.2   275  HIS275      0.2264
     40  O         13.6140   98.0300   22.8430 O.2   275  HIS275     -0.2867
     41  CB        16.2100   96.8130   23.7390 C.3   275  HIS275      0.0745
     42  CG        17.1410   95.9770   24.5470 C.ar  275  HIS275      0.0817
     43  ND1       18.5100   96.1350   24.4970 N.ar  275  HIS275     -0.2268
     44  CD2       16.9030   94.9810   25.4340 C.ar  275  HIS275      0.1154
     45  CE1       19.0710   95.2620   25.3150 C.ar  275  HIS275      0.1986
     46  NE2       18.1180   94.5540   25.8980 N.ar  275  HIS275     -0.2212
     47  N         14.3720  102.1970   21.0120 N.3   277  SER277     -0.1217
     48  CA        15.0190  103.3220   20.3130 C.3   277  SER277      0.1889
     49  C         14.0620  103.9820   19.3090 C.2   277  SER277      0.2288
     50  O         13.1810  103.3180   18.7710 O.2   277  SER277     -0.2866
     51  CB        16.2850  102.8730   19.5840 C.3   277  SER277      0.2089
     52  OG        15.9840  102.0250   18.5140 O.3   277  SER277     -0.2183
     53  N         13.7260  106.2050   15.7100 N.3   279  TRP279     -0.1241
     54  CA        14.3630  106.4840   14.4080 C.3   279  TRP279      0.1605
     55  C         13.4720  107.4230   13.6400 C.2   279  TRP279      0.2264
     56  O         12.2570  107.3870   13.8000 O.2   279  TRP279     -0.2867
     57  CB        14.5320  105.2010   13.5830 C.3   279  TRP279      0.0550
     58  CG        15.6750  104.3390   14.0110 C.ar  279  TRP279      0.0003
     59  CD1       15.9010  103.8300   15.2510 C.ar  279  TRP279      0.0946
     60  CD2       16.7650  103.9220   13.1950 C.ar  279  TRP279      0.0152
     61  NE1       17.0810  103.1240   15.2620 N.ar  279  TRP279     -0.2442
     62  CE2       17.6340  103.1700   14.0110 C.ar  279  TRP279      0.0810
     63  CE3       17.1100  104.1360   11.8530 C.ar  279  TRP279      0.0012
     64  CZ2       18.8200  102.5980   13.5230 C.ar  279  TRP279      0.0191
     65  CZ3       18.2950  103.5670   11.3650 C.ar  279  TRP279      0.0001
     66  CH2       19.1320  102.8090   12.2040 C.ar  279  TRP279      0.0015
     67  N         28.6840  102.6260   17.2230 N.3   356  ASN356     -0.1240
     68  CA        27.7280  102.5120   16.1190 C.3   356  ASN356      0.1653
     69  C         26.4470  103.2090   16.5220 C.2   356  ASN356      0.2266
     70  O         25.7430  102.7280   17.4130 O.2   356  ASN356     -0.2867
     71  CB        27.4520  101.0550   15.7660 C.3   356  ASN356      0.1155
     72  CG        26.5330  100.8980   14.5680 C.2   356  ASN356      0.2627
     73  OD1       25.9960  101.8710   14.0120 O.2   356  ASN356     -0.2716
     74  ND2       26.3330   99.6490   14.1670 N.am  356  ASN356     -0.0877
     75  N         23.6620  103.3520   15.1400 N.3   358  LYS358     -0.1231
     76  CA        22.4700  102.5530   14.8690 C.3   358  LYS358      0.1693
     77  C         22.1860  101.4910   15.9490 C.2   358  LYS358      0.2592
     78  O         21.0960  100.9460   15.9910 O.2   358  LYS358     -0.2718
     79  CB        22.5910  101.8930   13.5010 C.3   358  LYS358      0.0285
     80  CG        22.6790  102.8940   12.3430 C.3   358  LYS358      0.0035
     81  CD        22.7490  102.1960   11.0000 C.3   358  LYS358      0.0206
     82  CE        22.9420  103.1970    9.8590 C.3   358  LYS358      0.1093
     83  NZ        22.8790  102.5120    8.5420 N.3   358  LYS358     -0.1314
     84  N         23.1560  101.2040   16.8040 N.am  359  ALA359     -0.1966
     85  CA        22.9530  100.2280   17.9020 C.3   359  ALA359      0.1728
     86  C         22.6050  100.8790   19.2310 C.2   359  ALA359      0.2616
     87  O         22.2220  100.1840   20.1610 O.2   359  ALA359     -0.2715
     88  CB        24.1580   99.3320   18.0650 C.3   359  ALA359      0.0334
     89  N         22.7300  102.1980   19.3310 N.am  360  LYS360     -0.1963
     90  CA        22.5120  102.8710   20.6070 C.3   360  LYS360      0.1728
     91  C         21.0540  102.7880   21.0320 C.2   360  LYS360      0.2616
     92  O         20.1610  103.1240   20.2770 O.2   360  LYS360     -0.2715
     93  CB        22.9350  104.3400   20.5530 C.3   360  LYS360      0.0311
     94  CG        22.7810  105.1190   21.8810 C.3   360  LYS360      0.0038
     95  CD        23.5300  104.5030   23.0510 C.3   360  LYS360      0.0206
     96  CE        25.0000  104.2370   22.7570 C.3   360  LYS360      0.1093
     97  NZ        25.6850  103.6300   23.9310 N.3   360  LYS360     -0.1314
     98  N         20.8450  102.3830   22.2790 N.am  361  ARG361     -0.1977
     99  CA        19.5020  102.1680   22.8040 C.3   361  ARG361      0.1597
    100  C         19.4960  102.0830   24.3250 C.2   361  ARG361      0.2287
    101  O         20.5300  101.9640   24.9530 O.2   361  ARG361     -0.2864
    102  CB        18.8990  100.8890   22.2100 C.3   361  ARG361      0.0334
    103  CG        19.7250   99.6360   22.4470 C.3   361  ARG361      0.0492
    104  CD        19.2790   98.4900   21.5840 C.3   361  ARG361      0.2205
    105  NE        19.9040   97.2530   22.0380 N.pl3 361  ARG361     -0.0865
    106  CZ        21.0450   96.7480   21.5770 C.cat 361  ARG361      0.5346
    107  NH1       21.7390   97.3390   20.6150 N.pl3 361  ARG361      0.1354
    108  NH2       21.4970   95.6150   22.0940 N.pl3 361  ARG361      0.1354
@<TRIPOS>BOND
     1    83    82    1
     2    82    81    1
     3    81    80    1
     4    65    63   ar
     5    65    66   ar
     6    12    11    1
     7    63    60   ar
     8    66    64   ar
     9    80    79    1
    10    11     9   ar
    11    11    10   ar
    12    60    62   ar
    13    60    58   ar
    14    79    76    1
    15    64    62   ar
    16     9     7   ar
    17    57    58    1
    18    57    54    1
    19    55    56    2
    20    55    54    1
    21    10     8   ar
    22    62    61   ar
    23    58    59   ar
    24    73    72    2
    25    74    72   am
    26    36    34   ar
    27    36    35   ar
    28    54    53    1
    29    34    32   ar
    30    72    71    1
    31    76    75    1
    32    76    77    1
    33     7     6   ar
    34    29    28    2
    35     8     6   ar
    36    59    61   ar
    37    35    33   ar
    38    32    31   ar
    39     6     5    1
    40    71    68    1
    41    77    78    2
    42    77    84   am
    43    68    69    1
    44    68    67    1
    45    28    27    1
    46    33    31   ar
    47    69    70    2
    48    31    30    1
    49    84    85    1
    50    26    27    1
    51     5     2    1
    52    27    30    1
    53    17    18    1
    54    25    23   ar
    55    22    23    1
    56    22    21    1
    57     1     2    1
    58     2     3    1
    59    85    88    1
    60    85    86    1
    61    18    21    1
    62    18    19    1
    63    23    24   ar
    64    52    51    1
    65    20    19    2
    66    50    49    2
    67    86    89   am
    68    86    87    2
    69     3     4    2
    70    49    48    1
    71    89    90    1
    72    51    48    1
    73    92    91    2
    74    48    47    1
    75    93    90    1
    76    93    94    1
    77    90    91    1
    78   107   106    1
    79    91    98   am
    80    13    14    1
    81    14    15    1
    82   106   105    2
    83   106   108    1
    84   104   105    1
    85   104   103    1
    86    94    95    1
    87   102   103    1
    88   102    99    1
    89    98    99    1
    90    15    16    2
    91    96    95    1
    92    96    97    1
    93    99   100    1
    94    40    39    2
    95    39    38    1
    96    41    42    1
    97    41    38    1
    98   100   101    2
    99    43    42   ar
   100    43    45   ar
   101    42    44   ar
   102    38    37    1
   103    45    46   ar
   104    44    46   ar
