@<TRIPOS>MOLECULE
tmp/4acgB00.pdb
 177 167 0 0 0
SMALL
GASTEIGER

@<TRIPOS>ATOM
      1  N         -2.2390    0.3900   30.2790 N.3    28  ILE28      -0.1231
      2  CA        -1.4450    1.4870   30.8500 C.3    28  ILE28       0.1692
      3  C          0.0210    1.4730   30.3890 C.2    28  ILE28       0.2592
      4  O          0.7830    2.3970   30.7120 O.2    28  ILE28      -0.2718
      5  CB        -1.6150    1.6470   32.3900 C.3    28  ILE28       0.0266
      6  CG1       -1.1140    0.4010   33.1690 C.3    28  ILE28       0.0019
      7  CG2       -3.0540    2.0610   32.7420 C.3    28  ILE28       0.0020
      8  CD1       -1.1070    0.5160   34.6660 C.3    28  ILE28       0.0001
      9  N          0.3880    0.4390   29.6270 N.am   29  GLY29      -0.1957
     10  CA         1.7430    0.2370   29.1230 C.3    29  GLY29       0.1869
     11  C          1.8130   -0.8500   28.0790 C.2    29  GLY29       0.2309
     12  O          1.0710   -1.8250   28.1510 O.2    29  GLY29      -0.2863
     13  N          8.3020   -6.2130   26.8470 N.3    33  PHE33      -0.1241
     14  CA         7.7120   -7.1420   27.8220 C.3    33  PHE33       0.1605
     15  C          6.4190   -7.7370   27.2480 C.2    33  PHE33       0.2264
     16  O          6.3910   -8.9190   26.8620 O.2    33  PHE33      -0.2867
     17  CB         7.4070   -6.4360   29.1610 C.3    33  PHE33       0.0534
     18  CG         6.8970   -5.0160   29.1340 C.ar   33  PHE33      -0.0203
     19  CD1        7.7770   -3.9480   29.0410 C.ar   33  PHE33      -0.0042
     20  CD2        5.5540   -4.7410   29.3360 C.ar   33  PHE33      -0.0042
     21  CE1        7.3110   -2.6240   29.0760 C.ar   33  PHE33      -0.0003
     22  CE2        5.0830   -3.4150   29.3650 C.ar   33  PHE33      -0.0003
     23  CZ         5.9650   -2.3630   29.2430 C.ar   33  PHE33      -0.0000
     24  N          0.7050   -4.0290   29.9600 N.3    36  VAL36      -0.1245
     25  CA         0.4340   -3.7650   31.3630 C.3    36  VAL36       0.1561
     26  C         -0.9430   -3.1110   31.3640 C.2    36  VAL36       0.2260
     27  O         -1.2000   -2.1980   30.5710 O.2    36  VAL36      -0.2867
     28  CB         1.5210   -2.9220   32.0820 C.3    36  VAL36       0.0252
     29  CG1        1.2210   -2.8000   33.5660 C.3    36  VAL36       0.0019
     30  CG2        2.9090   -3.5190   31.8840 C.3    36  VAL36       0.0019
     31  N         -4.3820   -1.8200   33.8750 N.3    38  GLN38      -0.1245
     32  CA        -4.8520   -1.3710   35.1620 C.3    38  GLN38       0.1566
     33  C         -6.2210   -2.0540   35.2570 C.2    38  GLN38       0.2260
     34  O         -6.8740   -2.2510   34.2240 O.2    38  GLN38      -0.2867
     35  CB        -5.0230    0.1440   35.1660 C.3    38  GLN38       0.0367
     36  CG        -5.3450    0.7090   36.5380 C.3    38  GLN38       0.0905
     37  CD        -6.3310    1.8340   36.4300 C.2    38  GLN38       0.2608
     38  OE1       -7.5290    1.6340   36.2110 O.2    38  GLN38      -0.2717
     39  NE2       -5.8430    3.0390   36.5560 N.am   38  GLN38      -0.0878
     40  N         -2.3100   -3.7650   38.7930 N.3    49  ALA49      -0.1245
     41  CA        -1.7460   -3.7500   37.4560 C.3    49  ALA49       0.1562
     42  C         -1.6370   -5.2230   37.0890 C.2    49  ALA49       0.2260
     43  O         -1.3870   -6.0550   37.9600 O.2    49  ALA49      -0.2867
     44  CB        -0.3710   -3.0990   37.4480 C.3    49  ALA49       0.0290
     45  N          0.3750   -7.5830   34.3800 N.3    51  LYS51      -0.1245
     46  CA         1.3500   -7.6430   33.3010 C.3    51  LYS51       0.1561
     47  C          1.1100   -8.9340   32.5200 C.2    51  LYS51       0.2260
     48  O          1.1640  -10.0170   33.1040 O.2    51  LYS51      -0.2867
     49  CB         2.7730   -7.5550   33.8450 C.3    51  LYS51       0.0271
     50  CG         3.8530   -7.6900   32.7800 C.3    51  LYS51       0.0035
     51  CD         5.1940   -7.5780   33.4480 C.3    51  LYS51       0.0206
     52  CE         6.2880   -7.7700   32.4520 C.3    51  LYS51       0.1093
     53  NZ         7.5790   -7.3060   33.0030 N.3    51  LYS51      -0.1314
     54  N         10.8420  -14.3180   35.5120 N.3    63  GLU63      -0.1245
     55  CA        10.2960  -13.1710   36.2440 C.3    63  GLU63       0.1567
     56  C          9.3650  -13.6190   37.3560 C.2    63  GLU63       0.2260
     57  O          9.5020  -13.1630   38.4890 O.2    63  GLU63      -0.2867
     58  CB         9.6100  -12.1740   35.3060 C.3    63  GLU63       0.0388
     59  CG         9.1060  -10.9090   35.9970 C.3    63  GLU63       0.1160
     60  CD         8.4750   -9.8850   35.0740 C.2    63  GLU63       0.3649
     61  OE1        8.3930  -10.1840   33.8650 O.co2  63  GLU63      -0.2457
     62  OE2        8.0800   -8.7870   35.5400 O.co2  63  GLU63      -0.2457
     63  N          7.0870   -3.6310   43.9120 N.3    76  VAL76      -0.1245
     64  CA         5.7630   -3.9450   43.4460 C.3    76  VAL76       0.1561
     65  C          5.4650   -5.4450   43.7230 C.2    76  VAL76       0.2260
     66  O          6.1460   -6.3330   43.2340 O.2    76  VAL76      -0.2867
     67  CB         5.7100   -3.4670   41.9800 C.3    76  VAL76       0.0252
     68  CG1        5.4460   -4.5770   40.9940 C.3    76  VAL76       0.0019
     69  CG2        4.7390   -2.3030   41.8160 C.3    76  VAL76       0.0019
     70  N         -0.2210   -7.4110   39.9420 N.3    98  LEU98      -0.1231
     71  CA         0.7130   -6.6520   40.7730 C.3    98  LEU98       0.1693
     72  C          0.0480   -5.4960   41.4290 C.2    98  LEU98       0.2592
     73  O         -0.9970   -5.0360   40.9750 O.2    98  LEU98      -0.2718
     74  CB         1.8540   -6.0700   39.8790 C.3    98  LEU98       0.0284
     75  CG         2.5430   -7.0000   38.8640 C.3    98  LEU98       0.0019
     76  CD1        3.2650   -6.2300   37.8400 C.3    98  LEU98       0.0001
     77  CD2        3.4920   -7.9430   39.5500 C.3    98  LEU98       0.0001
     78  N          0.7180   -4.9390   42.4330 N.am   99  ASP99      -0.1960
     79  CA         0.3360   -3.6920   43.0840 C.3    99  ASP99       0.1840
     80  C          0.3120   -2.6200   41.9900 C.2    99  ASP99       0.2622
     81  O          1.1410   -2.6450   41.0820 O.2    99  ASP99      -0.2715
     82  CB         1.4330   -3.2640   44.0860 C.3    99  ASP99       0.1450
     83  CG         1.5790   -4.0270   45.4000 C.2    99  ASP99       0.3671
     84  OD1        0.5840   -4.6390   45.8540 O.co2  99  ASP99      -0.2456
     85  OD2        2.6250   -3.8720   46.0520 O.co2  99  ASP99      -0.2456
     86  N         -0.6220   -1.6770   42.0810 N.am  100  TYR100     -0.1960
     87  CA        -0.6940   -0.5290   41.1790 C.3   100  TYR100      0.1771
     88  C         -0.1270    0.7020   41.9160 C.2   100  TYR100      0.2619
     89  O         -0.5650    1.0240   43.0250 O.2   100  TYR100     -0.2715
     90  CB        -2.1310   -0.2750   40.6920 C.3   100  TYR100      0.0574
     91  CG        -2.2710    0.9740   39.8490 C.ar  100  TYR100     -0.0198
     92  CD1       -1.9820    0.9560   38.4890 C.ar  100  TYR100     -0.0009
     93  CD2       -2.6650    2.1840   40.4160 C.ar  100  TYR100     -0.0009
     94  CE1       -2.0780    2.1130   37.7120 C.ar  100  TYR100      0.0417
     95  CE2       -2.7340    3.3540   39.6540 C.ar  100  TYR100      0.0417
     96  CZ        -2.4550    3.3110   38.2990 C.ar  100  TYR100      0.1957
     97  OH        -2.5590    4.4550   37.5450 O.3   100  TYR100     -0.2866
     98  N          0.8760    1.3540   41.3110 N.am  101  VAL101     -0.1964
     99  CA         1.5090    2.5860   41.8100 C.3   101  VAL101      0.1712
    100  C          1.2620    3.6510   40.7270 C.2   101  VAL101      0.2458
    101  O          1.5480    3.3910   39.5570 O.2   101  VAL101     -0.2730
    102  CB         2.9810    2.3980   42.1660 C.3   101  VAL101      0.0289
    103  CG1        3.4900    3.5800   42.9730 C.3   101  VAL101      0.0023
    104  CG2        3.1750    1.1040   42.9560 C.3   101  VAL101      0.0023
    105  N          0.5920    4.7790   41.0750 N.am  102  PRO102     -0.2716
    106  CA         0.1170    5.7310   40.0470 C.3   102  PRO102      0.1536
    107  C          1.0550    6.4980   39.1220 C.2   102  PRO102      0.2598
    108  O          0.6470    6.8240   38.0300 O.2   102  PRO102     -0.2715
    109  CB        -0.8250    6.6530   40.8270 C.3   102  PRO102      0.0310
    110  CG        -0.3210    6.6120   42.2060 C.3   102  PRO102      0.0237
    111  CD         0.0780    5.1670   42.4030 C.3   102  PRO102      0.0939
    112  N          2.2490    6.8230   39.5440 N.am  103  GLU103     -0.1964
    113  CA         3.1800    7.6040   38.7310 C.3   103  GLU103      0.1733
    114  C          4.5260    6.9230   38.5320 C.2   103  GLU103      0.2617
    115  O          4.8040    5.9210   39.1780 O.2   103  GLU103     -0.2715
    116  CB         3.3850    9.0270   39.3340 C.3   103  GLU103      0.0429
    117  CG         2.4640   10.1030   38.7620 C.3   103  GLU103      0.1163
    118  CD         2.5190   10.3980   37.2620 C.2   103  GLU103      0.3649
    119  OE1        3.5310   10.0640   36.6040 O.co2 103  GLU103     -0.2457
    120  OE2        1.5340   10.9700   36.7420 O.co2 103  GLU103     -0.2457
    121  N          5.3610    7.4790   37.6260 N.am  104  THR104     -0.1951
    122  CA         6.7200    6.9950   37.3690 C.3   104  THR104      0.1897
    123  C          7.6970    8.1230   37.6410 C.2   104  THR104      0.2313
    124  O          7.3250    9.2800   37.4970 O.2   104  THR104     -0.2863
    125  CB         6.8850    6.4070   35.9530 C.3   104  THR104      0.1794
    126  OG1        6.8920    7.4440   34.9730 O.3   104  THR104     -0.2208
    127  CG2        5.8460    5.3380   35.6250 C.3   104  THR104      0.0378
    128  N          8.0520   10.3310   34.3950 N.3   107  ARG107     -0.1245
    129  CA         7.0370   11.3520   34.1610 C.3   107  ARG107      0.1563
    130  C          7.1980   12.5570   35.0950 C.2   107  ARG107      0.2260
    131  O          7.0970   13.6930   34.6450 O.2   107  ARG107     -0.2867
    132  CB         5.6580   10.7530   34.3220 C.3   107  ARG107      0.0307
    133  CG         4.9270   10.5540   33.0400 C.3   107  ARG107      0.0489
    134  CD         3.7630    9.6660   33.3290 C.3   107  ARG107      0.2205
    135  NE         2.6130   10.0050   32.5120 N.pl3 107  ARG107     -0.0865
    136  CZ         1.4170   10.3550   32.9790 C.cat 107  ARG107      0.5346
    137  NH1        1.1970   10.4260   34.2870 N.pl3 107  ARG107      0.1354
    138  NH2        0.4220   10.6080   32.1410 N.pl3 107  ARG107      0.1354
    139  N         11.9280    4.9560   34.2490 N.3   151  GLN151     -0.1231
    140  CA        10.6810    4.3460   33.7850 C.3   151  GLN151      0.1698
    141  C         10.2460    3.1110   34.6140 C.2   151  GLN151      0.2592
    142  O          9.0740    2.7200   34.5750 O.2   151  GLN151     -0.2718
    143  CB        10.8170    3.9900   32.3020 C.3   151  GLN151      0.0381
    144  CG         9.5810    4.3580   31.5020 C.3   151  GLN151      0.0905
    145  CD         9.9140    4.9730   30.1570 C.2   151  GLN151      0.2608
    146  OE1       11.0230    4.8120   29.6020 O.2   151  GLN151     -0.2717
    147  NE2        8.9420    5.6890   29.5900 N.am  151  GLN151     -0.0878
    148  N         11.1910    2.5160   35.3690 N.am  152  ASN152     -0.1974
    149  CA        10.9940    1.3250   36.1950 C.3   152  ASN152      0.1688
    150  C         10.8530    1.6280   37.6850 C.2   152  ASN152      0.2292
    151  O         10.7620    0.7060   38.5000 O.2   152  ASN152     -0.2864
    152  CB        12.1170    0.3380   35.9370 C.3   152  ASN152      0.1181
    153  CG        11.8730   -0.4180   34.6780 C.2   152  ASN152      0.2629
    154  OD1       10.7620   -0.4330   34.1320 O.2   152  ASN152     -0.2716
    155  ND2       12.8970   -1.0660   34.1910 N.am  152  ASN152     -0.0877
    156  N          8.3550    3.4510   40.1620 N.3   154  LEU154     -0.1245
    157  CA         6.9780    3.8800   40.3730 C.3   154  LEU154      0.1561
    158  C          6.8190    4.7070   41.6490 C.2   154  LEU154      0.2260
    159  O          7.4880    4.4080   42.6290 O.2   154  LEU154     -0.2867
    160  CB         6.0600    2.6350   40.4320 C.3   154  LEU154      0.0270
    161  CG         6.0020    1.6900   39.2470 C.3   154  LEU154      0.0019
    162  CD1        4.9360    0.6550   39.4900 C.3   154  LEU154      0.0001
    163  CD2        5.7290    2.4040   37.9330 C.3   154  LEU154      0.0001
    164  N          9.8100   -1.7090   39.9560 N.3   165  CYS165     -0.1221
    165  CA         9.0470   -2.6150   39.0960 C.3   165  CYS165      0.1808
    166  C          9.9300   -3.1400   37.9770 C.2   165  CYS165      0.2601
    167  O         11.1330   -2.8080   37.9370 O.2   165  CYS165     -0.2717
    168  CB         7.7570   -1.9830   38.5820 C.3   165  CYS165      0.0970
    169  SG         7.9810   -0.7940   37.2450 S.3   165  CYS165     -0.0800
    170  N          9.3480   -4.0210   37.1250 N.am  166  ASP166     -0.1973
    171  CA         9.9880   -4.6920   36.0020 C.3   166  ASP166      0.1709
    172  C         11.0440   -5.6780   36.4290 C.2   166  ASP166      0.2293
    173  O         12.2300   -5.3340   36.5240 O.2   166  ASP166     -0.2864
    174  CB        10.5780   -3.7010   34.9730 C.3   166  ASP166      0.1436
    175  CG        11.0530   -4.3750   33.7050 C.2   166  ASP166      0.3671
    176  OD1       10.5930   -5.5180   33.4210 O.co2 166  ASP166     -0.2456
    177  OD2       11.8170   -3.7400   32.9530 O.co2 166  ASP166     -0.2456
@<TRIPOS>BOND
     1    13    14    1
     2    16    15    2
     3    15    14    1
     4    14    17    1
     5    11    12    2
     6    11    10    1
     7    19    21   ar
     8    19    18   ar
     9    21    23   ar
    10    10     9    1
    11    18    17    1
    12    18    20   ar
    13    23    22   ar
    14    20    22   ar
    15   147   145   am
    16   146   145    2
    17     9     3   am
    18    24    25    1
    19   145   144    1
    20     1     2    1
    21     3     4    2
    22     3     2    1
    23    27    26    2
    24     2     5    1
    25    25    26    1
    26    25    28    1
    27   144   143    1
    28    30    28    1
    29    28    29    1
    30   138   136    1
    31   143   140    1
    32     5     7    1
    33     5     6    1
    34    52    53    1
    35    52    51    1
    36   135   136    2
    37   135   134    1
    38    47    48    2
    39    47    46    1
    40    50    51    1
    41    50    49    1
    42   177   175   ar
    43   136   137    1
    44   133   134    1
    45   133   132    1
    46     6     8    1
    47    46    49    1
    48    46    45    1
    49   176   175   ar
    50   175   174    1
    51   140   139    1
    52   140   141    1
    53    61    60   ar
    54    31    32    1
    55   154   153    2
    56   129   132    1
    57   129   128    1
    58   129   130    1
    59   155   153   am
    60    34    33    2
    61   142   141    2
    62   141   148   am
    63   131   130    2
    64   153   152    1
    65   126   125    1
    66   174   171    1
    67    60    62   ar
    68    60    59    1
    69    32    35    1
    70    32    33    1
    71    35    36    1
    72    58    59    1
    73    58    55    1
    74   148   149    1
    75    54    55    1
    76   127   125    1
    77   152   149    1
    78   125   122    1
    79   171   172    1
    80   171   170    1
    81   149   150    1
    82    38    37    2
    83    55    56    1
    84   172   173    2
    85    37    36    1
    86    37    39   am
    87   119   118   ar
    88   120   118   ar
    89    42    41    1
    90    42    43    2
    91   170   166   am
    92   169   168    1
    93   118   117    1
    94    56    57    2
    95   122   121    1
    96   122   123    1
    97    44    41    1
    98    41    40    1
    99   124   123    2
   100    97    96    1
   101   121   114   am
   102   150   151    2
   103    94    96   ar
   104    94    92   ar
   105    76    75    1
   106   163   161    1
   107   167   166    2
   108   166   165    1
   109   108   107    2
   110    96    95   ar
   111    92    91   ar
   112   114   113    1
   113   114   115    2
   114   168   165    1
   115   113   116    1
   116   113   112    1
   117   117   116    1
   118    75    77    1
   119    75    74    1
   120   165   164    1
   121   107   112   am
   122   107   106    1
   123   161   162    1
   124   161   160    1
   125   101   100    2
   126    95    93   ar
   127    91    93   ar
   128    91    90    1
   129    74    71    1
   130    70    71    1
   131   106   109    1
   132   106   105    1
   133   156   157    1
   134   157   160    1
   135   157   158    1
   136    90    87    1
   137   100   105   am
   138   100    99    1
   139    71    72    1
   140   109   110    1
   141    73    72    2
   142    68    67    1
   143   105   111    1
   144    81    80    2
   145    87    88    1
   146    87    86    1
   147    98    99    1
   148    98    88   am
   149    72    78   am
   150   158   159    2
   151    99   102    1
   152    69    67    1
   153    88    89    2
   154    67    64    1
   155    80    86   am
   156    80    79    1
   157   102   104    1
   158   102   103    1
   159   110   111    1
   160    78    79    1
   161    79    82    1
   162    66    65    2
   163    64    65    1
   164    64    63    1
   165    82    83    1
   166    83    84   ar
   167    83    85   ar
