@<TRIPOS>MOLECULE
tmp/4achB00.pdb
 168 159 0 0 0
SMALL
GASTEIGER

@<TRIPOS>ATOM
      1  N         21.6090   65.9090   74.6170 N.3    28  ILE28      -0.1231
      2  CA        22.7010   65.1020   75.1860 C.3    28  ILE28       0.1692
      3  C         22.6410   63.6190   74.7540 C.2    28  ILE28       0.2592
      4  O         23.5000   62.8090   75.1430 O.2    28  ILE28      -0.2718
      5  CB        22.8880   65.2920   76.7300 C.3    28  ILE28       0.0266
      6  CG1       21.6350   64.8430   77.5420 C.3    28  ILE28       0.0019
      7  CG2       23.3360   66.7230   77.0620 C.3    28  ILE28       0.0020
      8  CD1       21.7750   64.8010   79.0690 C.3    28  ILE28       0.0001
      9  N         21.6180   63.2950   73.9700 N.am   29  GLY29      -0.1957
     10  CA        21.3640   61.9490   73.4780 C.3    29  GLY29       0.1869
     11  C         20.2540   61.8840   72.4500 C.2    29  GLY29       0.2309
     12  O         19.2930   62.6500   72.5140 O.2    29  GLY29      -0.2863
     13  N         14.7930   55.3760   71.5050 N.3    33  PHE33      -0.1241
     14  CA        13.8880   55.9950   72.4750 C.3    33  PHE33       0.1605
     15  C         13.2890   57.3050   71.9100 C.2    33  PHE33       0.2264
     16  O         12.0920   57.3700   71.5990 O.2    33  PHE33      -0.2867
     17  CB        14.6280   56.2560   73.8160 C.3    33  PHE33       0.0534
     18  CG        16.0530   56.7880   73.7670 C.ar   33  PHE33      -0.0203
     19  CD1       17.1340   55.9190   73.6920 C.ar   33  PHE33      -0.0042
     20  CD2       16.3140   58.1520   73.8880 C.ar   33  PHE33      -0.0042
     21  CE1       18.4510   56.4040   73.6820 C.ar   33  PHE33      -0.0003
     22  CE2       17.6330   58.6370   73.8640 C.ar   33  PHE33      -0.0003
     23  CZ        18.6910   57.7600   73.7680 C.ar   33  PHE33      -0.0000
     24  N         17.1370   63.0060   74.3920 N.3    36  VAL36      -0.1245
     25  CA        17.4360   63.3130   75.7860 C.3    36  VAL36       0.1561
     26  C         18.1010   64.6820   75.7540 C.2    36  VAL36       0.2260
     27  O         18.9980   64.9170   74.9450 O.2    36  VAL36      -0.2867
     28  CB        18.2870   62.2330   76.5070 C.3    36  VAL36       0.0252
     29  CG1       18.4600   62.5600   77.9890 C.3    36  VAL36       0.0019
     30  CG2       17.6550   60.8570   76.3600 C.3    36  VAL36       0.0019
     31  N         19.4860   68.1640   78.1940 N.3    38  GLN38      -0.1245
     32  CA        19.9660   68.6500   79.4710 C.3    38  GLN38       0.1566
     33  C         19.3280   70.0460   79.5440 C.2    38  GLN38       0.2260
     34  O         19.1500   70.6910   78.4980 O.2    38  GLN38      -0.2867
     35  CB        21.4950   68.7650   79.4770 C.3    38  GLN38       0.0367
     36  CG        22.0890   69.0870   80.8520 C.3    38  GLN38       0.0905
     37  CD        23.2250   70.0630   80.7250 C.2    38  GLN38       0.2608
     38  OE1       23.0310   71.2610   80.4550 O.2    38  GLN38      -0.2717
     39  NE2       24.4400   69.5560   80.8820 N.am   38  GLN38      -0.0878
     40  N         17.6300   66.1990   83.2160 N.3    49  ALA49      -0.1245
     41  CA        17.6060   65.5920   81.8950 C.3    49  ALA49       0.1562
     42  C         16.1240   65.4900   81.5330 C.2    49  ALA49       0.2260
     43  O         15.3060   65.2560   82.4210 O.2    49  ALA49      -0.2867
     44  CB        18.2330   64.2130   81.9300 C.3    49  ALA49       0.0290
     45  N         13.6640   63.4900   78.8710 N.3    51  LYS51      -0.1245
     46  CA        13.5590   62.4930   77.8060 C.3    51  LYS51       0.1561
     47  C         12.2500   62.7350   77.0650 C.2    51  LYS51       0.2260
     48  O         11.1930   62.6800   77.6760 O.2    51  LYS51      -0.2867
     49  CB        13.6570   61.0700   78.3630 C.3    51  LYS51       0.0271
     50  CG        13.4780   59.9840   77.3170 C.3    51  LYS51       0.0035
     51  CD        13.5030   58.6390   78.0000 C.3    51  LYS51       0.0206
     52  CE        13.3090   57.4950   77.0430 C.3    51  LYS51       0.1093
     53  NZ        13.8230   56.2260   77.6290 N.3    51  LYS51      -0.1314
     54  N         17.5990   56.7860   88.6830 N.3    76  VAL76      -0.1245
     55  CA        17.3550   58.1370   88.2070 C.3    76  VAL76       0.1561
     56  C         15.8960   58.5180   88.5070 C.2    76  VAL76       0.2260
     57  O         14.9700   57.7940   88.1370 O.2    76  VAL76      -0.2867
     58  CB        17.8460   58.2020   86.7120 C.3    76  VAL76       0.0252
     59  CG1       16.7490   58.5080   85.7080 C.3    76  VAL76       0.0019
     60  CG2       19.0190   59.1600   86.5550 C.3    76  VAL76       0.0019
     61  N         13.9700   64.1680   84.4480 N.3    98  LEU98      -0.1231
     62  CA        14.7350   63.2590   85.3100 C.3    98  LEU98       0.1693
     63  C         15.9170   63.9340   85.9520 C.2    98  LEU98       0.2592
     64  O         16.3780   64.9800   85.4710 O.2    98  LEU98      -0.2718
     65  CB        15.2650   62.0570   84.4730 C.3    98  LEU98       0.0284
     66  CG        14.3060   61.3740   83.5130 C.3    98  LEU98       0.0019
     67  CD1       15.0390   60.6430   82.4400 C.3    98  LEU98       0.0001
     68  CD2       13.4210   60.4280   84.2320 C.3    98  LEU98       0.0001
     69  N         16.4690   63.2650   86.9840 N.am   99  ASP99      -0.1960
     70  CA        17.7180   63.6540   87.6410 C.3    99  ASP99       0.1840
     71  C         18.7880   63.6410   86.5450 C.2    99  ASP99       0.2622
     72  O         18.7480   62.7690   85.6570 O.2    99  ASP99      -0.2715
     73  CB        18.1370   62.5720   88.6620 C.3    99  ASP99       0.1450
     74  CG        17.4160   62.4990   90.0010 C.2    99  ASP99       0.3671
     75  OD1       16.8450   63.5320   90.4390 O.co2  99  ASP99      -0.2456
     76  OD2       17.5330   61.4480   90.6730 O.co2  99  ASP99      -0.2456
     77  N         19.7340   64.5910   86.6020 N.am  100  TYR100     -0.1960
     78  CA        20.8600   64.6050   85.6680 C.3   100  TYR100      0.1771
     79  C         22.0990   64.0200   86.4010 C.2   100  TYR100      0.2619
     80  O         22.4670   64.5100   87.4680 O.2   100  TYR100     -0.2715
     81  CB        21.1320   66.0200   85.1170 C.3   100  TYR100      0.0574
     82  CG        22.3680   66.0890   84.2490 C.ar  100  TYR100     -0.0198
     83  CD1       22.3190   65.7450   82.9010 C.ar  100  TYR100     -0.0009
     84  CD2       23.5990   66.4570   84.7840 C.ar  100  TYR100     -0.0009
     85  CE1       23.4620   65.7720   82.1060 C.ar  100  TYR100      0.0417
     86  CE2       24.7570   66.4560   84.0040 C.ar  100  TYR100      0.0417
     87  CZ        24.6820   66.1230   82.6620 C.ar  100  TYR100      0.1957
     88  OH        25.8060   66.1480   81.8750 O.3   100  TYR100     -0.2866
     89  N         22.6990   62.9500   85.8400 N.am  101  VAL101     -0.1964
     90  CA        23.9060   62.3010   86.3620 C.3   101  VAL101      0.1712
     91  C         24.9870   62.5130   85.2820 C.2   101  VAL101      0.2458
     92  O         24.7440   62.1960   84.1160 O.2   101  VAL101     -0.2730
     93  CB        23.7120   60.8320   86.8000 C.3   101  VAL101      0.0289
     94  CG1       24.8800   60.3520   87.6420 C.3   101  VAL101      0.0023
     95  CG2       22.4130   60.6580   87.5810 C.3   101  VAL101      0.0023
     96  N         26.1190   63.1810   85.6330 N.am  102  PRO102     -0.2716
     97  CA        27.0800   63.6110   84.6020 C.3   102  PRO102      0.1536
     98  C         27.8250   62.6090   83.7130 C.2   102  PRO102      0.2598
     99  O         28.0940   62.9350   82.5600 O.2   102  PRO102     -0.2715
    100  CB        28.0180   64.5410   85.3760 C.3   102  PRO102      0.0310
    101  CG        27.9360   64.0570   86.7940 C.3   102  PRO102      0.0237
    102  CD        26.4990   63.7130   86.9600 C.3   102  PRO102      0.0939
    103  N         28.2030   61.4420   84.2420 N.am  103  GLU103     -0.1964
    104  CA        28.9760   60.4650   83.4780 C.3   103  GLU103      0.1733
    105  C         28.2920   59.1080   83.3460 C.2   103  GLU103      0.2617
    106  O         27.2720   58.8710   83.9790 O.2   103  GLU103     -0.2715
    107  CB        30.3820   60.3010   84.1030 C.3   103  GLU103      0.0429
    108  CG        31.4560   61.1930   83.4880 C.3   103  GLU103      0.1163
    109  CD        31.7460   61.0570   81.9940 C.2   103  GLU103      0.3649
    110  OE1       31.4610   59.9820   81.4210 O.co2 103  GLU103     -0.2457
    111  OE2       32.2810   62.0250   81.4010 O.co2 103  GLU103     -0.2457
    112  N         28.8690   58.2170   82.5280 N.am  104  THR104     -0.1951
    113  CA        28.3960   56.8480   82.3300 C.3   104  THR104      0.1897
    114  C         29.5300   55.8780   82.6350 C.2   104  THR104      0.2313
    115  O         30.7000   56.2460   82.4900 O.2   104  THR104     -0.2863
    116  CB        27.8160   56.6280   80.9190 C.3   104  THR104      0.1794
    117  OG1       28.8670   56.5510   79.9510 O.3   104  THR104     -0.2208
    118  CG2       26.7740   57.6830   80.5190 C.3   104  THR104      0.0378
    119  N         31.7570   55.3500   79.3640 N.3   107  ARG107     -0.1245
    120  CA        32.7640   56.3660   79.0990 C.3   107  ARG107      0.1563
    121  C         33.9740   56.2480   80.0310 C.2   107  ARG107      0.2260
    122  O         35.1170   56.3550   79.5720 O.2   107  ARG107     -0.2867
    123  CB        32.1340   57.7410   79.2310 C.3   107  ARG107      0.0307
    124  CG        31.8680   58.4040   77.9110 C.3   107  ARG107      0.0489
    125  CD        30.9330   59.5680   78.0960 C.3   107  ARG107      0.2205
    126  NE        31.5880   60.8280   78.4660 N.pl3 107  ARG107     -0.0865
    127  CZ        31.6640   61.8910   77.6720 C.cat 107  ARG107      0.5346
    128  NH1       31.1640   61.8470   76.4410 N.pl3 107  ARG107      0.1354
    129  NH2       32.2600   62.9980   78.0920 N.pl3 107  ARG107      0.1354
    130  N         26.3590   51.6360   79.2810 N.3   151  GLN151     -0.1231
    131  CA        25.7770   52.9050   78.8270 C.3   151  GLN151      0.1698
    132  C         24.5710   53.3570   79.6590 C.2   151  GLN151      0.2592
    133  O         24.2180   54.5410   79.6170 O.2   151  GLN151     -0.2718
    134  CB        25.3630   52.8280   77.3470 C.3   151  GLN151      0.0381
    135  CG        26.4740   52.9780   76.3430 C.3   151  GLN151      0.0905
    136  CD        26.6130   51.7400   75.4860 C.2   151  GLN151      0.2608
    137  OE1       26.9870   50.6540   75.9790 O.2   151  GLN151     -0.2717
    138  NE2       26.4040   51.8980   74.1690 N.am  151  GLN151     -0.0878
    139  N         23.9220   52.4110   80.3780 N.am  152  ASN152     -0.1974
    140  CA        22.7120   52.6620   81.1630 C.3   152  ASN152      0.1688
    141  C         22.9710   52.8220   82.6390 C.2   152  ASN152      0.2292
    142  O         22.0360   52.9520   83.4240 O.2   152  ASN152     -0.2864
    143  CB        21.6600   51.6020   80.8650 C.3   152  ASN152      0.1181
    144  CG        20.9450   51.8640   79.5720 C.2   152  ASN152      0.2629
    145  OD1       20.9640   52.9910   79.0190 O.2   152  ASN152     -0.2716
    146  ND2       20.2710   50.8390   79.0910 N.am  152  ASN152     -0.0877
    147  N         24.7640   55.3580   85.0520 N.3   154  LEU154     -0.1245
    148  CA        25.2080   56.7460   85.2240 C.3   154  LEU154      0.1561
    149  C         26.0040   56.9380   86.5170 C.2   154  LEU154      0.2260
    150  O         25.7070   56.2750   87.5100 O.2   154  LEU154     -0.2867
    151  CB        24.0010   57.7100   85.2170 C.3   154  LEU154      0.0270
    152  CG        23.0450   57.7250   84.0320 C.3   154  LEU154      0.0019
    153  CD1       21.9860   58.7650   84.2340 C.3   154  LEU154      0.0001
    154  CD2       23.7590   57.9840   82.7470 C.3   154  LEU154      0.0001
    155  N         19.5470   53.9840   84.7620 N.3   165  CYS165     -0.1221
    156  CA        18.6750   54.7390   83.8670 C.3   165  CYS165      0.1808
    157  C         18.1580   53.8590   82.7250 C.2   165  CYS165      0.2601
    158  O         18.4610   52.6570   82.6650 O.2   165  CYS165     -0.2717
    159  CB        19.3410   56.0180   83.3650 C.3   165  CYS165      0.0970
    160  SG        20.5900   55.7570   82.0920 S.3   165  CYS165     -0.0800
    161  N         17.3210   54.4690   81.8620 N.am  166  ASP166     -0.1973
    162  CA        16.6460   53.8830   80.7100 C.3   166  ASP166      0.1709
    163  C         15.6280   52.8150   81.0920 C.2   166  ASP166      0.2293
    164  O         15.9790   51.6270   81.1630 O.2   166  ASP166     -0.2864
    165  CB        17.6350   53.3860   79.6530 C.3   166  ASP166      0.1436
    166  CG        16.9810   52.8930   78.3780 C.2   166  ASP166      0.3671
    167  OD1       15.8300   53.3230   78.0860 O.co2 166  ASP166     -0.2456
    168  OD2       17.6350   52.1160   77.6410 O.co2 166  ASP166     -0.2456
@<TRIPOS>BOND
     1    13    14    1
     2    16    15    2
     3    15    14    1
     4    11    12    2
     5    11    10    1
     6    14    17    1
     7    10     9    1
     8    21    19   ar
     9    21    23   ar
    10    19    18   ar
    11    18    17    1
    12    18    20   ar
    13    23    22   ar
    14    22    20   ar
    15     9     3   am
    16   138   136   am
    17    24    25    1
    18     1     2    1
    19     3     4    2
    20     3     2    1
    21    27    26    2
    22     2     5    1
    23   136   137    2
    24   136   135    1
    25    26    25    1
    26    25    28    1
    27   135   134    1
    28    30    28    1
    29   128   127    1
    30    28    29    1
    31     5     7    1
    32     5     6    1
    33    52    53    1
    34    52    51    1
    35    47    48    2
    36    47    46    1
    37    50    51    1
    38    50    49    1
    39   134   131    1
    40     6     8    1
    41   168   166   ar
    42   127   129    1
    43   127   126    2
    44    46    49    1
    45    46    45    1
    46   124   125    1
    47   124   123    1
    48   167   166   ar
    49   125   126    1
    50    31    32    1
    51   166   165    1
    52    34    33    2
    53   131   130    1
    54   131   132    1
    55   145   144    2
    56   146   144   am
    57   120   123    1
    58   120   119    1
    59   120   121    1
    60    32    35    1
    61    32    33    1
    62    35    36    1
    63   122   121    2
    64   144   143    1
    65   133   132    2
    66   165   162    1
    67   132   139   am
    68   117   116    1
    69   139   140    1
    70    38    37    2
    71   118   116    1
    72   162   163    1
    73   162   161    1
    74    37    36    1
    75    37    39   am
    76   143   140    1
    77   116   113    1
    78   163   164    2
    79   140   141    1
    80   111   109   ar
    81   110   109   ar
    82    42    41    1
    83    42    43    2
    84   161   157   am
    85    88    87    1
    86    41    44    1
    87    41    40    1
    88   109   108    1
    89   160   159    1
    90    85    87   ar
    91    85    83   ar
    92   113   112    1
    93   113   114    1
    94    67    66    1
    95   115   114    2
    96   112   105   am
    97    99    98    2
    98   141   142    2
    99    87    86   ar
   100   158   157    2
   101   157   156    1
   102   154   152    1
   103    83    82   ar
   104   105   104    1
   105   105   106    2
   106   159   156    1
   107   104   107    1
   108   104   103    1
   109   108   107    1
   110    66    68    1
   111    66    65    1
   112    98   103   am
   113    98    97    1
   114   156   155    1
   115    86    84   ar
   116   152   153    1
   117   152   151    1
   118    92    91    2
   119    82    84   ar
   120    82    81    1
   121    61    62    1
   122    65    62    1
   123    97   100    1
   124    97    96    1
   125   147   148    1
   126    81    78    1
   127   151   148    1
   128   148   149    1
   129    91    96   am
   130    91    90    1
   131    62    63    1
   132   100   101    1
   133    64    63    2
   134    96   102    1
   135    72    71    2
   136    78    79    1
   137    78    77    1
   138    59    58    1
   139    89    90    1
   140    89    79   am
   141    63    69   am
   142    90    93    1
   143    79    80    2
   144   149   150    2
   145    71    77   am
   146    71    70    1
   147    60    58    1
   148    58    55    1
   149   101   102    1
   150    93    95    1
   151    93    94    1
   152    69    70    1
   153    70    73    1
   154    57    56    2
   155    55    56    1
   156    55    54    1
   157    73    74    1
   158    74    75   ar
   159    74    76   ar
