@<TRIPOS>MOLECULE
tmp/4aciB00.pdb
 120 111 0 0 0
SMALL
GASTEIGER

@<TRIPOS>ATOM
      1  N         -3.2010  -18.7050   31.8210 N.3    64  VAL64      -0.1245
      2  CA        -4.2340  -18.3940   32.7960 C.3    64  VAL64       0.1561
      3  C         -4.3440  -19.4700   33.8800 C.2    64  VAL64       0.2260
      4  O         -4.5070  -19.1880   35.0910 O.2    64  VAL64      -0.2867
      5  CB        -5.5700  -18.1260   32.1030 C.3    64  VAL64       0.0252
      6  CG1       -6.7290  -18.1120   33.1170 C.3    64  VAL64       0.0019
      7  CG2       -5.4980  -16.7930   31.3050 C.3    64  VAL64       0.0019
      8  N         -1.3720  -18.8150   36.2780 N.3    67  ASN67      -0.1225
      9  CA        -1.2810  -17.5530   37.0400 C.3    67  ASN67       0.1785
     10  C         -2.1000  -16.3630   36.5120 C.2    67  ASN67       0.2598
     11  O         -1.6990  -15.2040   36.6900 O.2    67  ASN67      -0.2718
     12  CB         0.1930  -17.1750   37.2110 C.3    67  ASN67       0.1169
     13  CG         0.4450  -16.2710   38.4210 C.2    67  ASN67       0.2627
     14  OD1       -0.1500  -16.4600   39.4640 O.2    67  ASN67      -0.2716
     15  ND2        1.3220  -15.2420   38.2510 N.am   67  ASN67      -0.0877
     16  N         -3.2740  -16.6660   35.9180 N.am   68  GLY68      -0.1942
     17  CA        -4.3120  -15.6950   35.6250 C.3    68  GLY68       0.2014
     18  C         -4.0480  -14.8230   34.3910 C.2    68  GLY68       0.2639
     19  O         -3.0030  -14.9230   33.7190 O.2    68  GLY68      -0.2714
     20  N         -5.0240  -13.9920   34.1050 N.am   69  LEU69      -0.1963
     21  CA        -4.9560  -13.0290   32.9980 C.3    69  LEU69       0.1728
     22  C         -3.8740  -12.0320   33.2240 C.2    69  LEU69       0.2616
     23  O         -3.2180  -11.5770   32.2930 O.2    69  LEU69      -0.2715
     24  CB        -6.2970  -12.3400   32.8310 C.3    69  LEU69       0.0311
     25  CG        -7.3250  -13.0380   32.0390 C.3    69  LEU69       0.0022
     26  CD1       -8.5410  -12.1730   32.0720 C.3    69  LEU69       0.0001
     27  CD2       -6.8650  -13.3590   30.5360 C.3    69  LEU69       0.0001
     28  N         -3.6140  -11.6870   34.4720 N.am   70  VAL70      -0.1977
     29  CA        -2.4700  -10.7850   34.7730 C.3    70  VAL70       0.1596
     30  C         -1.1590  -11.3270   34.2810 C.2    70  VAL70       0.2287
     31  O         -0.3140  -10.5940   33.7310 O.2    70  VAL70      -0.2864
     32  CB        -2.4870  -10.3960   36.2540 C.3    70  VAL70       0.0276
     33  CG1       -1.1560   -9.6410   36.6510 C.3    70  VAL70       0.0022
     34  CG2       -3.6520   -9.4330   36.5030 C.3    70  VAL70       0.0022
     35  N        -10.2360  -18.7710   32.1400 N.3   117  VAL117     -0.1245
     36  CA       -10.3660  -17.6160   33.0660 C.3   117  VAL117      0.1561
     37  C        -11.3950  -17.9430   34.1620 C.2   117  VAL117      0.2260
     38  O        -11.1610  -17.7250   35.3880 O.2   117  VAL117     -0.2867
     39  CB       -10.7560  -16.3280   32.3460 C.3   117  VAL117      0.0252
     40  CG1      -11.0830  -15.2250   33.3730 C.3   117  VAL117      0.0019
     41  CG2       -9.6910  -15.8900   31.3160 C.3   117  VAL117      0.0019
     42  N         -9.9100  -20.5320   36.6000 N.3   120  ARG120     -0.1231
     43  CA        -8.9060  -19.8810   37.4340 C.3   120  ARG120      0.1694
     44  C         -9.5500  -19.0080   38.5140 C.2   120  ARG120      0.2591
     45  O         -9.2150  -19.0980   39.7050 O.2   120  ARG120     -0.2718
     46  CB        -7.9740  -19.0050   36.5920 C.3   120  ARG120      0.0321
     47  CG        -7.0330  -18.1580   37.3870 C.3   120  ARG120      0.0489
     48  CD        -6.0270  -18.9800   38.1930 C.3   120  ARG120      0.2205
     49  NE        -5.0750  -18.0930   38.8810 N.pl3 120  ARG120     -0.0865
     50  CZ        -4.0770  -18.4810   39.6420 C.cat 120  ARG120      0.5346
     51  NH1       -3.8590  -19.7780   39.8730 N.pl3 120  ARG120      0.1354
     52  NH2       -3.2740  -17.5720   40.1760 N.pl3 120  ARG120      0.1354
     53  N        -10.5020  -18.1940   38.1160 N.am  121  LEU121     -0.1980
     54  CA       -11.2240  -17.3680   39.0960 C.3   121  LEU121      0.1596
     55  C        -11.9840  -18.2290   40.0970 C.2   121  LEU121      0.2287
     56  O        -12.0680  -17.8690   41.2900 O.2   121  LEU121     -0.2864
     57  CB       -12.1740  -16.3350   38.4160 C.3   121  LEU121      0.0297
     58  CG       -11.4260  -15.2950   37.5320 C.3   121  LEU121      0.0022
     59  CD1      -12.5000  -14.3100   36.9690 C.3   121  LEU121      0.0001
     60  CD2      -10.3160  -14.5550   38.3240 C.3   121  LEU121      0.0001
     61  N         -9.4910  -19.4310   42.6120 N.3   124  ASN124     -0.1240
     62  CA        -9.1450  -18.3250   43.5040 C.3   124  ASN124      0.1653
     63  C        -10.2010  -18.0810   44.5670 C.2   124  ASN124      0.2266
     64  O         -9.8890  -17.8450   45.7500 O.2   124  ASN124     -0.2867
     65  CB        -8.9800  -17.0180   42.7110 C.3   124  ASN124      0.1155
     66  CG        -7.8150  -17.0370   41.7360 C.2   124  ASN124      0.2627
     67  OD1       -6.9240  -17.8850   41.7890 O.2   124  ASN124     -0.2716
     68  ND2       -7.8220  -16.0320   40.8400 N.am  124  ASN124     -0.0877
     69  N         -9.1610  -16.1810   48.1080 N.3   129  GLN129     -0.1231
     70  CA        -8.1820  -15.1560   47.7020 C.3   129  GLN129      0.1698
     71  C         -8.7740  -13.9150   47.0590 C.2   129  GLN129      0.2592
     72  O         -8.0930  -12.9040   46.9490 O.2   129  GLN129     -0.2718
     73  CB        -7.1590  -15.8070   46.7770 C.3   129  GLN129      0.0381
     74  CG        -6.3840  -16.9270   47.4960 C.3   129  GLN129      0.0905
     75  CD        -5.4120  -17.6840   46.6440 C.2   129  GLN129      0.2608
     76  OE1       -5.4000  -17.5380   45.4420 O.2   129  GLN129     -0.2717
     77  NE2       -4.5620  -18.5070   47.2970 N.am  129  GLN129     -0.0878
     78  N         -9.9780  -14.0030   46.5300 N.am  130  MET130     -0.1979
     79  CA       -10.5890  -12.8710   45.8700 C.3   130  MET130      0.1605
     80  C        -11.4100  -12.0650   46.8710 C.2   130  MET130      0.2287
     81  O        -11.9810  -12.5920   47.7980 O.2   130  MET130     -0.2864
     82  CB       -11.4990  -13.3120   44.7230 C.3   130  MET130      0.0413
     83  CG       -10.8820  -14.2770   43.7160 C.3   130  MET130      0.0598
     84  SD        -9.6520  -13.5660   42.6660 S.3   130  MET130     -0.1393
     85  CE       -10.6020  -12.4230   41.6900 C.3   130  MET130      0.0692
     86  N        -10.9520   -7.5960   34.5500 N.3   143  LEU143     -0.1245
     87  CA        -9.6920   -8.1920   34.0870 C.3   143  LEU143      0.1561
     88  C         -9.6760   -8.2680   32.5750 C.2   143  LEU143      0.2260
     89  O         -8.6860   -7.9570   31.9410 O.2   143  LEU143     -0.2867
     90  CB        -9.5450   -9.5720   34.7030 C.3   143  LEU143      0.0270
     91  CG        -9.1810   -9.6140   36.1660 C.3   143  LEU143      0.0019
     92  CD1       -9.4530  -11.0250   36.7050 C.3   143  LEU143      0.0001
     93  CD2       -7.7740   -9.0740   36.5030 C.3   143  LEU143      0.0001
     94  N         -4.0080   -6.5800   40.1220 N.3   171  GLU171     -0.1245
     95  CA        -4.0030   -7.8030   40.9150 C.3   171  GLU171      0.1567
     96  C         -4.4260   -7.5340   42.3550 C.2   171  GLU171      0.2260
     97  O         -5.1500   -8.3270   42.9570 O.2   171  GLU171     -0.2867
     98  CB        -2.6170   -8.4520   40.8880 C.3   171  GLU171      0.0388
     99  CG        -2.6410   -9.9700   40.9560 C.3   171  GLU171      0.1160
    100  CD        -1.2620  -10.5820   40.8080 C.2   171  GLU171      0.3649
    101  OE1       -0.2710   -9.8220   40.7990 O.co2 171  GLU171     -0.2457
    102  OE2       -1.1690  -11.8230   40.7000 O.co2 171  GLU171     -0.2457
    103  N         -8.4480   -6.9680   42.7970 N.3   174  VAL174     -0.1231
    104  CA        -9.3990   -8.0900   42.7830 C.3   174  VAL174      0.1692
    105  C         -9.2120   -9.0060   44.0080 C.2   174  VAL174      0.2591
    106  O        -10.0680   -9.8340   44.2680 O.2   174  VAL174     -0.2718
    107  CB        -9.2960   -8.9180   41.4990 C.3   174  VAL174      0.0266
    108  CG1       -9.5140   -7.9900   40.2500 C.3   174  VAL174      0.0020
    109  CG2       -7.9720   -9.6340   41.4350 C.3   174  VAL174      0.0020
    110  N         -8.0820   -8.8380   44.7230 N.am  175  ARG175     -0.1980
    111  CA        -7.7890   -9.5890   45.9560 C.3   175  ARG175      0.1597
    112  C         -8.4700   -9.0680   47.1790 C.2   175  ARG175      0.2287
    113  O         -8.9220   -7.9170   47.2430 O.2   175  ARG175     -0.2864
    114  CB        -6.3190   -9.6110   46.2360 C.3   175  ARG175      0.0334
    115  CG        -5.5720  -10.4670   45.3410 C.3   175  ARG175      0.0492
    116  CD        -4.1000  -10.3770   45.6350 C.3   175  ARG175      0.2205
    117  NE        -3.3940  -11.2800   44.7440 N.pl3 175  ARG175     -0.0865
    118  CZ        -2.0750  -11.3910   44.6510 C.cat 175  ARG175      0.5346
    119  NH1       -1.2970  -10.6490   45.4430 N.pl3 175  ARG175      0.1354
    120  NH2       -1.5380  -12.2520   43.7810 N.pl3 175  ARG175      0.1354
@<TRIPOS>BOND
     1    27    25    1
     2     7     5    1
     3    41    39    1
     4     1     2    1
     5    89    88    2
     6    25    26    1
     7    25    24    1
     8     5     2    1
     9     5     6    1
    10    35    36    1
    11    23    22    2
    12    39    36    1
    13    39    40    1
    14    88    87    1
    15     2     3    1
    16    24    21    1
    17    21    22    1
    18    21    20    1
    19    36    37    1
    20    22    28   am
    21    19    18    2
    22    31    30    2
    23     3     4    2
    24    87    86    1
    25    87    90    1
    26    20    18   am
    27    37    38    2
    28    30    29    1
    29    18    17    1
    30    28    29    1
    31    90    91    1
    32    29    32    1
    33    17    16    1
    34    16    10   am
    35    91    93    1
    36    91    92    1
    37    32    34    1
    38    32    33    1
    39     8     9    1
    40    10    11    2
    41    10     9    1
    42    46    47    1
    43    46    43    1
    44    42    43    1
    45    59    58    1
    46     9    12    1
    47    12    13    1
    48    47    48    1
    49    43    44    1
    50    58    60    1
    51    58    57    1
    52    53    44   am
    53    53    54    1
    54    48    49    1
    55    15    13   am
    56    57    54    1
    57    13    14    2
    58    44    45    2
    59    49    50    2
    60    54    55    1
    61    50    51    1
    62    50    52    1
    63    55    56    2
    64    94    95    1
    65   108   107    1
    66   102   100   ar
    67   101   100   ar
    68   100    99    1
    69    68    66   am
    70    98    95    1
    71    98    99    1
    72    95    96    1
    73   109   107    1
    74   107   104    1
    75    85    84    1
    76    66    67    2
    77    66    65    1
    78    96    97    2
    79    61    62    1
    80    84    83    1
    81    65    62    1
    82   104   103    1
    83   104   105    1
    84    62    63    1
    85    83    82    1
    86   120   118    1
    87   105   106    2
    88   105   110   am
    89    63    64    2
    90   118   117    2
    91   118   119    1
    92    82    79    1
    93   110   111    1
    94   117   116    1
    95   115   116    1
    96   115   114    1
    97    76    75    2
    98    79    78    1
    99    79    80    1
   100   111   114    1
   101   111   112    1
   102    78    71   am
   103    75    77   am
   104    75    74    1
   105    73    74    1
   106    73    70    1
   107    80    81    2
   108    72    71    2
   109    71    70    1
   110   112   113    2
   111    70    69    1
