@<TRIPOS>MOLECULE
tmp/4acmA00.pdb
 191 182 0 0 0
SMALL
GASTEIGER

@<TRIPOS>ATOM
      1  N         -0.6090   24.8090   -1.3980 N.3     8  GLU8       -0.1231
      2  CA        -0.3180   23.6480   -0.5590 C.3     8  GLU8        0.1699
      3  C         -0.8530   23.8300    0.8540 C.2     8  GLU8        0.2592
      4  O         -1.0570   24.9680    1.2960 O.2     8  GLU8       -0.2718
      5  CB         1.1970   23.3510   -0.5200 C.3     8  GLU8        0.0402
      6  CG         2.0560   24.4690    0.0510 C.3     8  GLU8        0.1161
      7  CD         3.5450   24.2810   -0.1510 C.2     8  GLU8        0.3649
      8  OE1        3.9630   23.9670   -1.2900 O.co2   8  GLU8       -0.2457
      9  OE2        4.2990   24.4740    0.8270 O.co2   8  GLU8       -0.2457
     10  N         -1.0370   22.7030    1.5790 N.am    9  LYS9       -0.1966
     11  CA        -1.4650   22.7170    2.9720 C.3     9  LYS9        0.1728
     12  C         -0.2330   23.0980    3.7940 C.2     9  LYS9        0.2616
     13  O          0.8650   22.5990    3.5230 O.2     9  LYS9       -0.2715
     14  CB        -2.0030   21.3380    3.3900 C.3     9  LYS9        0.0311
     15  CG        -2.6540   21.3120    4.7710 C.3     9  LYS9        0.0038
     16  CD        -3.0970   19.8960    5.1240 C.3     9  LYS9        0.0206
     17  CE        -4.1080   19.2990    4.1640 C.3     9  LYS9        0.1093
     18  NZ        -4.4030   17.8610    4.5160 N.3     9  LYS9       -0.1314
     19  N         -0.3940   24.0150    4.7490 N.am   10  ILE10      -0.1963
     20  CA         0.7220   24.4850    5.5650 C.3    10  ILE10       0.1727
     21  C          0.5020   24.2570    7.0710 C.2    10  ILE10       0.2616
     22  O          1.2840   24.7340    7.9000 O.2    10  ILE10      -0.2715
     23  CB         1.1700   25.9330    5.1910 C.3    10  ILE10       0.0290
     24  CG1        0.0390   26.9650    5.4170 C.3    10  ILE10       0.0022
     25  CG2        1.7430   25.9900    3.7630 C.3    10  ILE10       0.0023
     26  CD1        0.3700   28.4540    5.1440 C.3    10  ILE10       0.0001
     27  N         -0.5530   23.5170    7.3930 N.am   11  GLY11      -0.1955
     28  CA        -0.9140   23.1890    8.7640 C.3    11  GLY11       0.1869
     29  C         -2.3570   22.7720    8.9510 C.2    11  GLY11       0.2309
     30  O         -3.2290   23.0580    8.1210 O.2    11  GLY11      -0.2863
     31  N         -4.4810   23.3530   12.0680 N.3    13  GLY13      -0.1210
     32  CA        -4.6570   24.0260   13.3530 C.3    13  GLY13       0.1956
     33  C         -5.8050   23.4920   14.1920 C.2    13  GLY13       0.2612
     34  O         -6.4830   22.5350   13.7990 O.2    13  GLY13      -0.2717
     35  N         -6.0260   24.1230   15.3640 N.am   14  THR14      -0.1952
     36  CA        -7.0670   23.7700   16.3420 C.3    14  THR14       0.1897
     37  C         -8.4890   23.8710   15.7660 C.2    14  THR14       0.2313
     38  O         -9.2760   22.9310   15.9140 O.2    14  THR14      -0.2863
     39  CB        -6.9420   24.6180   17.6300 C.3    14  THR14       0.1794
     40  OG1       -5.6630   25.2590   17.7070 O.3    14  THR14      -0.2208
     41  CG2       -7.2090   23.8070   18.8880 C.3    14  THR14       0.0378
     42  N         -5.0260   25.1150    7.4320 N.3    18  VAL18      -0.1245
     43  CA        -4.3420   26.2880    6.8780 C.3    18  VAL18       0.1561
     44  C         -3.6670   25.9440    5.5570 C.2    18  VAL18       0.2260
     45  O         -2.9410   24.9550    5.4690 O.2    18  VAL18      -0.2867
     46  CB        -3.3710   26.9550    7.8930 C.3    18  VAL18       0.0252
     47  CG1       -2.8930   28.3190    7.3870 C.3    18  VAL18       0.0019
     48  CG2       -4.0270   27.1010    9.2680 C.3    18  VAL18       0.0019
     49  N         -2.0450   33.1330    3.4240 N.3    31  ALA31      -0.1245
     50  CA        -2.3780   31.9440    4.1850 C.3    31  ALA31       0.1562
     51  C         -3.8950   31.9850    4.3310 C.2    31  ALA31       0.2260
     52  O         -4.4460   32.9780    4.8180 O.2    31  ALA31      -0.2867
     53  CB        -1.7300   31.9730    5.5490 C.3    31  ALA31       0.0290
     54  N         -7.0900   30.1600    6.0690 N.3    33  LYS33      -0.1245
     55  CA        -7.5500   29.2790    7.1410 C.3    33  LYS33       0.1561
     56  C         -9.0680   29.0090    6.9830 C.2    33  LYS33       0.2260
     57  O         -9.8620   29.9460    7.0700 O.2    33  LYS33      -0.2867
     58  CB        -7.2390   29.9000    8.5050 C.3    33  LYS33       0.0271
     59  CG        -7.4660   28.9640    9.6750 C.3    33  LYS33       0.0035
     60  CD        -7.2220   29.6770   10.9900 C.3    33  LYS33       0.0206
     61  CE        -6.9130   28.7020   12.0940 C.3    33  LYS33       0.1093
     62  NZ        -8.1220   27.9740   12.5560 N.3    33  LYS33      -0.1314
     63  N          0.3760   38.4700   13.2570 N.3    57  VAL57      -0.1245
     64  CA         0.1230   38.1360   11.8450 C.3    57  VAL57       0.1561
     65  C         -1.1330   38.9290   11.3880 C.2    57  VAL57       0.2260
     66  O         -2.1680   38.9080   12.0680 O.2    57  VAL57      -0.2867
     67  CB         0.0080   36.6000   11.6240 C.3    57  VAL57       0.0252
     68  CG1       -0.3170   36.2630   10.1680 C.3    57  VAL57       0.0019
     69  CG2        1.3130   35.9180   12.0240 C.3    57  VAL57       0.0019
     70  N         -4.9620   35.5640    5.9030 N.3    71  PHE71      -0.1227
     71  CA        -3.8620   36.1600    6.6690 C.3    71  PHE71       0.1736
     72  C         -2.6930   36.4600    5.7640 C.2    71  PHE71       0.2595
     73  O         -2.5400   35.8270    4.7160 O.2    71  PHE71      -0.2718
     74  CB        -3.3700   35.1830    7.7470 C.3    71  PHE71       0.0547
     75  CG        -4.3220   34.9740    8.8960 C.ar   71  PHE71      -0.0202
     76  CD1       -4.3470   35.8620    9.9690 C.ar   71  PHE71      -0.0042
     77  CD2       -5.1580   33.8700    8.9320 C.ar   71  PHE71      -0.0042
     78  CE1       -5.2060   35.6530   11.0530 C.ar   71  PHE71      -0.0003
     79  CE2       -6.0230   33.6660   10.0130 C.ar   71  PHE71      -0.0003
     80  CZ        -6.0420   34.5600   11.0650 C.ar   71  PHE71      -0.0000
     81  N         -1.8220   37.3760    6.2000 N.am   72  GLU72      -0.1965
     82  CA        -0.5890   37.6320    5.4640 C.3    72  GLU72       0.1733
     83  C          0.2630   36.3470    5.5720 C.2    72  GLU72       0.2616
     84  O          0.1570   35.5920    6.5680 O.2    72  GLU72      -0.2715
     85  CB         0.1690   38.8580    6.0210 C.3    72  GLU72       0.0429
     86  CG         0.6480   38.6480    7.4410 C.3    72  GLU72       0.1163
     87  CD         1.7040   39.5840    7.9820 C.2    72  GLU72       0.3649
     88  OE1        2.7250   39.8090    7.2940 O.co2  72  GLU72      -0.2457
     89  OE2        1.5270   40.0580    9.1250 O.co2  72  GLU72      -0.2457
     90  N          1.0590   36.0900    4.5330 N.am   73  PHE73      -0.1960
     91  CA         1.9020   34.9010    4.4660 C.3    73  PHE73       0.1771
     92  C          3.2880   35.1410    5.0510 C.2    73  PHE73       0.2619
     93  O          4.0180   36.0150    4.5820 O.2    73  PHE73      -0.2715
     94  CB         1.9820   34.3340    3.0230 C.3    73  PHE73       0.0574
     95  CG         2.7340   33.0210    2.9060 C.ar   73  PHE73      -0.0200
     96  CD1        2.1290   31.8170    3.2660 C.ar   73  PHE73      -0.0042
     97  CD2        4.0490   32.9910    2.4530 C.ar   73  PHE73      -0.0042
     98  CE1        2.8220   30.6110    3.1820 C.ar   73  PHE73      -0.0003
     99  CE2        4.7490   31.7810    2.3710 C.ar   73  PHE73      -0.0003
    100  CZ         4.1340   30.5990    2.7380 C.ar   73  PHE73      -0.0000
    101  N          3.6490   34.3610    6.0800 N.am   74  LEU74      -0.1963
    102  CA         5.0070   34.4090    6.6180 C.3    74  LEU74       0.1728
    103  C          5.7620   33.2380    6.0620 C.2    74  LEU74       0.2616
    104  O          5.1400   32.3160    5.5440 O.2    74  LEU74      -0.2715
    105  CB         5.1180   34.6500    8.1210 C.3    74  LEU74       0.0311
    106  CG         5.0070   36.1450    8.4370 C.3    74  LEU74       0.0022
    107  CD1        3.5680   36.5280    8.8010 C.3    74  LEU74       0.0001
    108  CD2        6.0120   36.5720    9.4880 C.3    74  LEU74       0.0001
    109  N          7.0830   33.3010    6.1920 N.am   75  HIS75      -0.1959
    110  CA         8.1040   32.4620    5.5940 C.3    75  HIS75       0.1787
    111  C          8.2950   31.0610    6.1730 C.2    75  HIS75       0.2620
    112  O          8.5820   30.1410    5.4120 O.2    75  HIS75      -0.2715
    113  CB         9.4340   33.2620    5.5190 C.3    75  HIS75       0.0785
    114  CG         9.2900   34.6580    4.9420 C.ar   75  HIS75       0.0821
    115  ND1       10.3670   35.5360    4.8910 N.ar   75  HIS75      -0.2267
    116  CD2        8.2130   35.2700    4.3890 C.ar   75  HIS75       0.1154
    117  CE1        9.9080   36.6460    4.3300 C.ar   75  HIS75       0.1986
    118  NE2        8.6210   36.5300    3.9950 N.ar   75  HIS75      -0.2212
    119  N          8.1190   30.8970    7.5000 N.am   76  GLN76      -0.1963
    120  CA         8.3310   29.6510    8.2560 C.3    76  GLN76       0.1733
    121  C          7.7130   29.7590    9.6370 C.2    76  GLN76       0.2616
    122  O          7.5560   30.8720   10.1360 O.2    76  GLN76      -0.2715
    123  CB         9.8620   29.4510    8.4290 C.3    76  GLN76       0.0408
    124  CG        10.2870   28.0360    8.8040 C.3    76  GLN76       0.0908
    125  CD        11.7320   27.7850    8.4560 C.2    76  GLN76       0.2608
    126  OE1       12.6030   27.8010    9.3200 O.2    76  GLN76      -0.2717
    127  NE2       12.0230   27.5280    7.1840 N.am   76  GLN76      -0.0878
    128  N          7.4060   28.6110   10.2810 N.am   77  ASP77      -0.1971
    129  CA         6.9610   28.6450   11.6780 C.3    77  ASP77       0.1709
    130  C          8.1390   28.3270   12.6090 C.2    77  ASP77       0.2293
    131  O          9.1460   27.7650   12.1720 O.2    77  ASP77      -0.2864
    132  CB         5.6990   27.7910   11.9380 C.3    77  ASP77       0.1436
    133  CG         5.8270   26.2680   11.8450 C.2    77  ASP77       0.3671
    134  OD1        6.8770   25.7380   12.2070 O.co2  77  ASP77      -0.2456
    135  OD2        4.8230   25.6160   11.5790 O.co2  77  ASP77      -0.2456
    136  N          9.3340   24.5170   12.8290 N.3    80  LYS80      -0.1245
    137  CA        10.2430   24.1230   11.7460 C.3    80  LYS80       0.1561
    138  C         11.6220   24.7340   11.9640 C.2    80  LYS80       0.2260
    139  O         12.6060   24.0500   11.7270 O.2    80  LYS80      -0.2867
    140  CB         9.6990   24.5200   10.3500 C.3    80  LYS80       0.0271
    141  CG        10.6170   24.0860    9.1830 C.3    80  LYS80       0.0035
    142  CD         9.8760   24.0810    7.8550 C.3    80  LYS80       0.0206
    143  CE        10.7960   23.9390    6.6760 C.3    80  LYS80       0.1093
    144  NZ        10.0380   24.1330    5.4020 N.3    80  LYS80      -0.1314
    145  N          1.9840   28.3720   20.9500 N.3   120  LYS120     -0.1245
    146  CA         2.8120   27.1960   20.6880 C.3   120  LYS120      0.1561
    147  C          3.7120   27.4840   19.5000 C.2   120  LYS120      0.2260
    148  O          3.4010   28.3970   18.7390 O.2   120  LYS120     -0.2867
    149  CB         1.9830   25.9120   20.4800 C.3   120  LYS120      0.0271
    150  CG         0.9510   25.9610   19.3780 C.3   120  LYS120      0.0035
    151  CD        -0.0460   24.8110   19.5650 C.3   120  LYS120      0.0206
    152  CE        -1.2240   24.9990   18.6610 C.3   120  LYS120      0.1093
    153  NZ        -2.3710   24.1650   19.1000 N.3   120  LYS120     -0.1314
    154  N          4.1200   26.2090   16.6580 N.3   122  GLN122     -0.1231
    155  CA         3.4290   26.0940   15.3690 C.3   122  GLN122      0.1698
    156  C          2.6380   27.3570   15.0160 C.2   122  GLN122      0.2592
    157  O          2.3770   27.5890   13.8340 O.2   122  GLN122     -0.2718
    158  CB         2.5360   24.8340   15.2960 C.3   122  GLN122      0.0381
    159  CG         3.2470   23.5360   15.7080 C.3   122  GLN122      0.0905
    160  CD         3.0450   23.1660   17.1700 C.2   122  GLN122      0.2608
    161  OE1        3.6190   23.7660   18.1050 O.2   122  GLN122     -0.2717
    162  NE2        2.2470   22.1270   17.3950 N.am  122  GLN122     -0.0878
    163  N          2.2770   28.1860   16.0110 N.am  123  ASN123     -0.1974
    164  CA         1.5780   29.4270   15.6910 C.3   123  ASN123      0.1688
    165  C          2.4030   30.6930   15.8680 C.2   123  ASN123      0.2292
    166  O          1.8610   31.7910   15.9680 O.2   123  ASN123     -0.2864
    167  CB         0.1630   29.5010   16.2620 C.3   123  ASN123      0.1181
    168  CG         0.0970   29.4650   17.7530 C.2   123  ASN123      0.2629
    169  OD1        0.9590   30.0160   18.4550 O.2   123  ASN123     -0.2716
    170  ND2       -0.9550   28.8290   18.2540 N.am  123  ASN123     -0.0877
    171  N          5.2790   32.6550   13.8100 N.3   125  LEU125     -0.1245
    172  CA         5.7580   32.7220   12.4390 C.3   125  LEU125      0.1561
    173  C          6.8930   33.6840   12.2760 C.2   125  LEU125      0.2260
    174  O          6.8730   34.7870   12.8430 O.2   125  LEU125     -0.2867
    175  CB         4.5830   33.1280   11.5310 C.3   125  LEU125      0.0270
    176  CG         3.2660   32.3350   11.6530 C.3   125  LEU125      0.0019
    177  CD1        2.2570   32.9260   10.7600 C.3   125  LEU125      0.0001
    178  CD2        3.4550   30.8610   11.2780 C.3   125  LEU125      0.0001
    179  N          0.3230   34.2160   15.5750 N.3   135  ALA135     -0.1231
    180  CA        -0.7580   33.8300   14.6660 C.3   135  ALA135      0.1694
    181  C         -1.9080   33.2390   15.4860 C.2   135  ALA135      0.2592
    182  O         -1.6680   32.5990   16.5130 O.2   135  ALA135     -0.2718
    183  CB        -0.2600   32.8060   13.6490 C.3   135  ALA135      0.0304
    184  N         -3.1470   33.4320   15.0150 N.am  136  ASP136     -0.1974
    185  CA        -4.3770   32.9350   15.6510 C.3   136  ASP136      0.1709
    186  C         -4.7490   33.6800   16.9350 C.2   136  ASP136      0.2293
    187  O         -5.4090   33.1220   17.8040 O.2   136  ASP136     -0.2864
    188  CB        -4.3560   31.3950   15.8540 C.3   136  ASP136      0.1436
    189  CG        -5.0590   30.5920   14.7760 C.2   136  ASP136      0.3671
    190  OD1       -5.2680   31.1360   13.6660 O.co2 136  ASP136     -0.2456
    191  OD2       -5.3700   29.4060   15.0290 O.co2 136  ASP136     -0.2456
@<TRIPOS>BOND
     1     1     2    1
     2     8     7   ar
     3     2     5    1
     4     2     3    1
     5     5     6    1
     6     7     6    1
     7     7     9   ar
     8     3     4    2
     9     3    10   am
    10    10    11    1
    11    99    97   ar
    12    99   100   ar
    13    97    95   ar
    14   100    98   ar
    15    95    94    1
    16    95    96   ar
    17    11    14    1
    18    11    12    1
    19    94    91    1
    20    98    96   ar
    21    14    15    1
    22    49    50    1
    23    13    12    2
    24    25    23    1
    25    12    19   am
    26   118   117   ar
    27   118   116   ar
    28    17    18    1
    29    17    16    1
    30    50    51    1
    31    50    53    1
    32   117   115   ar
    33    51    52    2
    34   116   114   ar
    35    91    90    1
    36    91    92    1
    37    90    83   am
    38    93    92    2
    39    73    72    2
    40    19    20    1
    41    15    16    1
    42   115   114   ar
    43   114   113    1
    44    92   101   am
    45    26    24    1
    46    23    24    1
    47    23    20    1
    48   144   143    1
    49   112   111    2
    50    82    83    1
    51    82    85    1
    52    82    81    1
    53    45    44    2
    54   113   110    1
    55   104   103    2
    56    44    43    1
    57    20    21    1
    58    83    84    2
    59   110   111    1
    60   110   109    1
    61    72    81   am
    62    72    71    1
    63    70    71    1
    64    85    86    1
    65   103   109   am
    66   103   102    1
    67    54    55    1
    68   101   102    1
    69   111   119   am
    70   102   105    1
    71    71    74    1
    72   143   142    1
    73    43    42    1
    74    43    46    1
    75    56    57    2
    76    56    55    1
    77    21    27   am
    78    21    22    2
    79    55    58    1
    80   127   125   am
    81    88    87   ar
    82    47    46    1
    83    27    28    1
    84    86    87    1
    85   119   120    1
    86    74    75    1
    87   142   141    1
    88    46    48    1
    89    87    89   ar
    90   105   106    1
    91    30    29    2
    92   120   123    1
    93   120   121    1
    94   123   124    1
    95   106   107    1
    96   106   108    1
    97   125   124    1
    98   125   126    2
    99    58    59    1
   100    28    29    1
   101    75    77   ar
   102    75    76   ar
   103    77    79   ar
   104   141   140    1
   105   121   122    2
   106   121   128   am
   107    59    60    1
   108    76    78   ar
   109    79    80   ar
   110    68    67    1
   111   128   129    1
   112   140   137    1
   113   177   176    1
   114    60    61    1
   115    78    80   ar
   116   178   176    1
   117    65    64    1
   118    65    66    2
   119   175   176    1
   120   175   172    1
   121   135   133   ar
   122    67    64    1
   123    67    69    1
   124   129   132    1
   125   129   130    1
   126   139   138    2
   127   137   138    1
   128   137   136    1
   129    64    63    1
   130   133   132    1
   131   133   134   ar
   132    31    32    1
   133    61    62    1
   134   131   130    2
   135   173   172    1
   136   173   174    2
   137   172   171    1
   138    32    33    1
   139   183   180    1
   140   190   189   ar
   141    34    33    2
   142   157   156    2
   143    33    35   am
   144   180   181    1
   145   180   179    1
   146   189   191   ar
   147   189   188    1
   148   184   181   am
   149   184   185    1
   150   156   155    1
   151   156   163   am
   152   158   155    1
   153   158   159    1
   154    35    36    1
   155   155   154    1
   156   181   182    2
   157   185   188    1
   158   185   186    1
   159   164   165    1
   160   164   163    1
   161   164   167    1
   162   159   160    1
   163    37    38    2
   164    37    36    1
   165   165   166    2
   166   167   168    1
   167    36    39    1
   168   186   187    2
   169   160   162   am
   170   160   161    2
   171    39    40    1
   172    39    41    1
   173   168   170   am
   174   168   169    2
   175   152   153    1
   176   152   151    1
   177   148   147    2
   178   150   151    1
   179   150   149    1
   180   147   146    1
   181   149   146    1
   182   146   145    1
