@<TRIPOS>MOLECULE
tmp/4actA00.pdb
 69 63 0 0 0
SMALL
GASTEIGER

@<TRIPOS>ATOM
      1  N         -7.5820   23.6830   -2.9420 N.3     6  LYS6       -0.1245
      2  CA        -6.3460   24.4140   -2.7870 C.3     6  LYS6        0.1561
      3  C         -5.9770   25.0380   -4.1080 C.2     6  LYS6        0.2260
      4  O         -6.0040   24.3340   -5.1070 O.2     6  LYS6       -0.2867
      5  CB        -5.1930   23.5120   -2.3190 C.3     6  LYS6        0.0271
      6  CG        -3.9320   24.3900   -1.9980 C.3     6  LYS6        0.0035
      7  CD        -2.7170   23.6560   -1.3590 C.3     6  LYS6        0.0206
      8  CE        -1.5110   24.6610   -1.1610 C.3     6  LYS6        0.1093
      9  NZ        -1.4730   25.3470    0.1920 N.3     6  LYS6       -0.1314
     10  N         -3.4050   27.7120   -6.4100 N.3     8  LEU8       -0.1245
     11  CA        -2.1290   28.4320   -6.5220 C.3     8  LEU8        0.1561
     12  C         -2.1670   29.3610   -7.7630 C.2     8  LEU8        0.2260
     13  O         -2.9260   29.1020   -8.7050 O.2     8  LEU8       -0.2867
     14  CB        -0.9810   27.4070   -6.6450 C.3     8  LEU8        0.0270
     15  CG        -0.8430   26.3540   -5.5080 C.3     8  LEU8        0.0019
     16  CD1        0.2580   25.4310   -5.9810 C.3     8  LEU8        0.0001
     17  CD2       -0.4430   27.2390   -4.3100 C.3     8  LEU8        0.0001
     18  N         -8.7160   16.1470   -1.9120 N.3    97  THR97      -0.1218
     19  CA        -8.1770   17.4760   -2.0450 C.3    97  THR97       0.1862
     20  C         -8.2430   17.7970   -3.5350 C.2    97  THR97       0.2287
     21  O         -7.6260   17.0820   -4.3470 O.2    97  THR97      -0.2866
     22  CB        -6.7360   17.6210   -1.5600 C.3    97  THR97       0.1770
     23  OG1       -6.7390   17.4730   -0.1260 O.3    97  THR97      -0.2211
     24  CG2       -6.1790   18.9790   -1.9160 C.3    97  THR97       0.0375
     25  N         -7.0140   20.3340   -6.0710 N.3    99  ALA99      -0.1231
     26  CA        -6.0440   21.3960   -6.2040 C.3    99  ALA99       0.1694
     27  C         -6.0990   21.9760   -7.6000 C.2    99  ALA99       0.2592
     28  O         -6.4000   21.2560   -8.5320 O.2    99  ALA99      -0.2718
     29  CB        -4.6240   20.9140   -5.9260 C.3    99  ALA99       0.0304
     30  N         -5.8170   23.2510   -7.7180 N.am  100  ALA100     -0.1966
     31  CA        -5.7950   23.9190   -9.0450 C.3   100  ALA100      0.1728
     32  C         -4.6690   24.9160   -9.1420 C.2   100  ALA100      0.2616
     33  O         -4.4010   25.6530   -8.1930 O.2   100  ALA100     -0.2715
     34  CB        -7.1090   24.6060   -9.3260 C.3   100  ALA100      0.0334
     35  N         -4.0350   24.9900  -10.3110 N.am  101  LEU101     -0.1977
     36  CA        -2.8860   25.9010  -10.5180 C.3   101  LEU101      0.1596
     37  C         -3.3300   26.8190  -11.6530 C.2   101  LEU101      0.2287
     38  O         -3.7020   26.3470  -12.7200 O.2   101  LEU101     -0.2864
     39  CB        -1.7420   25.0200  -10.9830 C.3   101  LEU101      0.0297
     40  CG        -0.4380   25.7660  -11.4050 C.3   101  LEU101      0.0022
     41  CD1        0.1330   26.5050  -10.2060 C.3   101  LEU101      0.0001
     42  CD2        0.5530   24.7690  -11.9960 C.3   101  LEU101      0.0001
     43  N         -4.5480   24.0340  -14.5510 N.3   108  SER108     -0.1202
     44  CA        -4.5910   22.6230  -14.3290 C.3   108  SER108      0.2020
     45  C         -5.2770   22.3120  -12.9960 C.2   108  SER108      0.2619
     46  O         -5.3220   23.1720  -12.1220 O.2   108  SER108     -0.2717
     47  CB        -3.1880   22.0130  -14.3580 C.3   108  SER108      0.2103
     48  OG        -2.4660   22.5790  -13.2820 O.3   108  SER108     -0.2182
     49  N         -5.8200   21.1160  -12.8850 N.am  109  THR109     -0.1938
     50  CA        -6.3990   20.6800  -11.6170 C.3   109  THR109      0.2028
     51  C         -6.0530   19.2420  -11.3450 C.2   109  THR109      0.2642
     52  O         -5.9080   18.4360  -12.2650 O.2   109  THR109     -0.2714
     53  CB        -7.9080   20.9290  -11.6180 C.3   109  THR109      0.1808
     54  OG1       -8.4400   20.5650  -10.3440 O.3   109  THR109     -0.2208
     55  CG2       -8.6310   20.1050  -12.6650 C.3   109  THR109      0.0379
     56  N         -5.8940   18.8630  -10.0790 N.am  110  THR110     -0.1950
     57  CA        -5.5510   17.5000   -9.7960 C.3   110  THR110      0.1897
     58  C         -6.2800   17.0990   -8.5640 C.2   110  THR110      0.2313
     59  O         -6.6090   17.9470   -7.8110 O.2   110  THR110     -0.2863
     60  CB        -4.0450   17.3790   -9.5110 C.3   110  THR110      0.1794
     61  OG1       -3.3910   18.0760  -10.6010 O.3   110  THR110     -0.2208
     62  CG2       -3.6940   15.9040   -9.5200 C.3   110  THR110      0.0378
     63  N         -6.1500   14.7310   -5.1800 N.3   112  VAL112     -0.1245
     64  CA        -5.3280   13.9460   -4.3110 C.3   112  VAL112      0.1561
     65  C         -6.2640   13.2820   -3.3390 C.2   112  VAL112      0.2260
     66  O         -6.9490   13.9900   -2.5740 O.2   112  VAL112     -0.2867
     67  CB        -4.3690   14.8220   -3.5600 C.3   112  VAL112      0.0252
     68  CG1       -3.4150   13.9380   -2.7530 C.3   112  VAL112      0.0019
     69  CG2       -3.5990   15.7370   -4.5390 C.3   112  VAL112      0.0019
@<TRIPOS>BOND
     1    43    44    1
     2    47    44    1
     3    47    48    1
     4    44    45    1
     5    45    49   am
     6    45    46    2
     7    49    50    1
     8    38    37    2
     9    55    53    1
    10    52    51    2
    11    42    40    1
    12    37    36    1
    13    53    50    1
    14    53    54    1
    15    50    51    1
    16    40    39    1
    17    40    41    1
    18    51    56   am
    19    39    36    1
    20    61    60    1
    21    36    35    1
    22    35    32   am
    23    56    57    1
    24    57    60    1
    25    57    58    1
    26    62    60    1
    27    34    31    1
    28    32    31    1
    29    32    33    2
    30    31    30    1
    31    13    12    2
    32    58    59    2
    33    28    27    2
    34    12    11    1
    35    30    27   am
    36    27    26    1
    37    14    11    1
    38    14    15    1
    39    11    10    1
    40    26    25    1
    41    26    29    1
    42    16    15    1
    43    15    17    1
    44    63    64    1
    45     4     3    2
    46    69    67    1
    47    21    20    2
    48    64    67    1
    49    64    65    1
    50     3     2    1
    51    67    68    1
    52    20    19    1
    53    65    66    2
    54     1     2    1
    55     2     5    1
    56     5     6    1
    57    19    18    1
    58    19    22    1
    59     6     7    1
    60    24    22    1
    61    22    23    1
    62     7     8    1
    63     8     9    1
