@<TRIPOS>MOLECULE
tmp/4acuA00.pdb
 209 200 0 0 0
SMALL
GASTEIGER

@<TRIPOS>ATOM
      1  N         -0.8730   -7.9850  -14.6730 N.3    14  SER14      -0.1202
      2  CA        -0.2460   -6.7780  -14.1220 C.3    14  SER14       0.2020
      3  C          1.2340   -6.7180  -14.4880 C.2    14  SER14       0.2619
      4  O          1.7440   -5.6390  -14.7550 O.2    14  SER14      -0.2717
      5  CB        -0.4010   -6.7310  -12.6050 C.3    14  SER14       0.2103
      6  OG         0.2730   -7.8300  -12.0160 O.3    14  SER14      -0.2182
      7  N          1.9100   -7.8730  -14.4750 N.am   15  GLY15      -0.1942
      8  CA         3.3360   -7.9460  -14.7560 C.3    15  GLY15       0.2014
      9  C          3.7550   -7.6410  -16.1770 C.2    15  GLY15       0.2639
     10  O          4.8380   -7.0850  -16.3780 O.2    15  GLY15      -0.2714
     11  N          2.9160   -8.0180  -17.1660 N.am   16  GLN16      -0.1963
     12  CA         3.2840   -7.7990  -18.5680 C.3    16  GLN16       0.1733
     13  C          2.3670   -6.8760  -19.3560 C.2    16  GLN16       0.2617
     14  O          2.6900   -6.5170  -20.4890 O.2    16  GLN16      -0.2715
     15  CB         3.6010   -9.1100  -19.3100 C.3    16  GLN16       0.0408
     16  CG         4.8350   -9.8390  -18.7320 C.3    16  GLN16       0.0908
     17  CD         5.2340  -11.0860  -19.4840 C.2    16  GLN16       0.2608
     18  OE1        4.4480  -11.6890  -20.2180 O.2    16  GLN16      -0.2717
     19  NE2        6.4750  -11.5070  -19.2960 N.am   16  GLN16      -0.0878
     20  N          1.3000   -6.4200  -18.7230 N.am   17  GLY17      -0.1940
     21  CA         0.3760   -5.4600  -19.3010 C.3    17  GLY17       0.2014
     22  C         -0.9240   -6.0550  -19.7970 C.2    17  GLY17       0.2638
     23  O         -0.9840   -7.2340  -20.1740 O.2    17  GLY17      -0.2714
     24  N         -1.9640   -5.2240  -19.8190 N.am   18  TYR18      -0.1973
     25  CA        -3.2630   -5.6500  -20.3260 C.3    18  TYR18       0.1639
     26  C         -3.3800   -5.1280  -21.7260 C.2    18  TYR18       0.2290
     27  O         -3.0010   -3.9850  -21.9890 O.2    18  TYR18      -0.2864
     28  CB        -4.3940   -5.0980  -19.4620 C.3    18  TYR18       0.0560
     29  CG        -4.5430   -5.8050  -18.1350 C.ar   18  TYR18      -0.0198
     30  CD1       -3.7740   -5.4310  -17.0320 C.ar   18  TYR18      -0.0009
     31  CD2       -5.4730   -6.8270  -17.9710 C.ar   18  TYR18      -0.0009
     32  CE1       -3.9260   -6.0680  -15.7940 C.ar   18  TYR18       0.0417
     33  CE2       -5.6240   -7.4780  -16.7480 C.ar   18  TYR18       0.0417
     34  CZ        -4.8630   -7.0810  -15.6570 C.ar   18  TYR18       0.1957
     35  OH        -5.0350   -7.7230  -14.4550 O.3    18  TYR18      -0.2866
     36  N         -1.2700   -2.8340  -25.9860 N.3    34  LEU34      -0.1245
     37  CA        -1.2380   -2.5300  -24.5410 C.3    34  LEU34       0.1561
     38  C         -2.0710   -1.2820  -24.2230 C.2    34  LEU34       0.2260
     39  O         -1.8970   -0.2410  -24.8640 O.2    34  LEU34      -0.2867
     40  CB         0.2260   -2.2740  -24.1270 C.3    34  LEU34       0.0270
     41  CG         0.4360   -1.8040  -22.6880 C.3    34  LEU34       0.0019
     42  CD1        0.4510   -2.9570  -21.7530 C.3    34  LEU34       0.0001
     43  CD2        1.7440   -1.0650  -22.5680 C.3    34  LEU34       0.0001
     44  N         -2.5170    1.6810  -22.1080 N.3    36  ASP36      -0.1239
     45  CA        -1.5900    2.4600  -21.2890 C.3    36  ASP36       0.1674
     46  C         -2.0780    3.8650  -20.9420 C.2    36  ASP36       0.2266
     47  O         -1.9630    4.7920  -21.7560 O.2    36  ASP36      -0.2867
     48  CB        -0.2250    2.5110  -22.0150 C.3    36  ASP36       0.1410
     49  CG         0.8830    3.1800  -21.2070 C.2    36  ASP36       0.3668
     50  OD1        0.6870    3.3890  -19.9560 O.co2  36  ASP36      -0.2456
     51  OD2        1.9700    3.4010  -21.7800 O.co2  36  ASP36      -0.2456
     52  N         -0.6160    5.7180  -18.8990 N.3    38  GLY38      -0.1210
     53  CA         0.5860    6.4750  -18.5100 C.3    38  GLY38       0.1956
     54  C          1.3970    7.0780  -19.6470 C.2    38  GLY38       0.2612
     55  O          2.4970    7.5980  -19.4160 O.2    38  GLY38      -0.2717
     56  N          0.8850    7.0160  -20.8760 N.am   39  SER39      -0.1952
     57  CA         1.5650    7.5840  -22.0480 C.3    39  SER39       0.1924
     58  C          0.5110    8.0540  -23.0600 C.2    39  SER39       0.2314
     59  O         -0.6700    7.7680  -22.8690 O.2    39  SER39      -0.2863
     60  CB         2.5150    6.5610  -22.6800 C.3    39  SER39       0.2116
     61  OG         1.8300    5.5010  -23.3320 O.3    39  SER39      -0.2180
     62  N          1.1090    8.2060  -26.8780 N.3    41  ASN41      -0.1240
     63  CA         1.2880    7.8710  -28.2910 C.3    41  ASN41       0.1653
     64  C          0.6400    6.5200  -28.5830 C.2    41  ASN41       0.2266
     65  O          0.7300    5.5750  -27.7600 O.2    41  ASN41      -0.2867
     66  CB         2.7750    7.7430  -28.6390 C.3    41  ASN41       0.1155
     67  CG         3.4680    9.0690  -28.7660 C.2    41  ASN41       0.2627
     68  OD1        3.8850    9.6480  -27.7620 O.2    41  ASN41      -0.2716
     69  ND2        3.5920    9.5740  -30.0040 N.am   41  ASN41      -0.0877
     70  N         12.1990    8.0560  -28.7260 N.3    73  VAL73      -0.1245
     71  CA        11.7780    8.0070  -27.3310 C.3    73  VAL73       0.1561
     72  C         12.7440    7.2740  -26.3740 C.2    73  VAL73       0.2260
     73  O         12.4930    6.1150  -26.0290 O.2    73  VAL73      -0.2867
     74  CB        10.2780    7.6040  -27.1470 C.3    73  VAL73       0.0252
     75  CG1        9.8360    7.7420  -25.6850 C.3    73  VAL73       0.0019
     76  CG2        9.3750    8.4350  -28.0540 C.3    73  VAL73       0.0019
     77  N         13.9300    6.6040  -22.6480 N.3    75  TYR75      -0.1241
     78  CA        13.3770    6.7680  -21.2990 C.3    75  TYR75       0.1605
     79  C         14.2430    5.9720  -20.3110 C.2    75  TYR75       0.2264
     80  O         15.0840    5.1880  -20.7530 O.2    75  TYR75      -0.2867
     81  CB        11.8630    6.4380  -21.2350 C.3    75  TYR75       0.0534
     82  CG        11.5100    5.0440  -21.7000 C.ar   75  TYR75      -0.0201
     83  CD1       11.3200    4.7640  -23.0520 C.ar   75  TYR75      -0.0009
     84  CD2       11.3580    4.0030  -20.7910 C.ar   75  TYR75      -0.0009
     85  CE1       11.0190    3.4750  -23.4890 C.ar   75  TYR75       0.0417
     86  CE2       11.0500    2.7130  -21.2170 C.ar   75  TYR75       0.0417
     87  CZ        10.8950    2.4500  -22.5690 C.ar   75  TYR75       0.1957
     88  OH        10.5990    1.1770  -22.9930 O.3    75  TYR75      -0.2866
     89  N         14.0650    3.3070  -18.4650 N.3    77  GLN77      -0.1245
     90  CA        14.0370    1.8450  -18.6320 C.3    77  GLN77       0.1566
     91  C         14.5200    1.2920  -19.9950 C.2    77  GLN77       0.2260
     92  O         14.9950    0.1550  -20.0590 O.2    77  GLN77      -0.2867
     93  CB        12.6390    1.2850  -18.2910 C.3    77  GLN77       0.0367
     94  CG        12.1740    1.5300  -16.8440 C.3    77  GLN77       0.0905
     95  CD        11.5490    2.8900  -16.5780 C.2    77  GLN77       0.2608
     96  OE1       11.5480    3.8010  -17.4200 O.2    77  GLN77      -0.2717
     97  NE2       11.0290    3.0680  -15.3700 N.am   77  GLN77      -0.0878
     98  N         12.3680    3.4380  -27.7160 N.3    80  TRP80      -0.1241
     99  CA        11.6790    3.0760  -28.9560 C.3    80  TRP80       0.1605
    100  C         11.8300    4.2560  -29.8830 C.2    80  TRP80       0.2264
    101  O         11.9160    5.3910  -29.4210 O.2    80  TRP80      -0.2867
    102  CB        10.2120    2.6520  -28.7630 C.3    80  TRP80       0.0550
    103  CG         9.2670    3.7330  -28.2980 C.ar   80  TRP80       0.0003
    104  CD1        8.8850    3.9890  -27.0110 C.ar   80  TRP80       0.0946
    105  CD2        8.4900    4.6160  -29.1340 C.ar   80  TRP80       0.0152
    106  NE1        7.9500    5.0090  -26.9870 N.ar   80  TRP80      -0.2442
    107  CE2        7.6680    5.3890  -28.2790 C.ar   80  TRP80       0.0810
    108  CE3        8.4390    4.8550  -30.5200 C.ar   80  TRP80       0.0012
    109  CZ2        6.7960    6.3710  -28.7690 C.ar   80  TRP80       0.0191
    110  CZ3        7.5660    5.8150  -31.0040 C.ar   80  TRP80       0.0001
    111  CH2        6.7730    6.5770  -30.1360 C.ar   80  TRP80       0.0015
    112  N         14.4990   -2.8890  -24.8240 N.3   111  LYS111     -0.1231
    113  CA        13.7880   -3.3110  -23.5980 C.3   111  LYS111      0.1693
    114  C         12.3410   -2.7850  -23.5140 C.2   111  LYS111      0.2592
    115  O         11.8200   -2.5250  -22.4220 O.2   111  LYS111     -0.2718
    116  CB        14.6110   -2.9540  -22.3440 C.3   111  LYS111      0.0285
    117  CG        15.9670   -3.6610  -22.2970 C.3   111  LYS111      0.0035
    118  CD        16.8430   -3.1820  -21.1450 C.3   111  LYS111      0.0206
    119  CE        17.9470   -4.1670  -20.8230 C.3   111  LYS111      0.1093
    120  NZ        19.0030   -4.2140  -21.8750 N.3   111  LYS111     -0.1314
    121  N         11.6960   -2.6300  -24.6830 N.am  112  PHE112     -0.1976
    122  CA        10.3320   -2.1080  -24.7880 C.3   112  PHE112      0.1639
    123  C          9.3800   -3.2890  -24.9310 C.2   112  PHE112      0.2290
    124  O          8.4950   -3.4780  -24.0840 O.2   112  PHE112     -0.2864
    125  CB        10.2400   -1.1650  -25.9920 C.3   112  PHE112      0.0560
    126  CG         8.8840   -0.5690  -26.2610 C.ar  112  PHE112     -0.0200
    127  CD1        8.4620    0.5670  -25.5860 C.ar  112  PHE112     -0.0042
    128  CD2        8.0650   -1.0860  -27.2620 C.ar  112  PHE112     -0.0042
    129  CE1        7.2130    1.1380  -25.8570 C.ar  112  PHE112     -0.0003
    130  CE2        6.8090   -0.5270  -27.5200 C.ar  112  PHE112     -0.0003
    131  CZ         6.4060    0.5980  -26.8390 C.ar  112  PHE112     -0.0000
    132  N          8.2050   -7.1330  -24.7230 N.3   114  ILE114     -0.1245
    133  CA         8.4210   -8.1550  -23.6910 C.3   114  ILE114      0.1561
    134  C          8.1320   -9.5450  -24.2470 C.2   114  ILE114      0.2260
    135  O          7.0860   -9.7500  -24.8730 O.2   114  ILE114     -0.2867
    136  CB         7.5550   -7.8270  -22.4400 C.3   114  ILE114      0.0252
    137  CG1        8.0900   -6.5570  -21.7310 C.3   114  ILE114      0.0019
    138  CG2        7.4640   -9.0270  -21.4560 C.3   114  ILE114      0.0019
    139  CD1        7.0840   -5.8560  -20.9180 C.3   114  ILE114      0.0001
    140  N          1.4990   -8.7170  -26.8670 N.3   119  TRP119     -0.1241
    141  CA         1.1270   -7.4290  -27.4750 C.3   119  TRP119      0.1605
    142  C          2.2520   -6.9110  -28.3830 C.2   119  TRP119      0.2264
    143  O          3.4220   -7.2490  -28.1670 O.2   119  TRP119     -0.2867
    144  CB         0.6230   -6.3760  -26.4740 C.3   119  TRP119      0.0550
    145  CG         1.5340   -6.0880  -25.3200 C.ar  119  TRP119      0.0003
    146  CD1        1.3850   -6.5480  -24.0420 C.ar  119  TRP119      0.0946
    147  CD2        2.6470   -5.1760  -25.2920 C.ar  119  TRP119      0.0152
    148  NE1        2.3470   -6.0080  -23.2280 N.ar  119  TRP119     -0.2442
    149  CE2        3.1360   -5.1590  -23.9660 C.ar  119  TRP119      0.0810
    150  CE3        3.2930   -4.3830  -26.2630 C.ar  119  TRP119      0.0012
    151  CZ2        4.2360   -4.3820  -23.5800 C.ar  119  TRP119      0.0191
    152  CZ3        4.3880   -3.6080  -25.8800 C.ar  119  TRP119      0.0001
    153  CH2        4.8780   -3.6510  -24.5650 C.ar  119  TRP119      0.0015
    154  N          1.3720   -0.1320  -28.3010 N.3   122  ILE122     -0.1245
    155  CA         0.8480    0.5180  -27.0970 C.3   122  ILE122      0.1561
    156  C         -0.1520    1.5740  -27.4820 C.2   122  ILE122      0.2260
    157  O          0.0680    2.3420  -28.4170 O.2   122  ILE122     -0.2867
    158  CB         2.0120    1.1310  -26.2380 C.3   122  ILE122      0.0252
    159  CG1        3.0300    0.0510  -25.7690 C.3   122  ILE122      0.0019
    160  CG2        1.4600    1.9160  -25.0520 C.3   122  ILE122      0.0019
    161  CD1        3.9790    0.5190  -24.6790 C.3   122  ILE122      0.0001
    162  N         -1.7520    4.8190  -13.6610 N.3   218  ASP218     -0.1225
    163  CA        -1.0550    4.2850  -14.8090 C.3   218  ASP218      0.1805
    164  C         -1.2360    2.7840  -15.0150 C.2   218  ASP218      0.2598
    165  O         -0.5540    1.9820  -14.3570 O.2   218  ASP218     -0.2718
    166  CB         0.4420    4.6620  -14.6820 C.3   218  ASP218      0.1424
    167  CG         1.3230    4.2130  -15.8550 C.2   218  ASP218      0.3668
    168  OD1        0.7600    3.7400  -16.8910 O.co2 218  ASP218     -0.2456
    169  OD2        2.5710    4.3520  -15.7520 O.co2 218  ASP218     -0.2456
    170  N         -2.1220    2.3970  -15.9660 N.am  219  SER219     -0.1938
    171  CA        -2.3420    0.9680  -16.2620 C.3   219  SER219      0.2055
    172  C         -1.0920    0.3150  -16.9160 C.2   219  SER219      0.2644
    173  O         -1.0240   -0.9170  -17.0030 O.2   219  SER219     -0.2714
    174  CB        -3.5420    0.7910  -17.1890 C.3   219  SER219      0.2130
    175  OG        -3.3200    1.4750  -18.4130 O.3   219  SER219     -0.2179
    176  N         -0.1550    1.1410  -17.3990 N.am  220  GLY220     -0.1939
    177  CA         1.0920    0.6880  -18.0250 C.3   220  GLY220      0.2014
    178  C          2.2820    0.5170  -17.0840 C.2   220  GLY220      0.2640
    179  O          3.4200    0.3300  -17.5460 O.2   220  GLY220     -0.2714
    180  N          2.0500    0.6420  -15.7560 N.am  221  THR221     -0.1936
    181  CA         3.0570    0.3720  -14.7240 C.3   221  THR221      0.2028
    182  C          2.5040   -0.7880  -13.8930 C.2   221  THR221      0.2642
    183  O          1.3310   -0.7610  -13.5270 O.2   221  THR221     -0.2714
    184  CB         3.3030    1.5940  -13.8020 C.3   221  THR221      0.1808
    185  OG1        4.0650    2.5570  -14.5260 O.3   221  THR221     -0.2208
    186  CG2        4.0630    1.2160  -12.4660 C.3   221  THR221      0.0379
    187  N          3.3490   -1.7960  -13.5730 N.am  222  THR222     -0.1950
    188  CA         2.8730   -2.8920  -12.7340 C.3   222  THR222      0.1897
    189  C          2.5750   -2.4670  -11.2790 C.2   222  THR222      0.2313
    190  O          1.4770   -2.6950  -10.7670 O.2   222  THR222     -0.2863
    191  CB         3.9030   -4.0360  -12.7560 C.3   222  THR222      0.1794
    192  OG1        4.0170   -4.5060  -14.1070 O.3   222  THR222     -0.2208
    193  CG2        3.4990   -5.1880  -11.8380 C.3   222  THR222      0.0378
    194  N          3.9710    2.5200   -7.0470 N.3   225  ARG225     -0.1245
    195  CA         5.3070    3.1280   -6.8640 C.3   225  ARG225      0.1563
    196  C          5.1610    4.3320   -5.9690 C.2   225  ARG225      0.2260
    197  O          4.1930    5.0780   -6.1250 O.2   225  ARG225     -0.2867
    198  CB         5.9830    3.4780   -8.1990 C.3   225  ARG225      0.0307
    199  CG         6.0300    2.2660   -9.1280 C.3   225  ARG225      0.0489
    200  CD         6.7710    2.5440  -10.4160 C.3   225  ARG225      0.2205
    201  NE         8.1910    2.7440  -10.1640 N.pl3 225  ARG225     -0.0865
    202  CZ         8.8800    3.8140  -10.5460 C.cat 225  ARG225      0.5346
    203  NH1        8.2910    4.7790  -11.2460 N.pl3 225  ARG225      0.1354
    204  NH2       10.1680    3.9170  -10.2540 N.pl3 225  ARG225      0.1354
    205  N         -1.1000   -1.1220  -12.1730 N.3   325  ALA325     -0.1245
    206  CA        -2.0670   -2.2120  -12.4030 C.3   325  ALA325      0.1562
    207  C         -2.4110   -2.9810  -11.1580 C.2   325  ALA325      0.2260
    208  O         -3.5670   -3.3460  -10.9870 O.2   325  ALA325     -0.2867
    209  CB        -1.5710   -3.1570  -13.5020 C.3   325  ALA325      0.0290
@<TRIPOS>BOND
     1   110   108   ar
     2   110   111   ar
     3   108   105   ar
     4   111   109   ar
     5    69    67   am
     6   100   101    2
     7   100    99    1
     8   105   103   ar
     9   105   107   ar
    10    99   102    1
    11    99    98    1
    12   109   107   ar
    13    67    66    1
    14    67    68    2
    15   102   103    1
    16    70    71    1
    17    66    63    1
    18    64    63    1
    19    64    65    2
    20   157   156    2
    21   142   143    2
    22   142   141    1
    23   154   155    1
    24   103   104   ar
    25    63    62    1
    26   107   106   ar
    27    76    74    1
    28   130   128   ar
    29   130   131   ar
    30   156   155    1
    31   141   140    1
    32   141   144    1
    33    71    74    1
    34    71    72    1
    35   128   126   ar
    36    74    75    1
    37   155   158    1
    38   104   106   ar
    39   131   129   ar
    40   144   145    1
    41    72    73    2
    42   150   152   ar
    43   150   147   ar
    44   126   125    1
    45   126   127   ar
    46   158   159    1
    47   158   160    1
    48   125   122    1
    49    36    37    1
    50   152   153   ar
    51   129   127   ar
    52   159   161    1
    53   145   147   ar
    54   145   146   ar
    55   147   149   ar
    56   123   122    1
    57   123   124    2
    58   135   134    2
    59    39    38    2
    60   112   113    1
    61   122   121    1
    62   132   133    1
    63   121   114   am
    64   153   151   ar
    65    37    38    1
    66    37    40    1
    67   134   133    1
    68    40    41    1
    69   146   148   ar
    70   149   151   ar
    71   149   148   ar
    72   133   136    1
    73   113   114    1
    74   113   116    1
    75   114   115    2
    76    85    83   ar
    77    85    87   ar
    78    61    60    1
    79    58    59    2
    80    58    57    1
    81    83    82   ar
    82    88    87    1
    83    41    43    1
    84    41    42    1
    85    60    57    1
    86    77    78    1
    87    87    86   ar
    88   136   137    1
    89   136   138    1
    90   116   117    1
    91   117   118    1
    92    44    45    1
    93    57    56    1
    94    48    45    1
    95    48    49    1
    96    27    26    2
    97   120   119    1
    98    51    49   ar
    99    47    46    2
   100   137   139    1
   101    26    25    1
   102    82    81    1
   103    82    84   ar
   104    78    81    1
   105    78    79    1
   106    45    46    1
   107    86    84   ar
   108    49    50   ar
   109   118   119    1
   110    56    54   am
   111    80    79    2
   112    14    13    2
   113    25    24    1
   114    25    28    1
   115    18    17    2
   116    23    22    2
   117    92    91    2
   118    91    90    1
   119    24    22   am
   120    22    21    1
   121    54    55    2
   122    54    53    1
   123    17    19   am
   124    17    16    1
   125    28    29    1
   126    13    20   am
   127    13    12    1
   128    15    16    1
   129    15    12    1
   130    21    20    1
   131    52    53    1
   132    90    89    1
   133    90    93    1
   134    12    11    1
   135   175   174    1
   136    93    94    1
   137    29    31   ar
   138    29    30   ar
   139   177   176    1
   140   177   178    1
   141    31    33   ar
   142   179   178    2
   143    96    95    2
   144   176   172   am
   145   174   171    1
   146    11     9   am
   147   178   180   am
   148    30    32   ar
   149   173   172    2
   150   172   171    1
   151   168   167   ar
   152    94    95    1
   153    33    34   ar
   154    95    97   am
   155    10     9    2
   156   171   170    1
   157     9     8    1
   158   170   164   am
   159   167   169   ar
   160   167   166    1
   161    32    34   ar
   162   180   181    1
   163    34    35    1
   164   164   163    1
   165   164   165    2
   166   163   166    1
   167   163   162    1
   168     8     7    1
   169     4     3    2
   170   181   182    1
   171   181   184    1
   172     1     2    1
   173   185   184    1
   174     3     7   am
   175     3     2    1
   176     2     5    1
   177   192   191    1
   178   182   187   am
   179   182   183    2
   180   184   186    1
   181   187   188    1
   182   209   206    1
   183   191   188    1
   184   191   193    1
   185   188   189    1
   186     5     6    1
   187   206   205    1
   188   206   207    1
   189   189   190    2
   190   203   202    1
   191   207   208    2
   192   202   204    1
   193   202   201    2
   194   200   201    1
   195   200   199    1
   196   199   198    1
   197   198   195    1
   198   194   195    1
   199   195   196    1
   200   197   196    2
