@<TRIPOS>MOLECULE
tmp/4acxA00.pdb
 227 215 0 0 0
SMALL
GASTEIGER

@<TRIPOS>ATOM
      1  N         -0.9910   -8.0960  -14.6710 N.3    12  SER12      -0.1202
      2  CA        -0.3240   -6.8860  -14.1670 C.3    12  SER12       0.2020
      3  C          1.1350   -6.7840  -14.6200 C.2    12  SER12       0.2619
      4  O          1.5750   -5.6980  -15.0080 O.2    12  SER12      -0.2717
      5  CB        -0.4090   -6.8040  -12.6450 C.3    12  SER12       0.2103
      6  OG        -0.0320   -8.0200  -12.0200 O.3    12  SER12      -0.2182
      7  N          1.8420   -7.9190  -14.5960 N.am   13  GLY13      -0.1942
      8  CA         3.2460   -8.0300  -14.9720 C.3    13  GLY13       0.2014
      9  C          3.5660   -7.7160  -16.4180 C.2    13  GLY13       0.2639
     10  O          4.5490   -7.0210  -16.6910 O.2    13  GLY13      -0.2714
     11  N          2.7530   -8.2300  -17.3530 N.am   14  GLN14      -0.1963
     12  CA         2.9930   -8.0460  -18.7870 C.3    14  GLN14       0.1733
     13  C          2.0410   -7.0750  -19.4950 C.2    14  GLN14       0.2616
     14  O          2.2820   -6.7120  -20.6490 O.2    14  GLN14      -0.2715
     15  CB         3.1380   -9.3940  -19.5150 C.3    14  GLN14       0.0408
     16  CG         4.2550  -10.2650  -18.9310 C.3    14  GLN14       0.0908
     17  CD         4.8840  -11.2240  -19.9110 C.2    14  GLN14       0.2608
     18  OE1        4.2120  -11.8880  -20.7040 O.2    14  GLN14      -0.2717
     19  NE2        6.1980  -11.3660  -19.8270 N.am   14  GLN14      -0.0878
     20  N          1.0180   -6.6160  -18.7770 N.am   15  GLY15      -0.1955
     21  CA         0.0610   -5.6360  -19.2720 C.3    15  GLY15       0.1869
     22  C         -1.2200   -6.1820  -19.8570 C.2    15  GLY15       0.2309
     23  O         -1.2750   -7.3300  -20.3090 O.2    15  GLY15      -0.2863
     24  N         -1.5370   -2.7710  -26.0420 N.3    32  LEU32      -0.1245
     25  CA        -1.4570   -2.4660  -24.6080 C.3    32  LEU32       0.1561
     26  C         -2.3270   -1.2690  -24.2300 C.2    32  LEU32       0.2260
     27  O         -2.2480   -0.2230  -24.8730 O.2    32  LEU32      -0.2867
     28  CB         0.0130   -2.2190  -24.1990 C.3    32  LEU32       0.0270
     29  CG         0.2920   -1.7900  -22.7440 C.3    32  LEU32       0.0019
     30  CD1        0.2030   -2.9680  -21.7900 C.3    32  LEU32       0.0001
     31  CD2        1.6630   -1.1580  -22.6190 C.3    32  LEU32       0.0001
     32  N         -2.6900    1.6070  -22.1030 N.3    34  ASP34      -0.1239
     33  CA        -1.7820    2.4310  -21.3130 C.3    34  ASP34       0.1674
     34  C         -2.3090    3.8400  -21.0020 C.2    34  ASP34       0.2266
     35  O         -2.3410    4.7010  -21.8800 O.2    34  ASP34      -0.2867
     36  CB        -0.4220    2.4750  -22.0270 C.3    34  ASP34       0.1410
     37  CG         0.7250    3.1450  -21.2930 C.2    34  ASP34       0.3668
     38  OD1        0.5740    3.4450  -20.0850 O.co2  34  ASP34      -0.2456
     39  OD2        1.7770    3.3420  -21.9150 O.co2  34  ASP34      -0.2456
     40  N         -0.7470    5.8510  -18.9910 N.3    36  GLY36      -0.1210
     41  CA         0.4560    6.6050  -18.6330 C.3    36  GLY36       0.1956
     42  C          1.2800    7.1350  -19.7950 C.2    36  GLY36       0.2613
     43  O          2.4170    7.5680  -19.5970 O.2    36  GLY36      -0.2717
     44  N          0.7180    7.1040  -21.0170 N.am   37  SER37      -0.1938
     45  CA         1.3550    7.6090  -22.2410 C.3    37  SER37       0.2055
     46  C          0.2740    8.1160  -23.1960 C.2    37  SER37       0.2644
     47  O         -0.9090    7.9150  -22.9180 O.2    37  SER37      -0.2714
     48  CB         2.2430    6.5470  -22.8880 C.3    37  SER37       0.2130
     49  OG         1.4960    5.4570  -23.3970 O.3    37  SER37      -0.2179
     50  N          0.6610    8.7930  -24.2960 N.am   38  SER38      -0.1935
     51  CA        -0.3060    9.4190  -25.1980 C.3    38  SER38       0.2055
     52  C         -0.1630    9.1160  -26.6850 C.2    38  SER38       0.2643
     53  O         -0.8920    9.6970  -27.4990 O.2    38  SER38      -0.2714
     54  CB        -0.3110   10.9240  -24.9680 C.3    38  SER38       0.2130
     55  OG        -0.5800   11.1820  -23.6030 O.3    38  SER38      -0.2179
     56  N          0.7580    8.2180  -27.0440 N.am   39  ASN39      -0.1971
     57  CA         0.9670    7.8560  -28.4380 C.3    39  ASN39       0.1688
     58  C          0.3470    6.5130  -28.7610 C.2    39  ASN39       0.2292
     59  O          0.3580    5.5980  -27.9360 O.2    39  ASN39      -0.2864
     60  CB         2.4590    7.8000  -28.7620 C.3    39  ASN39       0.1181
     61  CG         3.1050    9.1470  -28.8720 C.2    39  ASN39       0.2629
     62  OD1        3.4950    9.7580  -27.8760 O.2    39  ASN39      -0.2716
     63  ND2        3.2570    9.6270  -30.0940 N.am   39  ASN39      -0.0877
     64  N          1.4070    3.9050  -30.6820 N.3    41  ALA41      -0.1245
     65  CA         2.6790    3.4380  -31.2330 C.3    41  ALA41       0.1562
     66  C          2.6640    1.9300  -31.4030 C.2    41  ALA41       0.2260
     67  O          2.4850    1.2040  -30.4280 O.2    41  ALA41      -0.2867
     68  CB         3.8230    3.8550  -30.3070 C.3    41  ALA41       0.0290
     69  N         12.0710    8.3030  -29.2240 N.3    71  VAL71      -0.1245
     70  CA        11.6480    8.3580  -27.8230 C.3    71  VAL71       0.1561
     71  C         12.6270    7.6880  -26.8380 C.2    71  VAL71       0.2260
     72  O         12.4430    6.5230  -26.4710 O.2    71  VAL71      -0.2867
     73  CB        10.1480    7.9820  -27.5940 C.3    71  VAL71       0.0252
     74  CG1        9.7310    8.1740  -26.1330 C.3    71  VAL71       0.0019
     75  CG2        9.2350    8.7910  -28.5040 C.3    71  VAL71       0.0019
     76  N         13.8080    7.0160  -23.1690 N.3    73  TYR73      -0.1241
     77  CA        13.2660    7.1200  -21.8120 C.3    73  TYR73       0.1605
     78  C         14.0990    6.3220  -20.8010 C.2    73  TYR73       0.2264
     79  O         15.1210    5.7470  -21.1850 O.2    73  TYR73      -0.2867
     80  CB        11.7420    6.8410  -21.7600 C.3    73  TYR73       0.0534
     81  CG        11.3130    5.4420  -22.1470 C.ar   73  TYR73      -0.0201
     82  CD1       11.1590    5.0820  -23.4840 C.ar   73  TYR73      -0.0009
     83  CD2       10.9740    4.5030  -21.1780 C.ar   73  TYR73      -0.0009
     84  CE1       10.7440    3.8010  -23.8460 C.ar   73  TYR73       0.0417
     85  CE2       10.5410    3.2250  -21.5270 C.ar   73  TYR73       0.0417
     86  CZ        10.4390    2.8740  -22.8630 C.ar   73  TYR73       0.1957
     87  OH        10.0250    1.6110  -23.2100 O.3    73  TYR73      -0.2866
     88  N         13.3480    3.4830  -18.7110 N.3    75  GLN75      -0.1245
     89  CA        13.2290    2.0270  -18.8320 C.3    75  GLN75       0.1566
     90  C         13.5240    1.4150  -20.2180 C.2    75  GLN75       0.2260
     91  O         13.6020    0.1890  -20.3280 O.2    75  GLN75      -0.2867
     92  CB        11.8800    1.5380  -18.2710 C.3    75  GLN75       0.0367
     93  CG        11.7740    1.6380  -16.7460 C.3    75  GLN75       0.0905
     94  CD        11.0920    2.9010  -16.2690 C.2    75  GLN75       0.2608
     95  OE1       11.3450    4.0120  -16.7520 O.2    75  GLN75      -0.2717
     96  NE2       10.2130    2.7570  -15.2900 N.am   75  GLN75      -0.0878
     97  N         12.8560    3.6630  -28.1730 N.3    78  TRP78      -0.1241
     98  CA        12.1210    3.3360  -29.4000 C.3    78  TRP78       0.1605
     99  C         12.1260    4.4950  -30.3830 C.2    78  TRP78       0.2264
    100  O         12.0380    5.6550  -29.9760 O.2    78  TRP78      -0.2867
    101  CB        10.6920    2.7990  -29.1430 C.3    78  TRP78       0.0550
    102  CG         9.6410    3.8330  -28.8460 C.ar   78  TRP78       0.0003
    103  CD1        9.1850    4.2070  -27.6170 C.ar   78  TRP78       0.0946
    104  CD2        8.8600    4.5650  -29.8040 C.ar   78  TRP78       0.0152
    105  NE1        8.1760    5.1340  -27.7470 N.ar   78  TRP78      -0.2442
    106  CE2        7.9690    5.3860  -29.0790 C.ar   78  TRP78       0.0810
    107  CE3        8.8530    4.6350  -31.2090 C.ar   78  TRP78       0.0012
    108  CZ2        7.0620    6.2440  -29.7090 C.ar   78  TRP78       0.0191
    109  CZ3        7.9660    5.5000  -31.8320 C.ar   78  TRP78       0.0001
    110  CH2        7.0940    6.3000  -31.0840 C.ar   78  TRP78       0.0015
    111  N         14.4770   -2.5370  -25.1250 N.3   109  LYS109     -0.1231
    112  CA        13.8010   -2.7940  -23.8410 C.3   109  LYS109      0.1693
    113  C         12.3660   -2.2150  -23.7780 C.2   109  LYS109      0.2592
    114  O         11.8890   -1.8270  -22.7090 O.2   109  LYS109     -0.2718
    115  CB        14.6790   -2.3460  -22.6480 C.3   109  LYS109      0.0285
    116  CG        15.9210   -3.2170  -22.4400 C.3   109  LYS109      0.0035
    117  CD        16.8690   -2.6600  -21.3700 C.3   109  LYS109      0.0206
    118  CE        16.5880   -3.1650  -19.9690 C.3   109  LYS109      0.1093
    119  NZ        16.9790   -4.5910  -19.7900 N.3   109  LYS109     -0.1314
    120  N         11.6890   -2.1710  -24.9400 N.am  110  PHE110     -0.1976
    121  CA        10.3440   -1.6290  -25.0930 C.3   110  PHE110      0.1639
    122  C          9.3140   -2.7620  -25.1070 C.2   110  PHE110      0.2290
    123  O          8.4740   -2.8230  -24.2090 O.2   110  PHE110     -0.2864
    124  CB        10.2790   -0.7580  -26.3630 C.3   110  PHE110      0.0560
    125  CG         8.9420   -0.1420  -26.6850 C.ar  110  PHE110     -0.0200
    126  CD1        8.5680    1.0740  -26.1290 C.ar  110  PHE110     -0.0042
    127  CD2        8.0850   -0.7430  -27.5980 C.ar  110  PHE110     -0.0042
    128  CE1        7.3380    1.6550  -26.4450 C.ar  110  PHE110     -0.0003
    129  CE2        6.8550   -0.1660  -27.9090 C.ar  110  PHE110     -0.0003
    130  CZ         6.5030    1.0440  -27.3550 C.ar  110  PHE110     -0.0000
    131  N          7.9140   -6.6580  -24.7110 N.3   112  ILE112     -0.1245
    132  CA         8.1260   -7.6910  -23.6880 C.3   112  ILE112      0.1561
    133  C          7.9130   -9.0800  -24.2980 C.2   112  ILE112      0.2260
    134  O          6.9290   -9.2900  -25.0050 O.2   112  ILE112     -0.2867
    135  CB         7.2240   -7.4450  -22.4290 C.3   112  ILE112      0.0252
    136  CG1        7.3730   -5.9910  -21.8920 C.3   112  ILE112      0.0019
    137  CG2        7.5170   -8.4720  -21.3180 C.3   112  ILE112      0.0019
    138  CD1        6.2080   -5.4690  -21.0010 C.3   112  ILE112      0.0001
    139  N          1.2630   -8.6490  -26.9710 N.3   117  TRP117     -0.1241
    140  CA         0.9020   -7.3720  -27.5900 C.3   117  TRP117      0.1605
    141  C          1.9950   -6.8320  -28.5180 C.2   117  TRP117      0.2264
    142  O          3.1810   -7.1150  -28.3120 O.2   117  TRP117     -0.2867
    143  CB         0.3690   -6.3340  -26.5920 C.3   117  TRP117      0.0550
    144  CG         1.2780   -5.9980  -25.4460 C.ar  117  TRP117      0.0003
    145  CD1        1.1760   -6.4530  -24.1640 C.ar  117  TRP117      0.0946
    146  CD2        2.3560   -5.0500  -25.4520 C.ar  117  TRP117      0.0152
    147  NE1        2.1440   -5.8740  -23.3780 N.ar  117  TRP117     -0.2442
    148  CE2        2.8790   -5.0030  -24.1410 C.ar  117  TRP117      0.0810
    149  CE3        2.9430   -4.2410  -26.4450 C.ar  117  TRP117      0.0012
    150  CZ2        3.9710   -4.1960  -23.7980 C.ar  117  TRP117      0.0191
    151  CZ3        4.0200   -3.4370  -26.1030 C.ar  117  TRP117      0.0001
    152  CH2        4.5260   -3.4240  -24.7960 C.ar  117  TRP117      0.0015
    153  N          1.0710   -0.0640  -28.3900 N.3   120  ILE120     -0.1245
    154  CA         0.6200    0.6290  -27.1830 C.3   120  ILE120      0.1561
    155  C         -0.4460    1.6730  -27.5170 C.2   120  ILE120      0.2260
    156  O         -0.2480    2.4890  -28.4150 O.2   120  ILE120     -0.2867
    157  CB         1.8370    1.2500  -26.4210 C.3   120  ILE120      0.0252
    158  CG1        2.8410    0.1560  -25.9600 C.3   120  ILE120      0.0019
    159  CG2        1.3850    2.1390  -25.2510 C.3   120  ILE120      0.0019
    160  CD1        3.9820    0.6210  -25.0880 C.3   120  ILE120      0.0001
    161  N          1.8170   15.2180  -23.1070 N.3   128  ILE128     -0.1245
    162  CA         2.8900   14.2280  -22.9830 C.3   128  ILE128      0.1561
    163  C          3.0830   13.3750  -24.2640 C.2   128  ILE128      0.2260
    164  O          3.8660   12.4220  -24.2500 O.2   128  ILE128     -0.2867
    165  CB         2.7880   13.3980  -21.6660 C.3   128  ILE128      0.0252
    166  CG1        1.5250   12.5150  -21.6310 C.3   128  ILE128      0.0019
    167  CG2        2.8820   14.3020  -20.4280 C.3   128  ILE128      0.0019
    168  CD1        1.6540   11.2280  -20.8410 C.3   128  ILE128      0.0001
    169  N          4.4950   12.3690  -27.9500 N.3   130  ARG130     -0.1245
    170  CA         5.7970   12.5510  -28.5950 C.3   130  ARG130      0.1563
    171  C          5.6660   12.6080  -30.1320 C.2   130  ARG130      0.2260
    172  O          4.8110   11.8990  -30.6700 O.2   130  ARG130     -0.2867
    173  CB         6.7830   11.4520  -28.1600 C.3   130  ARG130      0.0307
    174  CG         7.0610   11.3800  -26.6600 C.3   130  ARG130      0.0489
    175  CD         8.0480   12.4240  -26.1660 C.3   130  ARG130      0.2205
    176  NE         8.5670   12.0760  -24.8420 N.pl3 130  ARG130     -0.0865
    177  CZ         9.7990   11.6330  -24.6090 C.cat 130  ARG130      0.5346
    178  NH1       10.6670   11.5050  -25.6070 N.pl3 130  ARG130      0.1354
    179  NH2       10.1800   11.3330  -23.3740 N.pl3 130  ARG130      0.1354
    180  N         -1.7120    4.8630  -13.7030 N.3   216  ASP216     -0.1225
    181  CA        -1.0460    4.2840  -14.8650 C.3   216  ASP216      0.1805
    182  C         -1.2490    2.7720  -15.0500 C.2   216  ASP216      0.2598
    183  O         -0.6370    1.9760  -14.3350 O.2   216  ASP216     -0.2718
    184  CB         0.4500    4.6370  -14.7970 C.3   216  ASP216      0.1424
    185  CG         1.3010    4.2420  -15.9880 C.2   216  ASP216      0.3668
    186  OD1        0.7320    3.7930  -17.0060 O.co2 216  ASP216     -0.2456
    187  OD2        2.5310    4.4300  -15.9220 O.co2 216  ASP216     -0.2456
    188  N         -2.0400    2.3830  -16.0740 N.am  217  SER217     -0.1938
    189  CA        -2.2750    0.9720  -16.4130 C.3   217  SER217      0.2055
    190  C         -1.0520    0.3400  -17.1050 C.2   217  SER217      0.2644
    191  O         -0.9680   -0.8870  -17.2050 O.2   217  SER217     -0.2714
    192  CB        -3.5200    0.8250  -17.2890 C.3   217  SER217      0.2130
    193  OG        -3.4120    1.5970  -18.4720 O.3   217  SER217     -0.2179
    194  N         -0.1220    1.1850  -17.5610 N.am  218  GLY218     -0.1939
    195  CA         1.1120    0.7560  -18.2190 C.3   218  GLY218      0.2014
    196  C          2.2850    0.5350  -17.2790 C.2   218  GLY218      0.2640
    197  O          3.4100    0.3400  -17.7390 O.2   218  GLY218     -0.2714
    198  N          2.0400    0.5960  -15.9570 N.am  219  THR219     -0.1936
    199  CA         3.0270    0.3090  -14.9030 C.3   219  THR219      0.2028
    200  C          2.4140   -0.7870  -14.0300 C.2   219  THR219      0.2642
    201  O          1.2350   -0.7020  -13.7110 O.2   219  THR219     -0.2714
    202  CB         3.4090    1.5630  -14.0880 C.3   219  THR219      0.1808
    203  OG1        4.0820    2.5000  -14.9290 O.3   219  THR219     -0.2208
    204  CG2        4.3250    1.2420  -12.8970 C.3   219  THR219      0.0379
    205  N          3.2030   -1.8110  -13.6590 N.am  220  THR220     -0.1950
    206  CA         2.7330   -2.9210  -12.8290 C.3   220  THR220      0.1897
    207  C          2.5210   -2.5010  -11.3650 C.2   220  THR220      0.2313
    208  O          1.4040   -2.5740  -10.8500 O.2   220  THR220     -0.2863
    209  CB         3.7160   -4.1130  -12.9470 C.3   220  THR220      0.1794
    210  OG1        3.8280   -4.5090  -14.3130 O.3   220  THR220     -0.2208
    211  CG2        3.3060   -5.3050  -12.1020 C.3   220  THR220      0.0378
    212  N          4.1160    2.5670   -7.2590 N.3   223  ARG223     -0.1245
    213  CA         5.4100    3.2240   -7.0950 C.3   223  ARG223      0.1563
    214  C          5.2380    4.4130   -6.1670 C.2   223  ARG223      0.2260
    215  O          4.2870    5.1780   -6.3280 O.2   223  ARG223     -0.2867
    216  CB         6.0200    3.6180   -8.4490 C.3   223  ARG223      0.0307
    217  CG         6.2360    2.4230   -9.3850 C.3   223  ARG223      0.0489
    218  CD         7.0200    2.7790  -10.6330 C.3   223  ARG223      0.2205
    219  NE         8.4540    2.8950  -10.3680 N.pl3 223  ARG223     -0.0865
    220  CZ         9.2060    3.9320  -10.7230 C.cat 223  ARG223      0.5346
    221  NH1        8.6700    4.9590  -11.3710 N.pl3 223  ARG223      0.1354
    222  NH2       10.5000    3.9490  -10.4340 N.pl3 223  ARG223      0.1354
    223  N         -1.0610   -1.0690  -12.2190 N.3   323  ALA323     -0.1245
    224  CA        -1.9860   -2.1810  -12.4790 C.3   323  ALA323      0.1562
    225  C         -2.4000   -2.9620  -11.2330 C.2   323  ALA323      0.2260
    226  O         -3.5650   -3.3550  -11.1330 O.2   323  ALA323     -0.2867
    227  CB        -1.3900   -3.1230  -13.5180 C.3   323  ALA323      0.0290
@<TRIPOS>BOND
     1   109   107   ar
     2   109   110   ar
     3    66    65    1
     4    66    67    2
     5    65    64    1
     6    65    68    1
     7   107   104   ar
     8   110   108   ar
     9   172   171    2
    10    99   100    2
    11    99    98    1
    12   171   170    1
    13    63    61   am
    14   104   106   ar
    15   104   102   ar
    16   108   106   ar
    17    98   101    1
    18    98    97    1
    19    69    70    1
    20   101   102    1
    21   106   105   ar
    22    61    60    1
    23    61    62    2
    24   102   103   ar
    25    60    57    1
    26    58    57    1
    27    58    59    2
    28   170   173    1
    29   170   169    1
    30   141   142    2
    31   141   140    1
    32    75    73    1
    33    57    56    1
    34   156   155    2
    35   153   154    1
    36   173   174    1
    37   129   127   ar
    38   129   130   ar
    39    70    73    1
    40    70    71    1
    41   105   103   ar
    42   127   125   ar
    43    73    74    1
    44   140   139    1
    45   140   143    1
    46   155   154    1
    47    53    52    2
    48   130   128   ar
    49   154   157    1
    50    56    52   am
    51    71    72    2
    52   125   124    1
    53   125   126   ar
    54    52    51    1
    55   174   175    1
    56   143   144    1
    57   128   126   ar
    58   149   151   ar
    59   149   146   ar
    60   157   158    1
    61   157   159    1
    62   124   121    1
    63   175   176    1
    64   151   152   ar
    65    24    25    1
    66   158   160    1
    67   178   177    1
    68   146   144   ar
    69   146   148   ar
    70   144   145   ar
    71    51    54    1
    72    51    50    1
    73   111   112    1
    74   122   121    1
    75   122   123    2
    76   121   120    1
    77   134   133    2
    78    54    55    1
    79   120   113   am
    80    27    26    2
    81   176   177    2
    82   152   150   ar
    83   131   132    1
    84   177   179    1
    85    25    26    1
    86    25    28    1
    87   133   132    1
    88    50    46   am
    89   163   164    2
    90   163   162    1
    91    28    29    1
    92   145   147   ar
    93   148   150   ar
    94   148   147   ar
    95    84    82   ar
    96    84    86   ar
    97   112   113    1
    98   112   115    1
    99   113   114    2
   100   132   135    1
   101    82    81   ar
   102    49    48    1
   103    87    86    1
   104    46    47    2
   105    46    45    1
   106    76    77    1
   107   161   162    1
   108   162   165    1
   109    48    45    1
   110    86    85   ar
   111    29    31    1
   112    29    30    1
   113   115   116    1
   114   116   117    1
   115   135   136    1
   116   135   137    1
   117    45    44    1
   118    81    80    1
   119    81    83   ar
   120    32    33    1
   121    36    33    1
   122    36    37    1
   123    39    37   ar
   124   136   138    1
   125    35    34    2
   126    77    80    1
   127    77    78    1
   128   165   166    1
   129   165   167    1
   130   166   168    1
   131    85    83   ar
   132   117   118    1
   133    33    34    1
   134    37    38   ar
   135    79    78    2
   136    44    42   am
   137    18    17    2
   138    14    13    2
   139    91    90    2
   140    23    22    2
   141    90    89    1
   142   118   119    1
   143    17    19   am
   144    17    16    1
   145    22    21    1
   146    42    43    2
   147    42    41    1
   148    15    16    1
   149    15    12    1
   150    13    12    1
   151    13    20   am
   152    21    20    1
   153    40    41    1
   154    89    88    1
   155    89    92    1
   156    12    11    1
   157   193   192    1
   158    92    93    1
   159   195   194    1
   160   195   196    1
   161   197   196    2
   162   194   190   am
   163    11     9   am
   164   192   189    1
   165   196   198   am
   166   191   190    2
   167   190   189    1
   168   186   185   ar
   169    95    94    2
   170    93    94    1
   171    10     9    2
   172     9     8    1
   173   189   188    1
   174    94    96   am
   175   188   182   am
   176   185   187   ar
   177   185   184    1
   178   198   199    1
   179   182   181    1
   180   182   183    2
   181     4     3    2
   182     8     7    1
   183   203   202    1
   184   199   202    1
   185   199   200    1
   186   181   184    1
   187   181   180    1
   188     1     2    1
   189     3     7   am
   190     3     2    1
   191   210   209    1
   192     2     5    1
   193   202   204    1
   194   200   201    2
   195   200   205   am
   196   205   206    1
   197   227   224    1
   198   209   206    1
   199   209   211    1
   200   206   207    1
   201     5     6    1
   202   224   223    1
   203   224   225    1
   204   221   220    1
   205   207   208    2
   206   225   226    2
   207   220   222    1
   208   220   219    2
   209   218   219    1
   210   218   217    1
   211   217   216    1
   212   216   213    1
   213   212   213    1
   214   213   214    1
   215   215   214    2
