@<TRIPOS>MOLECULE
tmp/4ad0B00.pdb
 186 184 0 0 0
SMALL
GASTEIGER

@<TRIPOS>ATOM
      1  N         74.6340  -15.3090  -23.9380 N.3    11  TYR11      -0.1241
      2  CA        74.5300  -15.7930  -25.3310 C.3    11  TYR11       0.1605
      3  C         75.1680  -17.1650  -25.5240 C.2    11  TYR11       0.2264
      4  O         76.3030  -17.4150  -25.0890 O.2    11  TYR11      -0.2867
      5  CB        75.0500  -14.7150  -26.3060 C.3    11  TYR11       0.0534
      6  CG        74.2610  -13.4660  -26.0650 C.ar   11  TYR11      -0.0201
      7  CD1       74.6340  -12.5460  -25.0630 C.ar   11  TYR11      -0.0009
      8  CD2       73.0610  -13.2500  -26.7450 C.ar   11  TYR11      -0.0009
      9  CE1       73.8390  -11.4120  -24.7990 C.ar   11  TYR11       0.0417
     10  CE2       72.2750  -12.1290  -26.4890 C.ar   11  TYR11       0.0417
     11  CZ        72.6660  -11.2140  -25.5150 C.ar   11  TYR11       0.1957
     12  OH        71.8610  -10.1090  -25.3020 O.3    11  TYR11      -0.2866
     13  N         75.1420  -18.7200  -28.6260 N.3    13  TRP13      -0.1241
     14  CA        75.0890  -18.8790  -30.0560 C.3    13  TRP13       0.1605
     15  C         76.4810  -19.1580  -30.6690 C.2    13  TRP13       0.2264
     16  O         76.6460  -19.1290  -31.8890 O.2    13  TRP13      -0.2867
     17  CB        74.3440  -17.6790  -30.6870 C.3    13  TRP13       0.0550
     18  CG        74.9290  -16.3060  -30.3710 C.ar   13  TRP13       0.0003
     19  CD1       76.2170  -16.0270  -30.0000 C.ar   13  TRP13       0.0946
     20  CD2       74.2630  -15.0340  -30.4760 C.ar   13  TRP13       0.0152
     21  NE1       76.3830  -14.6740  -29.8400 N.ar   13  TRP13      -0.2442
     22  CE2       75.2060  -14.0400  -30.1340 C.ar   13  TRP13       0.0810
     23  CE3       72.9580  -14.6410  -30.8170 C.ar   13  TRP13       0.0012
     24  CZ2       74.8880  -12.6670  -30.1170 C.ar   13  TRP13       0.0191
     25  CZ3       72.6440  -13.2760  -30.8120 C.ar   13  TRP13       0.0001
     26  CH2       73.6030  -12.3110  -30.4620 C.ar   13  TRP13       0.0015
     27  N         65.7980  -18.2390  -29.3810 N.3    70  TRP70      -0.1241
     28  CA        65.3540  -17.8830  -30.7300 C.3    70  TRP70       0.1605
     29  C         64.2340  -18.7630  -31.3000 C.2    70  TRP70       0.2264
     30  O         64.2870  -19.1770  -32.4550 O.2    70  TRP70      -0.2867
     31  CB        66.5520  -17.8390  -31.6740 C.3    70  TRP70       0.0550
     32  CG        67.4590  -16.6640  -31.4310 C.ar   70  TRP70       0.0003
     33  CD1       68.5170  -16.6030  -30.5700 C.ar   70  TRP70       0.0946
     34  CD2       67.3910  -15.3820  -32.0770 C.ar   70  TRP70       0.0152
     35  NE1       69.1190  -15.3630  -30.6430 N.ar   70  TRP70      -0.2442
     36  CE2       68.4490  -14.5960  -31.5610 C.ar   70  TRP70       0.0810
     37  CE3       66.5420  -14.8260  -33.0420 C.ar   70  TRP70       0.0012
     38  CZ2       68.6750  -13.2860  -31.9730 C.ar   70  TRP70       0.0191
     39  CZ3       66.7730  -13.5220  -33.4570 C.ar   70  TRP70       0.0001
     40  CH2       67.8270  -12.7650  -32.9220 C.ar   70  TRP70       0.0015
     41  N         65.6040  -15.1980  -22.5370 N.3    97  HIS97      -0.1241
     42  CA        65.5070  -13.9240  -23.2120 C.3    97  HIS97       0.1621
     43  C         64.9310  -14.0990  -24.6170 C.2    97  HIS97       0.2264
     44  O         65.6080  -14.5910  -25.5290 O.2    97  HIS97      -0.2867
     45  CB        66.8580  -13.2100  -23.2080 C.3    97  HIS97       0.0745
     46  CG        66.7830  -11.7970  -23.6750 C.ar   97  HIS97       0.0817
     47  ND1       67.8980  -11.0800  -24.0570 N.ar   97  HIS97      -0.2268
     48  CD2       65.7210  -10.9690  -23.8340 C.ar   97  HIS97       0.1154
     49  CE1       67.5240   -9.8600  -24.4170 C.ar   97  HIS97       0.1986
     50  NE2       66.2100   -9.7690  -24.2890 N.ar   97  HIS97      -0.2212
     51  N         63.9320  -13.5070  -28.0950 N.3    99  GLU99      -0.1231
     52  CA        64.4090  -12.6680  -29.1690 C.3    99  GLU99       0.1684
     53  C         63.4080  -12.5190  -30.3330 C.2    99  GLU99       0.2434
     54  O         62.4860  -13.3290  -30.4660 O.2    99  GLU99      -0.2733
     55  CB        65.7180  -13.2600  -29.7040 C.3    99  GLU99       0.0402
     56  CG        66.8610  -13.3210  -28.7170 C.3    99  GLU99       0.1161
     57  CD        67.4600  -11.9710  -28.4110 C.2    99  GLU99       0.3649
     58  OE1       67.2180  -11.0130  -29.1860 O.co2  99  GLU99      -0.2457
     59  OE2       68.1840  -11.8780  -27.3950 O.co2  99  GLU99      -0.2457
     60  N         63.6160  -11.5140  -31.2110 N.am  100  PRO100     -0.2729
     61  CA        62.6370  -11.3200  -32.2790 C.3   100  PRO100      0.1401
     62  C         62.8030  -12.3770  -33.3700 C.2   100  PRO100      0.2269
     63  O         63.3740  -12.1110  -34.4290 O.2   100  PRO100     -0.2865
     64  CB        62.9530   -9.8850  -32.8020 C.3   100  PRO100      0.0296
     65  CG        64.0710   -9.3240  -31.8610 C.3   100  PRO100      0.0237
     66  CD        64.7530  -10.5840  -31.3710 C.3   100  PRO100      0.0939
     67  N         62.5870   -9.2240  -26.1490 N.3   138  TYR138     -0.1227
     68  CA        63.3170   -8.2470  -26.9270 C.3   138  TYR138      0.1736
     69  C         62.4620   -7.6790  -28.0530 C.2   138  TYR138      0.2595
     70  O         61.7440   -8.4260  -28.7020 O.2   138  TYR138     -0.2718
     71  CB        64.5880   -8.8740  -27.4910 C.3   138  TYR138      0.0548
     72  CG        65.5450   -7.8360  -27.9970 C.ar  138  TYR138     -0.0200
     73  CD1       66.0040   -6.8290  -27.1390 C.ar  138  TYR138     -0.0009
     74  CD2       65.9890   -7.8430  -29.3220 C.ar  138  TYR138     -0.0009
     75  CE1       66.8730   -5.8430  -27.5910 C.ar  138  TYR138      0.0417
     76  CE2       66.8760   -6.8490  -29.7960 C.ar  138  TYR138      0.0417
     77  CZ        67.3070   -5.8530  -28.9080 C.ar  138  TYR138      0.1957
     78  OH        68.1750   -4.8600  -29.3060 O.3   138  TYR138     -0.2866
     79  N         62.5630   -6.3660  -28.2810 N.am  139  ASP139     -0.1974
     80  CA        61.8240   -5.6660  -29.3480 C.3   139  ASP139      0.1709
     81  C         60.3720   -6.1080  -29.3970 C.2   139  ASP139      0.2293
     82  O         59.7830   -6.2940  -30.4600 O.2   139  ASP139     -0.2864
     83  CB        62.5200   -5.8370  -30.6990 C.3   139  ASP139      0.1436
     84  CG        63.8750   -5.1670  -30.7290 C.2   139  ASP139      0.3671
     85  OD1       64.2190   -4.4510  -29.7520 O.co2 139  ASP139     -0.2456
     86  OD2       64.6020   -5.3550  -31.7220 O.co2 139  ASP139     -0.2456
     87  N         67.5180   -2.9820  -21.9250 N.3   193  TYR193     -0.1227
     88  CA        68.6710   -3.6210  -22.6130 C.3   193  TYR193      0.1736
     89  C         69.9950   -2.8590  -22.8820 C.2   193  TYR193      0.2595
     90  O         71.0700   -3.3440  -22.4980 O.2   193  TYR193     -0.2718
     91  CB        68.2600   -4.4310  -23.8580 C.3   193  TYR193      0.0548
     92  CG        69.4120   -5.2730  -24.3610 C.ar  193  TYR193     -0.0200
     93  CD1       69.6990   -6.5080  -23.7940 C.ar  193  TYR193     -0.0009
     94  CD2       70.2390   -4.8170  -25.3900 C.ar  193  TYR193     -0.0009
     95  CE1       70.7780   -7.2620  -24.2330 C.ar  193  TYR193      0.0417
     96  CE2       71.3190   -5.5730  -25.8240 C.ar  193  TYR193      0.0417
     97  CZ        71.5750   -6.7870  -25.2540 C.ar  193  TYR193      0.1957
     98  OH        72.6350   -7.5280  -25.7120 O.3   193  TYR193     -0.2866
     99  N         69.9520   -1.7150  -23.5580 N.am  194  PHE194     -0.1962
    100  CA        71.1890   -1.1930  -24.1650 C.3   194  PHE194      0.1771
    101  C         72.2210   -0.7550  -23.1710 C.2   194  PHE194      0.2619
    102  O         71.9170   -0.0140  -22.2420 O.2   194  PHE194     -0.2715
    103  CB        70.8820   -0.1010  -25.1880 C.3   194  PHE194      0.0574
    104  CG        69.7190   -0.4440  -26.0510 C.ar  194  PHE194     -0.0200
    105  CD1       69.8250   -1.4530  -26.9920 C.ar  194  PHE194     -0.0042
    106  CD2       68.4940    0.1940  -25.8730 C.ar  194  PHE194     -0.0042
    107  CE1       68.7310   -1.8030  -27.7760 C.ar  194  PHE194     -0.0003
    108  CE2       67.3990   -0.1550  -26.6420 C.ar  194  PHE194     -0.0003
    109  CZ        67.5220   -1.1540  -27.5950 C.ar  194  PHE194     -0.0000
    110  N         73.4440   -1.2350  -23.3870 N.am  195  ALA195     -0.1963
    111  CA        74.5930   -0.8870  -22.5620 C.3   195  ALA195      0.1728
    112  C         75.0290    0.5660  -22.7790 C.2   195  ALA195      0.2616
    113  O         75.4950    1.2260  -21.8330 O.2   195  ALA195     -0.2715
    114  CB        75.7390   -1.8350  -22.8460 C.3   195  ALA195      0.0334
    115  N         74.8420    1.0630  -24.0010 N.am  196  ALA196     -0.1977
    116  CA        75.2980    2.4050  -24.3970 C.3   196  ALA196      0.1597
    117  C         74.4300    3.5350  -23.8460 C.2   196  ALA196      0.2287
    118  O         73.3050    3.7320  -24.2770 O.2   196  ALA196     -0.2864
    119  CB        75.4040    2.5060  -25.9080 C.3   196  ALA196      0.0319
    120  N         71.6090    5.8800  -25.7360 N.3   199  PHE199     -0.1241
    121  CA        71.1740    5.3090  -26.9920 C.3   199  PHE199      0.1605
    122  C         69.6720    5.5040  -27.1840 C.2   199  PHE199      0.2264
    123  O         69.1940    5.8040  -28.2720 O.2   199  PHE199     -0.2867
    124  CB        71.5220    3.8420  -27.1170 C.3   199  PHE199      0.0534
    125  CG        71.1490    3.2890  -28.4330 C.ar  199  PHE199     -0.0203
    126  CD1       71.8630    3.6530  -29.5620 C.ar  199  PHE199     -0.0042
    127  CD2       70.0500    2.4510  -28.5680 C.ar  199  PHE199     -0.0042
    128  CE1       71.5170    3.1590  -30.8040 C.ar  199  PHE199     -0.0003
    129  CE2       69.6890    1.9630  -29.7930 C.ar  199  PHE199     -0.0003
    130  CZ        70.4190    2.3120  -30.9180 C.ar  199  PHE199     -0.0000
    131  N         80.5970    0.0410  -24.7320 N.3   230  TYR230     -0.1241
    132  CA        80.0440   -0.4770  -25.9700 C.3   230  TYR230      0.1605
    133  C         81.0600   -0.2800  -27.0800 C.2   230  TYR230      0.2264
    134  O         81.6240    0.8000  -27.2200 O.2   230  TYR230     -0.2867
    135  CB        78.7410    0.2640  -26.3270 C.3   230  TYR230      0.0534
    136  CG        77.9950   -0.3810  -27.4670 C.ar  230  TYR230     -0.0201
    137  CD1       78.4010   -0.1800  -28.7950 C.ar  230  TYR230     -0.0009
    138  CD2       76.9030   -1.2170  -27.2310 C.ar  230  TYR230     -0.0009
    139  CE1       77.7570   -0.7950  -29.8360 C.ar  230  TYR230      0.0417
    140  CE2       76.2380   -1.8370  -28.2890 C.ar  230  TYR230      0.0417
    141  CZ        76.6730   -1.6190  -29.5790 C.ar  230  TYR230      0.1957
    142  OH        76.0300   -2.2180  -30.6430 O.3   230  TYR230     -0.2866
    143  N         80.3210   -3.4400  -37.5150 N.3   236  ARG236     -0.1245
    144  CA        79.5610   -2.2710  -37.9640 C.3   236  ARG236      0.1563
    145  C         80.3580   -0.9370  -38.0810 C.2   236  ARG236      0.2260
    146  O         79.9590    0.0570  -37.4710 O.2   236  ARG236     -0.2867
    147  CB        78.3660   -2.0560  -37.0220 C.3   236  ARG236      0.0307
    148  CG        77.3610   -3.1990  -36.9710 C.3   236  ARG236      0.0489
    149  CD        76.0390   -2.6870  -36.4300 C.3   236  ARG236      0.2205
    150  NE        75.1220   -3.7940  -36.1920 N.pl3 236  ARG236     -0.0865
    151  CZ        74.9770   -4.4420  -35.0400 C.cat 236  ARG236      0.5346
    152  NH1       75.6810   -4.0970  -33.9680 N.pl3 236  ARG236      0.1354
    153  NH2       74.1130   -5.4440  -34.9660 N.pl3 236  ARG236      0.1354
    154  N         78.7990    2.3960  -37.1170 N.3   239  ASN239     -0.1240
    155  CA        78.0720    2.6040  -35.8690 C.3   239  ASN239      0.1653
    156  C         78.9340    3.3100  -34.8090 C.2   239  ASN239      0.2266
    157  O         78.9560    2.9220  -33.6470 O.2   239  ASN239     -0.2867
    158  CB        77.4900    1.2690  -35.3580 C.3   239  ASN239      0.1155
    159  CG        76.4720    1.4470  -34.2350 C.2   239  ASN239      0.2627
    160  OD1       75.9580    2.5380  -34.0040 O.2   239  ASN239     -0.2716
    161  ND2       76.1800    0.3720  -33.5370 N.am  239  ASN239     -0.0877
    162  N         77.5160    4.8980  -31.2790 N.3   242  THR242     -0.1218
    163  CA        77.0820    4.0870  -30.1310 C.3   242  THR242      0.1862
    164  C         78.2550    3.5030  -29.3250 C.2   242  THR242      0.2287
    165  O         78.0490    2.8670  -28.3020 O.2   242  THR242     -0.2866
    166  CB        76.1010    2.9600  -30.5510 C.3   242  THR242      0.1770
    167  OG1       75.1760    3.4500  -31.5320 O.3   242  THR242     -0.2211
    168  CG2       75.3220    2.4460  -29.3440 C.3   242  THR242      0.0375
    169  N         77.9660  -10.9070  -25.0180 N.3   274  GLU274     -0.1245
    170  CA        77.7010  -10.3800  -26.3630 C.3   274  GLU274      0.1567
    171  C         78.9670   -9.6670  -26.8880 C.2   274  GLU274      0.2260
    172  O         79.0770   -8.4300  -26.8370 O.2   274  GLU274     -0.2867
    173  CB        76.4890   -9.4460  -26.3720 C.3   274  GLU274      0.0388
    174  CG        75.5340   -9.5890  -27.5930 C.3   274  GLU274      0.1160
    175  CD        76.1820   -9.4450  -28.9630 C.2   274  GLU274      0.3649
    176  OE1       77.4260   -9.5300  -29.1020 O.co2 274  GLU274     -0.2457
    177  OE2       75.4150   -9.2660  -29.9390 O.co2 274  GLU274     -0.2457
    178  N         78.9510   -6.9330  -29.8720 N.3   277  GLU277     -0.1245
    179  CA        78.5560   -5.5700  -29.4360 C.3   277  GLU277      0.1567
    180  C         79.5160   -4.9640  -28.3850 C.2   277  GLU277      0.2260
    181  O         79.4300   -3.7740  -28.0810 O.2   277  GLU277     -0.2867
    182  CB        77.0820   -5.5310  -28.9670 C.3   277  GLU277      0.0388
    183  CG        76.0540   -5.7850  -30.1160 C.3   277  GLU277      0.1160
    184  CD        74.6240   -5.2910  -29.8140 C.2   277  GLU277      0.3649
    185  OE1       74.2480   -5.1310  -28.6280 O.co2 277  GLU277     -0.2457
    186  OE2       73.8580   -5.0730  -30.7800 O.co2 277  GLU277     -0.2457
@<TRIPOS>BOND
     1   145   144    1
     2   145   146    2
     3   144   143    1
     4   144   147    1
     5   154   155    1
     6   147   148    1
     7   148   149    1
     8   149   150    1
     9   150   151    2
    10   155   158    1
    11   155   156    1
    12   158   159    1
    13   151   153    1
    14   151   152    1
    15   156   157    2
    16    63    62    2
    17   159   160    2
    18   159   161   am
    19    39    37   ar
    20    39    40   ar
    21    62    61    1
    22    37    34   ar
    23    40    38   ar
    24    64    61    1
    25    64    65    1
    26    30    29    2
    27    61    60    1
    28    34    36   ar
    29    34    32   ar
    30    38    36   ar
    31    16    15    2
    32    65    66    1
    33    86    84   ar
    34    31    32    1
    35    31    28    1
    36    36    35   ar
    37   167   166    1
    38    32    33   ar
    39    66    60    1
    40    29    28    1
    41   162   163    1
    42    60    53   am
    43   130   128   ar
    44   130   129   ar
    45    23    25   ar
    46    23    20   ar
    47    25    26   ar
    48   128   126   ar
    49   186   184   ar
    50    28    27    1
    51    84    83    1
    52    84    85   ar
    53    83    80    1
    54    17    18    1
    55    17    14    1
    56    15    14    1
    57    35    33   ar
    58   142   141    1
    59   166   163    1
    60   166   168    1
    61    20    18   ar
    62    20    22   ar
    63    54    53    2
    64    26    24   ar
    65    82    81    2
    66    18    19   ar
    67    53    52    1
    68    22    24   ar
    69    22    21   ar
    70   163   164    1
    71   183   184    1
    72   183   182    1
    73    14    13    1
    74    19    21   ar
    75   177   175   ar
    76   178   179    1
    77   139   141   ar
    78   139   137   ar
    79   184   185   ar
    80    76    74   ar
    81    76    77   ar
    82   129   127   ar
    83    55    52    1
    84    55    56    1
    85   141   140   ar
    86   126   125   ar
    87   179   182    1
    88   179   180    1
    89    81    80    1
    90    80    79    1
    91   164   165    2
    92    74    72   ar
    93    78    77    1
    94    58    57   ar
    95    52    51    1
    96   176   175   ar
    97   175   174    1
    98    77    75   ar
    99   137   136   ar
   100    56    57    1
   101    70    69    2
   102   127   125   ar
   103   125   124    1
   104    57    59   ar
   105   180   181    2
   106   140   138   ar
   107    79    69   am
   108   123   122    2
   109    69    68    1
   110    72    71    1
   111    72    73   ar
   112   107   109   ar
   113   107   105   ar
   114   109   108   ar
   115   174   173    1
   116    75    73   ar
   117    71    68    1
   118   136   138   ar
   119   136   135    1
   120   134   133    2
   121   122   121    1
   122   124   121    1
   123   133   132    1
   124   121   120    1
   125   105   104   ar
   126    68    67    1
   127   171   172    2
   128   171   170    1
   129     8    10   ar
   130     8     6   ar
   131   108   106   ar
   132    10    11   ar
   133   173   170    1
   134   170   169    1
   135   135   132    1
   136     5     6    1
   137     5     2    1
   138     6     7   ar
   139   104   106   ar
   140   104   103    1
   141   132   131    1
   142   119   116    1
   143    96    94   ar
   144    96    97   ar
   145    98    97    1
   146    44    43    2
   147     3     2    1
   148     3     4    2
   149    11    12    1
   150    11     9   ar
   151    94    92   ar
   152     2     1    1
   153    97    95   ar
   154   103   100    1
   155     7     9   ar
   156    43    42    1
   157    49    50   ar
   158    49    47   ar
   159   116   115    1
   160   116   117    1
   161    92    91    1
   162    92    93   ar
   163    50    48   ar
   164   118   117    2
   165    95    93   ar
   166   100    99    1
   167   100   101    1
   168    47    46   ar
   169   115   112   am
   170    91    88    1
   171    48    46   ar
   172    46    45    1
   173    99    89   am
   174   110   101   am
   175   110   111    1
   176    42    45    1
   177    42    41    1
   178   101   102    2
   179    89    88    1
   180    89    90    2
   181   114   111    1
   182   112   111    1
   183   112   113    2
   184    88    87    1
