@<TRIPOS>MOLECULE
tmp/4ad2B01.pdb
 130 130 0 0 0
SMALL
GASTEIGER

@<TRIPOS>ATOM
      1  N        -87.8460   75.6800  -30.9710 N.3    12  TYR12      -0.1241
      2  CA       -86.7600   75.3060  -31.8750 C.3    12  TYR12       0.1605
      3  C        -85.4560   76.0150  -31.4760 C.2    12  TYR12       0.2264
      4  O        -85.4230   77.2390  -31.3190 O.2    12  TYR12      -0.2867
      5  CB       -87.2080   75.5610  -33.3420 C.3    12  TYR12       0.0534
      6  CG       -88.4240   74.6750  -33.6200 C.ar   12  TYR12      -0.0201
      7  CD1      -89.7150   75.0740  -33.2540 C.ar   12  TYR12      -0.0009
      8  CD2      -88.2590   73.4130  -34.1450 C.ar   12  TYR12      -0.0009
      9  CE1      -90.8210   74.2150  -33.4270 C.ar   12  TYR12       0.0417
     10  CE2      -89.3370   72.5640  -34.3420 C.ar   12  TYR12       0.0417
     11  CZ       -90.6130   72.9650  -33.9860 C.ar   12  TYR12       0.1957
     12  OH       -91.6450   72.0710  -34.1860 O.3    12  TYR12      -0.2866
     13  N        -82.4660   75.7360  -33.2190 N.3    14  TRP14      -0.1241
     14  CA       -81.5560   75.4860  -34.3420 C.3    14  TRP14       0.1605
     15  C        -81.0630   76.7510  -35.0590 C.2    14  TRP14       0.2264
     16  O        -80.4240   76.6590  -36.1050 O.2    14  TRP14      -0.2867
     17  CB       -82.1950   74.5010  -35.3270 C.3    14  TRP14       0.0550
     18  CG       -83.5660   74.9190  -35.8680 C.ar   14  TRP14       0.0003
     19  CD1      -84.0580   76.1940  -36.0100 C.ar   14  TRP14       0.0946
     20  CD2      -84.5980   74.0430  -36.3470 C.ar   14  TRP14       0.0152
     21  NE1      -85.3130   76.1640  -36.5540 N.ar   14  TRP14      -0.2442
     22  CE2      -85.6730   74.8590  -36.7750 C.ar   14  TRP14       0.0810
     23  CE3      -84.7130   72.6430  -36.4710 C.ar   14  TRP14       0.0012
     24  CZ2      -86.8570   74.3250  -37.3090 C.ar   14  TRP14       0.0191
     25  CZ3      -85.8910   72.1120  -37.0190 C.ar   14  TRP14       0.0001
     26  CH2      -86.9430   72.9480  -37.4210 C.ar   14  TRP14       0.0015
     27  N        -82.7760   66.5100  -32.0820 N.3    92  TRP92      -0.1241
     28  CA       -82.3870   65.8940  -33.3500 C.3    92  TRP92       0.1605
     29  C        -81.2410   64.8840  -33.2420 C.2    92  TRP92       0.2264
     30  O        -80.7720   64.3660  -34.2510 O.2    92  TRP92      -0.2867
     31  CB       -81.9960   66.9950  -34.3460 C.3    92  TRP92       0.0550
     32  CG       -83.1790   67.6640  -34.9260 C.ar   92  TRP92       0.0003
     33  CD1      -83.7400   68.8580  -34.5250 C.ar   92  TRP92       0.0946
     34  CD2      -83.9800   67.1840  -36.0110 C.ar   92  TRP92       0.0152
     35  NE1      -84.8180   69.1560  -35.3300 N.ar   92  TRP92      -0.2442
     36  CE2      -84.9980   68.1360  -36.2330 C.ar   92  TRP92       0.0810
     37  CE3      -83.9240   66.0460  -36.8340 C.ar   92  TRP92       0.0012
     38  CZ2      -85.9820   67.9690  -37.2240 C.ar   92  TRP92       0.0191
     39  CZ3      -84.9120   65.8760  -37.8190 C.ar   92  TRP92       0.0001
     40  CH2      -85.9150   66.8390  -38.0080 C.ar   92  TRP92       0.0015
     41  N        -89.0180   66.9710  -27.7330 N.3   120  HIS120     -0.1241
     42  CA       -89.7760   66.6520  -28.9270 C.3   120  HIS120      0.1621
     43  C        -88.8270   65.8300  -29.8110 C.2   120  HIS120      0.2264
     44  O        -87.9120   66.3680  -30.4380 O.2   120  HIS120     -0.2867
     45  CB       -90.1690   67.9710  -29.6020 C.3   120  HIS120      0.0745
     46  CG       -91.1700   67.8350  -30.7130 C.ar  120  HIS120      0.0817
     47  ND1      -91.4550   68.8730  -31.5740 N.ar  120  HIS120     -0.2268
     48  CD2      -91.9480   66.7970  -31.1020 C.ar  120  HIS120      0.1154
     49  CE1      -92.3900   68.4890  -32.4320 C.ar  120  HIS120      0.1986
     50  NE2      -92.7000   67.2300  -32.1730 N.ar  120  HIS120     -0.2212
     51  N        -87.4010   64.1460  -32.6930 N.3   122  GLU122     -0.1231
     52  CA       -87.4900   64.3550  -34.1400 C.3   122  GLU122      0.1684
     53  C        -87.0570   63.1480  -34.9610 C.2   122  GLU122      0.2434
     54  O        -86.3330   62.3060  -34.4470 O.2   122  GLU122     -0.2733
     55  CB       -86.6540   65.5710  -34.4910 C.3   122  GLU122      0.0402
     56  CG       -87.1700   66.8390  -33.7960 C.3   122  GLU122      0.1161
     57  CD       -88.3020   67.5330  -34.5660 C.2   122  GLU122      0.3649
     58  OE1      -88.8640   66.9230  -35.5140 O.co2 122  GLU122     -0.2457
     59  OE2      -88.6410   68.7090  -34.2100 O.co2 122  GLU122     -0.2457
     60  N        -87.5170   63.0500  -36.2300 N.am  123  PRO123     -0.2729
     61  CA       -87.0950   61.9160  -37.0770 C.3   123  PRO123      0.1401
     62  C        -85.6650   62.0940  -37.6090 C.2   123  PRO123      0.2269
     63  O        -85.4920   62.2920  -38.8060 O.2   123  PRO123     -0.2865
     64  CB       -88.1210   61.9170  -38.2380 C.3   123  PRO123      0.0296
     65  CG       -88.5900   63.3650  -38.3300 C.3   123  PRO123      0.0237
     66  CD       -88.5080   63.9200  -36.9040 C.3   123  PRO123      0.0939
     67  N        -92.3040   63.0490  -33.0250 N.3   161  TYR161     -0.1241
     68  CA       -92.6820   63.5280  -34.3610 C.3   161  TYR161      0.1605
     69  C        -92.4820   62.4270  -35.4190 C.2   161  TYR161      0.2264
     70  O        -91.5080   61.6630  -35.3590 O.2   161  TYR161     -0.2867
     71  CB       -91.9590   64.8500  -34.7360 C.3   161  TYR161      0.0534
     72  CG       -92.5080   65.4260  -36.0150 C.ar  161  TYR161     -0.0201
     73  CD1      -93.7140   66.1270  -36.0160 C.ar  161  TYR161     -0.0009
     74  CD2      -91.8530   65.2230  -37.2390 C.ar  161  TYR161     -0.0009
     75  CE1      -94.2520   66.6150  -37.1810 C.ar  161  TYR161      0.0417
     76  CE2      -92.3880   65.7230  -38.4290 C.ar  161  TYR161      0.0417
     77  CZ       -93.5890   66.4010  -38.3800 C.ar  161  TYR161      0.1957
     78  OH       -94.1600   66.8780  -39.5150 O.3   161  TYR161     -0.2866
     79  N        -99.7930   68.1470  -33.8790 N.3   218  TYR218     -0.1227
     80  CA       -98.7810   69.0860  -34.4000 C.3   218  TYR218      0.1736
     81  C        -99.2350   70.1870  -35.4010 C.2   218  TYR218      0.2595
     82  O        -99.0900   71.3820  -35.1180 O.2   218  TYR218     -0.2718
     83  CB       -97.4940   68.4030  -34.9170 C.3   218  TYR218      0.0548
     84  CG       -96.4440   69.4690  -35.1460 C.ar  218  TYR218     -0.0200
     85  CD1      -95.6800   69.9660  -34.0670 C.ar  218  TYR218     -0.0009
     86  CD2      -96.2920   70.0640  -36.3950 C.ar  218  TYR218     -0.0009
     87  CE1      -94.7900   70.9930  -34.2380 C.ar  218  TYR218      0.0417
     88  CE2      -95.3940   71.0910  -36.5890 C.ar  218  TYR218      0.0417
     89  CZ       -94.6370   71.5460  -35.4910 C.ar  218  TYR218      0.1957
     90  OH       -93.7560   72.5790  -35.6590 O.3   218  TYR218     -0.2866
     91  N        -99.7230   69.7890  -36.5780 N.am  219  PHE219     -0.1976
     92  CA       -99.8860   70.7350  -37.6790 C.3   219  PHE219      0.1639
     93  C       -100.7580   71.9170  -37.3160 C.2   219  PHE219      0.2290
     94  O       -101.8690   71.7590  -36.7790 O.2   219  PHE219     -0.2864
     95  CB      -100.3480   69.9940  -38.9450 C.3   219  PHE219      0.0560
     96  CG       -99.4430   68.8480  -39.2880 C.ar  219  PHE219     -0.0200
     97  CD1      -98.1500   69.0920  -39.7170 C.ar  219  PHE219     -0.0042
     98  CD2      -99.8520   67.5310  -39.0940 C.ar  219  PHE219     -0.0042
     99  CE1      -97.2650   68.0500  -39.9790 C.ar  219  PHE219     -0.0003
    100  CE2      -98.9870   66.4770  -39.3440 C.ar  219  PHE219     -0.0003
    101  CZ       -97.6800   66.7380  -39.8020 C.ar  219  PHE219     -0.0000
    102  N        -90.8260   76.7380  -49.2900 N.3   261  ARG261     -0.1245
    103  CA       -91.6230   75.7870  -50.0910 C.3   261  ARG261      0.1563
    104  C        -92.6010   76.5710  -50.9870 C.2   261  ARG261      0.2260
    105  O        -93.8010   76.6060  -50.7260 O.2   261  ARG261     -0.2867
    106  CB       -92.3760   74.7890  -49.2020 C.3   261  ARG261      0.0307
    107  CG       -91.5090   74.0670  -48.1800 C.3   261  ARG261      0.0489
    108  CD       -92.3060   73.0920  -47.3090 C.3   261  ARG261      0.2205
    109  NE       -91.4220   72.4110  -46.3520 N.pl3 261  ARG261     -0.0865
    110  CZ       -91.5160   72.4970  -45.0270 C.cat 261  ARG261      0.5346
    111  NH1      -92.4690   73.2450  -44.4690 N.pl3 261  ARG261      0.1354
    112  NH2      -90.6490   71.8330  -44.2570 N.pl3 261  ARG261      0.1354
    113  N        -91.1420   78.2430  -34.8530 N.3   299  GLU299     -0.1245
    114  CA       -90.8810   77.6080  -36.1500 C.3   299  GLU299      0.1567
    115  C        -91.0990   78.6930  -37.1980 C.2   299  GLU299      0.2260
    116  O        -92.1500   78.7440  -37.8410 O.2   299  GLU299     -0.2867
    117  CB       -91.7880   76.3710  -36.4090 C.3   299  GLU299      0.0388
    118  CG       -91.0850   75.0810  -36.9540 C.3   299  GLU299      0.1160
    119  CD       -90.5030   75.2230  -38.3680 C.2   299  GLU299      0.3649
    120  OE1      -90.4460   76.3640  -38.8930 O.co2 299  GLU299     -0.2457
    121  OE2      -90.0530   74.2030  -38.9530 O.co2 299  GLU299     -0.2457
    122  N        -92.1780   78.0170  -40.9450 N.3   302  GLU302     -0.1245
    123  CA       -93.5320   77.5640  -41.1960 C.3   302  GLU302      0.1567
    124  C        -94.6240   78.5740  -40.7770 C.2   302  GLU302      0.2260
    125  O        -95.8070   78.2860  -40.9260 O.2   302  GLU302     -0.2867
    126  CB       -93.7380   76.1660  -40.5800 C.3   302  GLU302      0.0388
    127  CG       -92.8550   75.1460  -41.2990 C.3   302  GLU302      0.1160
    128  CD       -92.9690   73.7290  -40.7830 C.2   302  GLU302      0.3649
    129  OE1      -93.5000   73.5100  -39.6580 O.co2 302  GLU302     -0.2457
    130  OE2      -92.4810   72.8340  -41.5200 O.co2 302  GLU302     -0.2457
@<TRIPOS>BOND
     1   104   105    2
     2   104   103    1
     3   103   102    1
     4   103   106    1
     5   106   107    1
     6   107   108    1
     7   108   109    1
     8   109   110    2
     9   110   111    1
    10   110   112    1
    11   130   128   ar
    12   127   128    1
    13   127   126    1
    14   123   122    1
    15   123   124    1
    16   123   126    1
    17   125   124    2
    18   128   129   ar
    19    99   101   ar
    20    99    97   ar
    21   101   100   ar
    22    97    96   ar
    23    78    77    1
    24   100    98   ar
    25    96    98   ar
    26    96    95    1
    27   121   119   ar
    28    95    92    1
    29   120   119   ar
    30    63    62    2
    31    76    77   ar
    32    76    74   ar
    33    77    75   ar
    34   119   118    1
    35    65    64    1
    36    65    66    1
    37    64    61    1
    38    40    39   ar
    39    40    38   ar
    40   116   115    2
    41    39    37   ar
    42    92    93    1
    43    92    91    1
    44    62    61    1
    45    26    24   ar
    46    26    25   ar
    47    93    94    2
    48    24    22   ar
    49    74    72   ar
    50    38    36   ar
    51   115   114    1
    52    75    73   ar
    53    61    60    1
    54    25    23   ar
    55   118   117    1
    56    66    60    1
    57    37    34   ar
    58    22    21   ar
    59    22    20   ar
    60    88    86   ar
    61    88    89   ar
    62    91    81   am
    63    21    19   ar
    64    23    20   ar
    65   117   114    1
    66    86    84   ar
    67    20    18   ar
    68    36    34   ar
    69    36    35   ar
    70    60    53   am
    71   114   113    1
    72    16    15    2
    73    73    72   ar
    74    72    71    1
    75    34    32   ar
    76    19    18   ar
    77    18    17    1
    78    90    89    1
    79    58    57   ar
    80    89    87   ar
    81    69    70    2
    82    69    68    1
    83    81    82    2
    84    81    80    1
    85    35    33   ar
    86    17    14    1
    87    84    83    1
    88    84    85   ar
    89    15    14    1
    90    53    54    2
    91    53    52    1
    92    32    33   ar
    93    32    31    1
    94    83    80    1
    95    71    68    1
    96    57    59   ar
    97    57    56    1
    98    55    52    1
    99    55    56    1
   100    80    79    1
   101    68    67    1
   102    31    28    1
   103    10     8   ar
   104    10    11   ar
   105    14    13    1
   106    30    29    2
   107    87    85   ar
   108    12    11    1
   109     8     6   ar
   110    52    51    1
   111    11     9   ar
   112     6     5    1
   113     6     7   ar
   114     9     7   ar
   115    28    29    1
   116    28    27    1
   117     5     2    1
   118    49    50   ar
   119    49    47   ar
   120    50    48   ar
   121     2     3    1
   122     2     1    1
   123    47    46   ar
   124     3     4    2
   125    48    46   ar
   126    46    45    1
   127    44    43    2
   128    43    42    1
   129    45    42    1
   130    42    41    1
