@<TRIPOS>MOLECULE
tmp/4ad3D01.pdb
 119 118 0 0 0
SMALL
GASTEIGER

@<TRIPOS>ATOM
      1  N        -75.8440  105.7320  -50.4990 N.3    10  TYR10      -0.1241
      2  CA       -76.3050  104.3490  -50.4380 C.3    10  TYR10       0.1605
      3  C        -75.2840  103.4320  -51.1070 C.2    10  TYR10       0.2264
      4  O        -74.9050  103.6580  -52.2480 O.2    10  TYR10      -0.2867
      5  CB       -77.7130  104.2400  -51.0700 C.3    10  TYR10       0.0534
      6  CG       -78.7340  104.9850  -50.2380 C.ar   10  TYR10      -0.0201
      7  CD1      -79.3590  104.3590  -49.1560 C.ar   10  TYR10      -0.0009
      8  CD2      -79.0250  106.3350  -50.4760 C.ar   10  TYR10      -0.0009
      9  CE1      -80.2590  105.0400  -48.3430 C.ar   10  TYR10       0.0417
     10  CE2      -79.9340  107.0300  -49.6650 C.ar   10  TYR10       0.0417
     11  CZ       -80.5500  106.3740  -48.6040 C.ar   10  TYR10       0.1957
     12  OH       -81.4500  107.0210  -47.7810 O.3    10  TYR10      -0.2866
     13  N        -75.3810   99.9040  -51.3900 N.3    12  TRP12      -0.1241
     14  CA       -75.9430   98.5660  -51.4920 C.3    12  TRP12       0.1605
     15  C        -76.0350   98.0370  -52.9230 C.2    12  TRP12       0.2264
     16  O        -76.5330   96.9250  -53.1470 O.2    12  TRP12      -0.2867
     17  CB       -77.3130   98.5230  -50.8170 C.3    12  TRP12       0.0550
     18  CG       -78.2920   99.6010  -51.2510 C.ar   12  TRP12       0.0003
     19  CD1      -78.3570  100.2400  -52.4690 C.ar   12  TRP12       0.0946
     20  CD2      -79.3760  100.1160  -50.4720 C.ar   12  TRP12       0.0152
     21  NE1      -79.4050  101.1340  -52.4770 N.ar   12  TRP12      -0.2442
     22  CE2      -80.0450  101.0800  -51.2670 C.ar   12  TRP12       0.0810
     23  CE3      -79.8450   99.8590  -49.1770 C.ar   12  TRP12       0.0012
     24  CZ2      -81.1520  101.7810  -50.8130 C.ar   12  TRP12       0.0191
     25  CZ3      -80.9530  100.5680  -48.7200 C.ar   12  TRP12       0.0001
     26  CH2      -81.5920  101.5180  -49.5400 C.ar   12  TRP12       0.0015
     27  N        -76.8230   99.5350  -42.1660 N.3    90  TRP90      -0.1241
     28  CA       -77.8660   98.5560  -41.8790 C.3    90  TRP90       0.1605
     29  C        -77.4930   97.4780  -40.8520 C.2    90  TRP90       0.2264
     30  O        -78.3000   96.5910  -40.5690 O.2    90  TRP90      -0.2867
     31  CB       -78.2860   97.8870  -43.1860 C.3    90  TRP90       0.0550
     32  CG       -79.1430   98.7520  -44.0030 C.ar   90  TRP90       0.0003
     33  CD1      -78.7570   99.5520  -45.0420 C.ar   90  TRP90       0.0946
     34  CD2      -80.5520   98.9270  -43.8580 C.ar   90  TRP90       0.0152
     35  NE1      -79.8420  100.2140  -45.5530 N.ar   90  TRP90      -0.2442
     36  CE2      -80.9590   99.8500  -44.8470 C.ar   90  TRP90       0.0810
     37  CE3      -81.5130   98.3860  -42.9930 C.ar   90  TRP90       0.0012
     38  CZ2      -82.2920  100.2510  -44.9990 C.ar   90  TRP90       0.0191
     39  CZ3      -82.8520   98.7930  -43.1440 C.ar   90  TRP90       0.0001
     40  CH2      -83.2190   99.7170  -44.1380 C.ar   90  TRP90       0.0015
     41  N        -75.7720  107.0300  -41.3720 N.3   118  HIS118     -0.1241
     42  CA       -77.2350  107.0980  -41.3710 C.3   118  HIS118      0.1621
     43  C        -77.7360  105.7630  -40.8140 C.2   118  HIS118      0.2264
     44  O        -77.7200  104.7470  -41.5150 O.2   118  HIS118     -0.2867
     45  CB       -77.7210  107.3220  -42.8120 C.3   118  HIS118      0.0745
     46  CG       -79.1560  107.7530  -42.9360 C.ar  118  HIS118      0.0817
     47  ND1      -79.7730  107.9050  -44.1590 N.ar  118  HIS118     -0.2268
     48  CD2      -80.0940  108.0470  -42.0020 C.ar  118  HIS118      0.1154
     49  CE1      -81.0250  108.2860  -43.9760 C.ar  118  HIS118      0.1986
     50  NE2      -81.2460  108.3830  -42.6760 N.ar  118  HIS118     -0.2212
     51  N        -80.0230  102.9850  -39.8700 N.3   120  GLU120     -0.1231
     52  CA       -81.2660  102.5110  -40.4650 C.3   120  GLU120      0.1684
     53  C        -82.0170  101.5720  -39.5210 C.2   120  GLU120      0.2434
     54  O        -81.4280  101.0490  -38.5660 O.2   120  GLU120     -0.2733
     55  CB       -80.9470  101.8000  -41.7840 C.3   120  GLU120      0.0402
     56  CG       -80.2580  102.6790  -42.8360 C.3   120  GLU120      0.1161
     57  CD       -81.2430  103.4320  -43.7090 C.2   120  GLU120      0.3649
     58  OE1      -82.4230  103.5240  -43.3100 O.co2 120  GLU120     -0.2457
     59  OE2      -80.8500  103.9150  -44.7980 O.co2 120  GLU120     -0.2457
     60  N        -83.3230  101.3480  -39.7810 N.am  121  PRO121     -0.2729
     61  CA       -84.0820  100.4250  -38.9230 C.3   121  PRO121      0.1401
     62  C        -83.8420   98.9370  -39.2270 C.2   121  PRO121      0.2269
     63  O        -84.7370   98.2240  -39.7040 O.2   121  PRO121     -0.2865
     64  CB       -85.5480  100.8330  -39.1740 C.3   121  PRO121      0.0296
     65  CG       -85.5460  101.4030  -40.5650 C.3   121  PRO121      0.0237
     66  CD       -84.1830  102.0580  -40.7480 C.3   121  PRO121      0.0939
     67  N        -82.8300  106.9270  -38.5770 N.3   159  TYR159     -0.1241
     68  CA       -84.0510  106.8130  -39.3780 C.3   159  TYR159      0.1605
     69  C        -85.1220  105.9940  -38.6620 C.2   159  TYR159      0.2264
     70  O        -84.8050  104.9960  -37.9850 O.2   159  TYR159     -0.2867
     71  CB       -83.7750  106.2730  -40.7700 C.3   159  TYR159      0.0534
     72  CG       -84.9890  106.3420  -41.6580 C.ar  159  TYR159     -0.0201
     73  CD1      -85.4390  107.5660  -42.1520 C.ar  159  TYR159     -0.0009
     74  CD2      -85.7120  105.1880  -41.9790 C.ar  159  TYR159     -0.0009
     75  CE1      -86.5650  107.6460  -42.9550 C.ar  159  TYR159      0.0417
     76  CE2      -86.8620  105.2540  -42.7870 C.ar  159  TYR159      0.0417
     77  CZ       -87.2740  106.4910  -43.2680 C.ar  159  TYR159      0.1957
     78  OH       -88.3900  106.5850  -44.0600 O.3   159  TYR159     -0.2866
     79  N        -85.9000  113.8890  -43.5880 N.3   216  TYR216     -0.1241
     80  CA       -85.6460  112.9350  -44.6760 C.3   216  TYR216      0.1605
     81  C        -86.3980  113.1330  -46.0160 C.2   216  TYR216      0.2264
     82  O        -85.7550  113.3080  -47.0430 O.2   216  TYR216     -0.2867
     83  CB       -85.6890  111.4480  -44.2350 C.3   216  TYR216      0.0534
     84  CG       -85.1990  110.5850  -45.3820 C.ar  216  TYR216     -0.0201
     85  CD1      -83.8380  110.5740  -45.7340 C.ar  216  TYR216     -0.0009
     86  CD2      -86.0900  109.8600  -46.1800 C.ar  216  TYR216     -0.0009
     87  CE1      -83.3780  109.8390  -46.8280 C.ar  216  TYR216      0.0417
     88  CE2      -85.6330  109.1160  -47.2770 C.ar  216  TYR216      0.0417
     89  CZ       -84.2760  109.1100  -47.5940 C.ar  216  TYR216      0.1957
     90  OH       -83.8130  108.3810  -48.6760 O.3   216  TYR216     -0.2866
     91  N        -92.8040  100.4110  -56.3310 N.3   259  ARG259     -0.1245
     92  CA       -94.0760  100.5850  -55.6060 C.3   259  ARG259      0.1563
     93  C        -95.1960  101.1050  -56.5280 C.2   259  ARG259      0.2260
     94  O        -95.6380  102.2600  -56.4050 O.2   259  ARG259     -0.2867
     95  CB       -93.8960  101.5060  -54.3780 C.3   259  ARG259      0.0307
     96  CG       -92.6640  101.1920  -53.5180 C.3   259  ARG259      0.0489
     97  CD       -92.7850  101.7200  -52.0890 C.3   259  ARG259      0.2205
     98  NE       -91.6000  101.4050  -51.2820 N.pl3 259  ARG259     -0.0865
     99  CZ       -90.5300  102.1950  -51.1610 C.cat 259  ARG259      0.5346
    100  NH1      -90.4740  103.3660  -51.7940 N.pl3 259  ARG259      0.1354
    101  NH2      -89.5050  101.8180  -50.4010 N.pl3 259  ARG259      0.1354
    102  N        -80.4560  107.3790  -53.9860 N.3   297  GLU297     -0.1245
    103  CA       -81.6070  106.5190  -53.7670 C.3   297  GLU297      0.1567
    104  C        -82.3980  106.4680  -55.0880 C.2   297  GLU297      0.2260
    105  O        -83.4350  107.1390  -55.2430 O.2   297  GLU297     -0.2867
    106  CB       -82.4690  107.0220  -52.5980 C.3   297  GLU297      0.0388
    107  CG       -82.8440  105.9620  -51.5540 C.3   297  GLU297      0.1160
    108  CD       -83.6740  104.7860  -52.0960 C.2   297  GLU297      0.3649
    109  OE1      -83.9300  104.7090  -53.3240 O.co2 297  GLU297     -0.2457
    110  OE2      -84.0600  103.9240  -51.2690 O.co2 297  GLU297     -0.2457
    111  N        -86.1750  105.4190  -55.2450 N.3   300  GLU300     -0.1245
    112  CA       -87.1530  106.4270  -54.8560 C.3   300  GLU300      0.1567
    113  C        -87.1130  107.7010  -55.7050 C.2   300  GLU300      0.2260
    114  O        -87.8690  108.6500  -55.4410 O.2   300  GLU300     -0.2867
    115  CB       -87.0120  106.7430  -53.3670 C.3   300  GLU300      0.0388
    116  CG       -87.1880  105.4950  -52.5070 C.3   300  GLU300      0.1160
    117  CD       -87.5270  105.7890  -51.0580 C.2   300  GLU300      0.3649
    118  OE1      -87.1930  106.9030  -50.5630 O.co2 300  GLU300     -0.2457
    119  OE2      -88.1200  104.8870  -50.4130 O.co2 300  GLU300     -0.2457
@<TRIPOS>BOND
     1    93    94    2
     2    93    92    1
     3    91    92    1
     4   113   114    2
     5   113   112    1
     6    92    95    1
     7   111   112    1
     8   105   104    2
     9   104   103    1
    10   112   115    1
    11    95    96    1
    12   102   103    1
    13   103   106    1
    14    96    97    1
    15   115   116    1
    16   109   108   ar
    17    16    15    2
    18    15    14    1
    19   106   107    1
    20   116   117    1
    21    21    19   ar
    22    21    22   ar
    23    19    18   ar
    24     4     3    2
    25   108   107    1
    26   108   110   ar
    27    97    98    1
    28   100    99    1
    29    14    13    1
    30    14    17    1
    31    98    99    2
    32    22    24   ar
    33    22    20   ar
    34    18    17    1
    35    18    20   ar
    36    99   101    1
    37     3     2    1
    38     5     2    1
    39     5     6    1
    40   117   118   ar
    41   117   119   ar
    42    24    26   ar
    43     1     2    1
    44     8     6   ar
    45     8    10   ar
    46    20    23   ar
    47     6     7   ar
    48    10    11   ar
    49    26    25   ar
    50    23    25   ar
    51     7     9   ar
    52    90    89    1
    53    11     9   ar
    54    11    12    1
    55    89    88   ar
    56    89    87   ar
    57    88    86   ar
    58    82    81    2
    59    87    85   ar
    60    86    84   ar
    61    81    80    1
    62    85    84   ar
    63    35    33   ar
    64    35    36   ar
    65    84    83    1
    66    33    32   ar
    67    38    36   ar
    68    38    40   ar
    69    36    34   ar
    70    59    57   ar
    71    80    83    1
    72    80    79    1
    73    47    49   ar
    74    47    46   ar
    75    40    39   ar
    76    78    77    1
    77    32    34   ar
    78    32    31    1
    79    49    50   ar
    80    34    37   ar
    81    57    58   ar
    82    57    56    1
    83    77    75   ar
    84    77    76   ar
    85    31    28    1
    86    39    37   ar
    87    75    73   ar
    88    46    45    1
    89    46    48   ar
    90    56    55    1
    91    45    42    1
    92    76    74   ar
    93    50    48   ar
    94    27    28    1
    95    73    72   ar
    96    74    72   ar
    97    28    29    1
    98    55    52    1
    99    72    71    1
   100    44    43    2
   101    41    42    1
   102    42    43    1
   103    29    30    2
   104    71    68    1
   105    66    65    1
   106    66    60    1
   107    65    64    1
   108    52    51    1
   109    52    53    1
   110    60    53   am
   111    60    61    1
   112    63    62    2
   113    53    54    2
   114    68    69    1
   115    68    67    1
   116    62    61    1
   117    64    61    1
   118    69    70    2
