@<TRIPOS>MOLECULE
tmp/4ad4A02.pdb
 156 153 0 0 0
SMALL
GASTEIGER

@<TRIPOS>ATOM
      1  N          6.1300    7.5950    6.4460 N.3    39  PRO39      -0.2116
      2  CA         4.9480    7.0890    5.7400 C.3    39  PRO39       0.1372
      3  C          5.1300    5.6570    5.2380 C.2    39  PRO39       0.2244
      4  O          4.1430    4.9570    5.0150 O.2    39  PRO39      -0.2868
      5  CB         4.8150    8.0360    4.5460 C.3    39  PRO39       0.0268
      6  CG         5.5570    9.2580    4.9390 C.3    39  PRO39       0.0207
      7  CD         6.7000    8.7670    5.7620 C.3    39  PRO39       0.0892
      8  N         -2.6790   26.7470   -1.6820 N.3   165  TYR165     -0.1227
      9  CA        -1.8470   25.5700   -1.4850 C.3   165  TYR165      0.1736
     10  C         -2.6860   24.2960   -1.6030 C.2   165  TYR165      0.2595
     11  O         -3.8510   24.2640   -1.1730 O.2   165  TYR165     -0.2718
     12  CB        -1.0830   25.6240   -0.1490 C.3   165  TYR165      0.0548
     13  CG        -0.0380   24.5270   -0.0950 C.ar  165  TYR165     -0.0200
     14  CD1        1.0970   24.5920   -0.9080 C.ar  165  TYR165     -0.0009
     15  CD2       -0.2140   23.4020    0.7150 C.ar  165  TYR165     -0.0009
     16  CE1        2.0440   23.5750   -0.9120 C.ar  165  TYR165      0.0417
     17  CE2        0.7360   22.3760    0.7220 C.ar  165  TYR165      0.0417
     18  CZ         1.8630   22.4750   -0.1030 C.ar  165  TYR165      0.1957
     19  OH         2.8060   21.4700   -0.1120 O.3   165  TYR165     -0.2866
     20  N         -2.0930   23.2740   -2.2260 N.am  166  ASP166     -0.1974
     21  CA        -2.7530   21.9850   -2.4660 C.3   166  ASP166      0.1709
     22  C         -4.1900   22.1340   -2.9820 C.2   166  ASP166      0.2293
     23  O         -5.1160   21.4710   -2.4920 O.2   166  ASP166     -0.2864
     24  CB        -2.7160   21.1170   -1.1990 C.3   166  ASP166      0.1436
     25  CG        -1.3420   20.5170   -0.9330 C.2   166  ASP166      0.3671
     26  OD1       -0.3910   20.7040   -1.7400 O.co2 166  ASP166     -0.2456
     27  OD2       -1.1960   19.8650    0.1270 O.co2 166  ASP166     -0.2456
     28  N         -5.4500   21.0730   -5.5370 N.3   168  TYR168     -0.1241
     29  CA        -5.9070   19.8260   -6.1720 C.3   168  TYR168      0.1605
     30  C         -6.7760   18.9630   -5.2500 C.2   168  TYR168      0.2264
     31  O         -7.4460   18.0540   -5.7140 O.2   168  TYR168     -0.2867
     32  CB        -4.7030   18.9890   -6.6420 C.3   168  TYR168      0.0534
     33  CG        -3.7740   18.5320   -5.5210 C.ar  168  TYR168     -0.0201
     34  CD1       -4.0520   17.3840   -4.7640 C.ar  168  TYR168     -0.0009
     35  CD2       -2.6070   19.2520   -5.2250 C.ar  168  TYR168     -0.0009
     36  CE1       -3.1770   16.9670   -3.7410 C.ar  168  TYR168      0.0417
     37  CE2       -1.7470   18.8530   -4.2100 C.ar  168  TYR168      0.0417
     38  CZ        -2.0310   17.7080   -3.4720 C.ar  168  TYR168      0.1957
     39  OH        -1.1610   17.3110   -2.4730 O.3   168  TYR168     -0.2866
     40  N         -2.0520   25.5710   -7.2840 N.3   199  LEU199     -0.1245
     41  CA        -0.7770   24.8610   -7.2530 C.3   199  LEU199      0.1561
     42  C         -0.6940   23.8400   -8.3810 C.2   199  LEU199      0.2260
     43  O         -1.3770   22.8170   -8.3540 O.2   199  LEU199     -0.2867
     44  CB        -0.5850   24.1660   -5.8990 C.3   199  LEU199      0.0270
     45  CG         0.7350   23.4150   -5.6660 C.3   199  LEU199      0.0019
     46  CD1        1.8930   24.4000   -5.4870 C.3   199  LEU199      0.0001
     47  CD2        0.6130   22.5070   -4.4660 C.3   199  LEU199      0.0001
     48  N          0.9200   20.8590   -9.7250 N.3   201  THR201     -0.1218
     49  CA         1.7670   19.7740   -9.2000 C.3   201  THR201      0.1862
     50  C          2.3340   18.8710  -10.3100 C.2   201  THR201      0.2287
     51  O          3.5250   18.9310  -10.6070 O.2   201  THR201     -0.2866
     52  CB         1.0110   18.9180   -8.1570 C.3   201  THR201      0.1770
     53  OG1       -0.2510   18.5100   -8.7080 O.3   201  THR201     -0.2211
     54  CG2        0.7730   19.7270   -6.8830 C.3   201  THR201      0.0375
     55  N          5.3520   26.1740   -5.9420 N.3   222  TYR222     -0.1227
     56  CA         5.8160   26.1110   -4.5350 C.3   222  TYR222      0.1736
     57  C          7.1720   25.4530   -4.2050 C.2   222  TYR222      0.2595
     58  O          8.0480   26.0970   -3.6290 O.2   222  TYR222     -0.2718
     59  CB         4.7320   25.5880   -3.5520 C.3   222  TYR222      0.0548
     60  CG         5.2100   25.8200   -2.1520 C.ar  222  TYR222     -0.0200
     61  CD1        5.1200   27.0940   -1.5860 C.ar  222  TYR222     -0.0009
     62  CD2        5.8420   24.8040   -1.4170 C.ar  222  TYR222     -0.0009
     63  CE1        5.6160   27.3590   -0.3210 C.ar  222  TYR222      0.0417
     64  CE2        6.3730   25.0690   -0.1270 C.ar  222  TYR222      0.0417
     65  CZ         6.2390   26.3510    0.4070 C.ar  222  TYR222      0.1957
     66  OH         6.7170   26.6740    1.6660 O.3   222  TYR222     -0.2866
     67  N          7.3220   24.1640   -4.5050 N.am  223  PHE223     -0.1976
     68  CA         8.4090   23.3670   -3.9020 C.3   223  PHE223      0.1639
     69  C          9.7830   23.8710   -4.3080 C.2   223  PHE223      0.2290
     70  O         10.0560   24.0930   -5.4930 O.2   223  PHE223     -0.2864
     71  CB         8.2180   21.8790   -4.2070 C.3   223  PHE223      0.0560
     72  CG         6.8230   21.4030   -3.9110 C.ar  223  PHE223     -0.0200
     73  CD1        6.4080   21.2370   -2.5950 C.ar  223  PHE223     -0.0042
     74  CD2        5.9050   21.2010   -4.9380 C.ar  223  PHE223     -0.0042
     75  CE1        5.0970   20.8440   -2.2900 C.ar  223  PHE223     -0.0003
     76  CE2        4.5960   20.8040   -4.6500 C.ar  223  PHE223     -0.0003
     77  CZ         4.1900   20.6360   -3.3150 C.ar  223  PHE223     -0.0000
     78  N         10.9700   17.5560   -7.3270 N.3   228  PHE228     -0.1227
     79  CA        10.0260   16.9840   -6.3630 C.3   228  PHE228      0.1736
     80  C          8.6820   16.6720   -7.0320 C.2   228  PHE228      0.2596
     81  O          8.0600   15.6310   -6.7580 O.2   228  PHE228     -0.2718
     82  CB         9.8380   17.8850   -5.1300 C.3   228  PHE228      0.0547
     83  CG         8.9130   17.2950   -4.0940 C.ar  228  PHE228     -0.0202
     84  CD1        9.2310   16.0900   -3.4610 C.ar  228  PHE228     -0.0042
     85  CD2        7.7120   17.9310   -3.7690 C.ar  228  PHE228     -0.0042
     86  CE1        8.3620   15.5160   -2.5130 C.ar  228  PHE228     -0.0003
     87  CE2        6.8310   17.3730   -2.8120 C.ar  228  PHE228     -0.0003
     88  CZ         7.1640   16.1680   -2.1760 C.ar  228  PHE228     -0.0000
     89  N          8.2480   17.5750   -7.9030 N.am  229  THR229     -0.1953
     90  CA         7.0810   17.3600   -8.7560 C.3   229  THR229      0.1897
     91  C          7.4550   17.7830  -10.1650 C.2   229  THR229      0.2313
     92  O          8.5020   18.3960  -10.3600 O.2   229  THR229     -0.2863
     93  CB         5.8660   18.2010   -8.3120 C.3   229  THR229      0.1794
     94  OG1        6.1780   19.6030   -8.3800 O.3   229  THR229     -0.2208
     95  CG2        5.4260   17.8280   -6.9110 C.3   229  THR229      0.0378
     96  N         16.8880   22.8310   -0.0780 N.3   259  TYR259     -0.1241
     97  CA        15.8620   22.1480    0.6830 C.3   259  TYR259      0.1605
     98  C         16.5010   21.1340    1.6130 C.2   259  TYR259      0.2264
     99  O         17.3710   20.3560    1.1920 O.2   259  TYR259     -0.2867
    100  CB        14.8490   21.4510   -0.2460 C.3   259  TYR259      0.0534
    101  CG        13.6360   20.9180    0.5030 C.ar  259  TYR259     -0.0201
    102  CD1       13.6610   19.6460    1.0990 C.ar  259  TYR259     -0.0009
    103  CD2       12.4790   21.7030    0.6440 C.ar  259  TYR259     -0.0009
    104  CE1       12.5570   19.1540    1.8130 C.ar  259  TYR259      0.0417
    105  CE2       11.3560   21.2240    1.3370 C.ar  259  TYR259      0.0417
    106  CZ        11.4120   19.9460    1.9240 C.ar  259  TYR259      0.1957
    107  OH        10.3230   19.4580    2.6100 O.3   259  TYR259     -0.2866
    108  N         11.6330   15.5040    9.4560 N.3   265  ARG265     -0.1245
    109  CA        11.2620   14.3760    8.5840 C.3   265  ARG265      0.1563
    110  C         12.5190   13.5490    8.2680 C.2   265  ARG265      0.2260
    111  O         13.0650   13.6250    7.1550 O.2   265  ARG265     -0.2867
    112  CB        10.5540   14.8540    7.2970 C.3   265  ARG265      0.0307
    113  CG         9.4070   15.8660    7.5240 C.3   265  ARG265      0.0489
    114  CD         8.5170   16.0290    6.2880 C.3   265  ARG265      0.2205
    115  NE         7.4320   16.9950    6.4990 N.pl3 265  ARG265     -0.0865
    116  CZ         7.4570   18.2680    6.0970 C.cat 265  ARG265      0.5346
    117  NH1        8.5120   18.7670    5.4680 N.pl3 265  ARG265      0.1354
    118  NH2        6.4210   19.0590    6.3390 N.pl3 265  ARG265      0.1354
    119  N         13.2570   10.6360    7.5440 N.3   267  TRP267     -0.1227
    120  CA        13.1290    9.6660    6.4510 C.3   267  TRP267      0.1737
    121  C         13.1630   10.3130    5.0640 C.2   267  TRP267      0.2595
    122  O         13.1470    9.5960    4.0490 O.2   267  TRP267     -0.2718
    123  CB        11.7870    8.9320    6.5890 C.3   267  TRP267      0.0564
    124  CG        10.6550    9.8520    7.0080 C.ar  267  TRP267      0.0003
    125  CD1       10.2980   10.1480    8.2850 C.ar  267  TRP267      0.0946
    126  CD2        9.7690   10.6010    6.1590 C.ar  267  TRP267      0.0152
    127  NE1        9.2450   11.0220    8.2970 N.ar  267  TRP267     -0.2442
    128  CE2        8.9020   11.3270    7.0070 C.ar  267  TRP267      0.0810
    129  CE3        9.6240   10.7310    4.7680 C.ar  267  TRP267      0.0012
    130  CZ2        7.8900   12.1640    6.5160 C.ar  267  TRP267      0.0191
    131  CZ3        8.6160   11.5730    4.2730 C.ar  267  TRP267      0.0001
    132  CH2        7.7600   12.2760    5.1550 C.ar  267  TRP267      0.0015
    133  N         13.1870   11.6490    5.0180 N.am  268  ASN268     -0.1974
    134  CA        12.9530   12.3910    3.7720 C.3   268  ASN268      0.1688
    135  C         14.2440   12.9290    3.1320 C.2   268  ASN268      0.2292
    136  O         14.2150   13.9370    2.4210 O.2   268  ASN268     -0.2864
    137  CB        11.9560   13.5590    4.0140 C.3   268  ASN268      0.1181
    138  CG        11.1910   13.9500    2.7640 C.2   268  ASN268      0.2629
    139  OD1       10.9400   13.1190    1.8890 O.2   268  ASN268     -0.2716
    140  ND2       10.8200   15.2290    2.6660 N.am  268  ASN268     -0.0877
    141  N         14.9220   14.1950   -0.6490 N.3   271  VAL271     -0.1245
    142  CA        14.4550   15.4980   -1.1150 C.3   271  VAL271      0.1561
    143  C         15.4820   16.6180   -0.8150 C.2   271  VAL271      0.2260
    144  O         15.3210   17.7570   -1.2660 O.2   271  VAL271     -0.2867
    145  CB        13.0300   15.8390   -0.5390 C.3   271  VAL271      0.0252
    146  CG1       12.4520   17.0840   -1.2040 C.3   271  VAL271      0.0019
    147  CG2       12.0850   14.6710   -0.7560 C.3   271  VAL271      0.0019
    148  N         11.8330   23.4520    6.5620 N.3   306  GLU306     -0.1245
    149  CA        12.1200   22.8550    5.2600 C.3   306  GLU306      0.1567
    150  C         13.4540   23.2910    4.6530 C.2   306  GLU306      0.2260
    151  O         13.8200   22.8390    3.5700 O.2   306  GLU306     -0.2867
    152  CB        10.9260   23.0330    4.3100 C.3   306  GLU306      0.0388
    153  CG         9.7310   22.2430    4.8640 C.3   306  GLU306      0.1160
    154  CD         8.4920   22.2740    4.0110 C.2   306  GLU306      0.3649
    155  OE1        8.3640   23.1620    3.1350 O.co2 306  GLU306     -0.2457
    156  OE2        7.6360   21.3900    4.2260 O.co2 306  GLU306     -0.2457
@<TRIPOS>BOND
     1    51    50    2
     2    92    91    2
     3    50    49    1
     4    91    90    1
     5    48    49    1
     6    49    52    1
     7    90    93    1
     8    90    89    1
     9    53    52    1
    10    42    43    2
    11    42    41    1
    12    94    93    1
    13    93    95    1
    14    52    54    1
    15    89    80   am
    16    78    79    1
    17    40    41    1
    18    41    44    1
    19    80    81    2
    20    80    79    1
    21    32    29    1
    22    32    33    1
    23    79    82    1
    24    29    28    1
    25    29    30    1
    26    55    56    1
    27    44    45    1
    28    31    30    2
    29    45    46    1
    30    45    47    1
    31    33    35   ar
    32    33    34   ar
    33    70    69    2
    34    35    37   ar
    35    82    83    1
    36    74    76   ar
    37    74    72   ar
    38    34    36   ar
    39    76    77   ar
    40    56    57    1
    41    56    59    1
    42    67    57   am
    43    67    68    1
    44    69    68    1
    45    37    38   ar
    46    71    72    1
    47    71    68    1
    48    57    58    2
    49    83    85   ar
    50    83    84   ar
    51    72    73   ar
    52    85    87   ar
    53    36    38   ar
    54    59    60    1
    55    38    39    1
    56    84    86   ar
    57    77    75   ar
    58    22    23    2
    59    22    21    1
    60    87    88   ar
    61    73    75   ar
    62    86    88   ar
    63    21    20    1
    64    21    24    1
    65    20    10   am
    66    60    61   ar
    67    60    62   ar
    68    26    25   ar
    69     8     9    1
    70    10     9    1
    71    10    11    2
    72    61    63   ar
    73     9    12    1
    74    62    64   ar
    75   144   143    2
    76   146   145    1
    77    24    25    1
    78   142   143    1
    79   142   141    1
    80   142   145    1
    81    25    27   ar
    82    16    14   ar
    83    16    18   ar
    84    14    13   ar
    85   147   145    1
    86    63    65   ar
    87   100   101    1
    88   100    97    1
    89    12    13    1
    90    64    65   ar
    91    19    18    1
    92    18    17   ar
    93    13    15   ar
    94    96    97    1
    95    65    66    1
    96   101   103   ar
    97   101   102   ar
    98   103   105   ar
    99    97    98    1
   100    15    17   ar
   101   102   104   ar
   102    99    98    2
   103   105   106   ar
   104   104   106   ar
   105   139   138    2
   106   106   107    1
   107   136   135    2
   108   140   138   am
   109   138   137    1
   110   135   134    1
   111   155   154   ar
   112   151   150    2
   113   134   137    1
   114   134   133    1
   115   154   156   ar
   116   154   153    1
   117   122   121    2
   118   131   129   ar
   119   131   132   ar
   120   152   153    1
   121   152   149    1
   122     5     6    1
   123     5     2    1
   124   150   149    1
   125   129   126   ar
   126     6     7    1
   127     4     3    2
   128   133   121   am
   129   121   120    1
   130   132   130   ar
   131     3     2    1
   132   149   148    1
   133   117   116    1
   134     2     1    1
   135     7     1    1
   136   116   118    1
   137   116   115    2
   138   126   128   ar
   139   126   124   ar
   140   114   115    1
   141   114   113    1
   142   120   123    1
   143   120   119    1
   144   130   128   ar
   145   123   124    1
   146   128   127   ar
   147   124   125   ar
   148   111   110    2
   149   112   113    1
   150   112   109    1
   151   110   109    1
   152   125   127   ar
   153   109   108    1
