@<TRIPOS>MOLECULE
tmp/4ad6B00.pdb
 82 75 0 0 0
SMALL
GASTEIGER

@<TRIPOS>ATOM
      1  N         -3.7350   23.3730   17.5540 N.3    11  GLY11      -0.1225
      2  CA        -3.3150   24.4140   16.5880 C.3    11  GLY11       0.1811
      3  C         -4.3110   24.6150   15.4880 C.2    11  GLY11       0.2280
      4  O         -4.9450   23.6560   15.0750 O.2    11  GLY11      -0.2866
      5  N          1.3310   32.3490   16.6410 N.3    45  THR45      -0.1203
      6  CA         2.7120   31.8740   16.4320 C.3    45  THR45       0.1994
      7  C          3.0670   31.7960   14.9460 C.2    45  THR45       0.2617
      8  O          2.2470   31.3780   14.1390 O.2    45  THR45      -0.2717
      9  CB         2.9050   30.4710   16.9990 C.3    45  THR45       0.1784
     10  OG1        2.0560   29.5930   16.2920 O.3    45  THR45      -0.2211
     11  CG2        2.4600   30.4660   18.4170 C.3    45  THR45       0.0376
     12  N          4.2770   32.1830   14.6110 N.am   46  ALA46      -0.1979
     13  CA         4.7440   32.1210   13.2000 C.3    46  ALA46       0.1597
     14  C          4.7690   30.6270   12.8190 C.2    46  ALA46       0.2287
     15  O          5.1610   29.7850   13.6210 O.2    46  ALA46      -0.2864
     16  CB         6.1420   32.7120   13.0580 C.3    46  ALA46       0.0319
     17  N          5.9170   27.1040   11.6730 N.3    48  VAL48      -0.1231
     18  CA         7.1240   26.2540   11.5440 C.3    48  VAL48       0.1692
     19  C          6.8240   25.2070   10.4510 C.2    48  VAL48       0.2592
     20  O          5.7210   24.6650   10.3760 O.2    48  VAL48      -0.2718
     21  CB         7.4370   25.4440   12.8500 C.3    48  VAL48       0.0266
     22  CG1        8.6700   24.5830   12.6910 C.3    48  VAL48       0.0020
     23  CG2        7.5440   26.3460   14.0830 C.3    48  VAL48       0.0020
     24  N          7.7830   24.9500    9.5910 N.am   49  GLY49      -0.1957
     25  CA         7.5850   24.1240    8.4030 C.3    49  GLY49       0.1869
     26  C          7.4940   25.1350    7.2640 C.2    49  GLY49       0.2309
     27  O          8.3340   26.0510    7.1550 O.2    49  GLY49      -0.2863
     28  N          2.4230   30.4460    4.9200 N.3    53  GLN53      -0.1245
     29  CA         1.1460   29.9540    5.4020 C.3    53  GLN53       0.1566
     30  C          0.7630   30.8830    6.5610 C.2    53  GLN53       0.2260
     31  O          1.6230   31.5890    7.1060 O.2    53  GLN53      -0.2867
     32  CB         1.1770   28.4770    5.8000 C.3    53  GLN53       0.0367
     33  CG         1.9840   28.1910    7.0230 C.3    53  GLN53       0.0905
     34  CD         2.1240   26.7140    7.3450 C.2    53  GLN53       0.2608
     35  OE1        1.1530   26.0040    7.4800 O.2    53  GLN53      -0.2717
     36  NE2        3.3650   26.2600    7.4800 N.am   53  GLN53      -0.0878
     37  N         -0.3490   30.5260   13.0900 N.3    56  PHE56      -0.1241
     38  CA        -1.2060   29.6710   13.9040 C.3    56  PHE56       0.1605
     39  C         -1.6990   30.4050   15.1820 C.2    56  PHE56       0.2264
     40  O         -1.1150   31.4170   15.6330 O.2    56  PHE56      -0.2867
     41  CB        -0.5040   28.3860   14.3530 C.3    56  PHE56       0.0534
     42  CG        -0.3540   27.3520   13.2530 C.ar   56  PHE56      -0.0203
     43  CD1        0.5790   27.5060   12.2080 C.ar   56  PHE56      -0.0042
     44  CD2       -1.1580   26.2490   13.2500 C.ar   56  PHE56      -0.0042
     45  CE1        0.7050   26.5320   11.1690 C.ar   56  PHE56      -0.0003
     46  CE2       -1.0610   25.2470   12.2280 C.ar   56  PHE56      -0.0003
     47  CZ        -0.1600   25.4210   11.1790 C.ar   56  PHE56      -0.0000
     48  N         -2.1100   28.6370   18.7840 N.3    58  ASN58      -0.1240
     49  CA        -1.7330   27.4490   19.5700 C.3    58  ASN58       0.1653
     50  C         -2.0840   27.6260   21.0330 C.2    58  ASN58       0.2266
     51  O         -1.9380   28.7050   21.6170 O.2    58  ASN58      -0.2867
     52  CB        -0.2010   27.1410   19.4790 C.3    58  ASN58       0.1155
     53  CG         0.2100   26.5720   18.1330 C.2    58  ASN58       0.2627
     54  OD1        0.8870   27.2620   17.3060 O.2    58  ASN58      -0.2716
     55  ND2       -0.2140   25.3460   17.8690 N.am   58  ASN58      -0.0877
     56  N         -5.1820   20.9930   14.3320 N.3    97  ASP97      -0.1239
     57  CA        -4.2530   19.9640   14.7290 C.3    97  ASP97       0.1674
     58  C         -4.4570   19.6930   16.2260 C.2    97  ASP97       0.2266
     59  O         -4.4710   20.6320   17.0110 O.2    97  ASP97      -0.2867
     60  CB        -2.8290   20.4800   14.4750 C.3    97  ASP97       0.1410
     61  CG        -2.6210   20.9800   13.0080 C.2    97  ASP97       0.3668
     62  OD1       -2.5270   20.1050   12.1410 O.co2  97  ASP97      -0.2456
     63  OD2       -2.5520   22.2280   12.7300 O.co2  97  ASP97      -0.2456
     64  N         -2.5690   17.2100   19.0030 N.3    99  ASP99      -0.1239
     65  CA        -1.4790   16.3060   19.2440 C.3    99  ASP99       0.1674
     66  C         -1.3780   15.9220   20.7170 C.2    99  ASP99       0.2266
     67  O         -1.5830   16.7770   21.5740 O.2    99  ASP99      -0.2867
     68  CB        -0.1630   17.0260   18.9550 C.3    99  ASP99       0.1410
     69  CG         0.0840   17.1540   17.4770 C.2    99  ASP99       0.3668
     70  OD1       -0.2460   16.1670   16.7630 O.co2  99  ASP99      -0.2456
     71  OD2        0.6590   18.1970   17.0620 O.co2  99  ASP99      -0.2456
     72  N          6.1760   26.9160   19.9530 N.3   125  PHE125     -0.1241
     73  CA         4.7030   27.1180   19.9050 C.3   125  PHE125      0.1605
     74  C          3.9900   26.0640   20.8130 C.2   125  PHE125      0.2264
     75  O          2.7950   26.1990   21.1420 O.2   125  PHE125     -0.2867
     76  CB         4.2190   27.1050   18.4430 C.3   125  PHE125      0.0534
     77  CG         4.3230   25.7630   17.7670 C.ar  125  PHE125     -0.0203
     78  CD1        3.3430   24.7920   17.9680 C.ar  125  PHE125     -0.0042
     79  CD2        5.3290   25.5080   16.8190 C.ar  125  PHE125     -0.0042
     80  CE1        3.4230   23.5480   17.3310 C.ar  125  PHE125     -0.0003
     81  CE2        5.3640   24.3160   16.1100 C.ar  125  PHE125     -0.0003
     82  CZ         4.3980   23.3290   16.3630 C.ar  125  PHE125     -0.0000
@<TRIPOS>BOND
     1    28    29    1
     2    29    32    1
     3    29    30    1
     4    32    33    1
     5    30    31    2
     6    33    34    1
     7    27    26    2
     8    26    25    1
     9    34    36   am
    10    34    35    2
    11    25    24    1
    12    24    19   am
    13    20    19    2
    14    19    18    1
    15    45    47   ar
    16    45    43   ar
    17    47    46   ar
    18    18    17    1
    19    18    21    1
    20    62    61   ar
    21    43    42   ar
    22    46    44   ar
    23    22    21    1
    24    63    61   ar
    25    14    13    1
    26    14    15    2
    27    21    23    1
    28    61    60    1
    29    16    13    1
    30    37    38    1
    31    13    12    1
    32    44    42   ar
    33    42    41    1
    34    38    41    1
    35    38    39    1
    36     8     7    2
    37    56    57    1
    38    60    57    1
    39    12     7   am
    40    57    58    1
    41     7     6    1
    42     4     3    2
    43    39    40    2
    44     3     2    1
    45    81    82   ar
    46    81    79   ar
    47    58    59    2
    48    10     9    1
    49    82    80   ar
    50     6     5    1
    51     6     9    1
    52     2     1    1
    53    70    69   ar
    54    79    77   ar
    55     9    11    1
    56    71    69   ar
    57    54    53    2
    58    80    78   ar
    59    69    68    1
    60    77    78   ar
    61    77    76    1
    62    55    53   am
    63    53    52    1
    64    76    73    1
    65    48    49    1
    66    68    65    1
    67    64    65    1
    68    65    66    1
    69    52    49    1
    70    49    50    1
    71    73    72    1
    72    73    74    1
    73    66    67    2
    74    74    75    2
    75    50    51    2
