@<TRIPOS>MOLECULE
tmp/4adbB01.pdb
 130 123 0 0 0
SMALL
GASTEIGER

@<TRIPOS>ATOM
      1  N         -1.4410   28.4570   29.8060 N.3   102  SER102     -0.1202
      2  CA        -0.0900   28.5950   29.3330 C.3   102  SER102      0.2020
      3  C          0.8370   27.9460   30.3740 C.2   102  SER102      0.2619
      4  O          0.4170   27.7760   31.5450 O.2   102  SER102     -0.2717
      5  CB         0.2680   30.0870   29.1630 C.3   102  SER102      0.2103
      6  OG         0.4210   30.6010   30.4740 O.3   102  SER102     -0.2182
      7  N          2.0890   27.6480   29.9850 N.am  103  GLY103     -0.1942
      8  CA         3.0630   27.0780   30.9390 C.3   103  GLY103      0.2014
      9  C          3.3720   28.1130   32.0470 C.2   103  GLY103      0.2638
     10  O          3.5230   27.7450   33.2220 O.2   103  GLY103     -0.2714
     11  N          3.4370   29.4060   31.7260 N.am  104  ALA104     -0.1977
     12  CA         3.7880   30.3770   32.8360 C.3   104  ALA104      0.1597
     13  C          2.6410   30.2610   33.8860 C.2   104  ALA104      0.2287
     14  O          2.8690   30.2560   35.1340 O.2   104  ALA104     -0.2864
     15  CB         3.8970   31.8270   32.2900 C.3   104  ALA104      0.0319
     16  N          3.0670   27.1990   36.0430 N.3   107  ASN107     -0.1240
     17  CA         4.1620   27.4630   36.9900 C.3   107  ASN107      0.1653
     18  C          3.7350   28.4470   38.0930 C.2   107  ASN107      0.2266
     19  O          4.1700   28.2920   39.2330 O.2   107  ASN107     -0.2867
     20  CB         5.3710   27.9570   36.1870 C.3   107  ASN107      0.1155
     21  CG         6.1950   26.8280   35.6290 C.2   107  ASN107      0.2627
     22  OD1        6.0800   25.6600   36.0250 O.2   107  ASN107     -0.2716
     23  ND2        7.0040   27.1690   34.6590 N.am  107  ASN107     -0.0877
     24  N         14.2130   28.2340   32.1460 N.3   136  PHE136     -0.1227
     25  CA        13.1190   29.0560   31.6350 C.3   136  PHE136      0.1736
     26  C         11.8070   28.5020   32.1790 C.2   136  PHE136      0.2595
     27  O         11.5600   27.3220   32.0110 O.2   136  PHE136     -0.2718
     28  CB        13.0970   29.1360   30.0860 C.3   136  PHE136      0.0547
     29  CG        12.0190   30.0590   29.5730 C.ar  136  PHE136     -0.0202
     30  CD1       12.1500   31.4560   29.6950 C.ar  136  PHE136     -0.0042
     31  CD2       10.8620   29.5570   29.0070 C.ar  136  PHE136     -0.0042
     32  CE1       11.1390   32.3320   29.2630 C.ar  136  PHE136     -0.0003
     33  CE2        9.8350   30.4390   28.5790 C.ar  136  PHE136     -0.0003
     34  CZ         9.9770   31.7860   28.7400 C.ar  136  PHE136     -0.0000
     35  N         11.0280   29.3500   32.8140 N.am  137  HIS137     -0.1961
     36  CA         9.7770   28.9970   33.4190 C.3   137  HIS137      0.1787
     37  C          8.6330   29.9270   33.0280 C.2   137  HIS137      0.2621
     38  O          7.4550   29.7380   33.5110 O.2   137  HIS137     -0.2715
     39  CB         9.9180   29.0350   34.8980 C.3   137  HIS137      0.0785
     40  CG        10.8500   27.9630   35.4380 C.ar  137  HIS137      0.0821
     41  ND1       11.9110   28.2570   36.2460 N.ar  137  HIS137     -0.2267
     42  CD2       10.8490   26.5610   35.2370 C.ar  137  HIS137      0.1154
     43  CE1       12.5890   27.0760   36.5480 C.ar  137  HIS137      0.1986
     44  NE2       11.9140   26.0420   35.9020 N.ar  137  HIS137     -0.2212
     45  N          8.9050   30.9270   32.1610 N.am  138  GLY138     -0.1940
     46  CA         7.8110   31.7980   31.7180 C.3   138  GLY138      0.2014
     47  C          8.0770   33.2770   31.8030 C.2   138  GLY138      0.2638
     48  O          9.1520   33.7150   32.3320 O.2   138  GLY138     -0.2714
     49  N          7.0740   34.0700   31.3620 N.am  139  ARG139     -0.1977
     50  CA         7.2830   35.4880   31.2740 C.3   139  ARG139      0.1597
     51  C          6.5720   36.4110   32.2940 C.2   139  ARG139      0.2287
     52  O          6.8550   37.6430   32.2640 O.2   139  ARG139     -0.2864
     53  CB         6.9870   35.9080   29.8570 C.3   139  ARG139      0.0334
     54  CG         8.0030   35.3170   28.9100 C.3   139  ARG139      0.0492
     55  CD         9.3670   35.9750   28.9830 C.3   139  ARG139      0.2205
     56  NE        10.1040   35.7320   27.7310 N.pl3 139  ARG139     -0.0865
     57  CZ        11.1860   36.4140   27.3050 C.cat 139  ARG139      0.5346
     58  NH1       11.6850   37.4390   27.9990 N.pl3 139  ARG139      0.1354
     59  NH2       11.7700   36.0530   26.1350 N.pl3 139  ARG139      0.1354
     60  N         13.7200   22.1440   35.4980 N.3   188  GLU188     -0.1245
     61  CA        13.3060   21.4850   34.2780 C.3   188  GLU188      0.1567
     62  C         14.0450   20.1320   34.1850 C.2   188  GLU188      0.2260
     63  O         15.2300   20.1240   34.3930 O.2   188  GLU188     -0.2867
     64  CB        13.6980   22.3460   33.0800 C.3   188  GLU188      0.0388
     65  CG        13.0570   23.7170   32.9940 C.3   188  GLU188      0.1160
     66  CD        13.8140   24.5900   31.9960 C.2   188  GLU188      0.3649
     67  OE1       13.7300   24.3310   30.7470 O.co2 188  GLU188     -0.2457
     68  OE2       14.5700   25.4900   32.4450 O.co2 188  GLU188     -0.2457
     69  N         14.9140   18.6020   31.5480 N.3   190  ILE190     -0.1245
     70  CA        15.9320   18.9650   30.5580 C.3   190  ILE190      0.1561
     71  C         15.8160   20.4820   30.4380 C.2   190  ILE190      0.2260
     72  O         14.7320   21.0180   30.1340 O.2   190  ILE190     -0.2867
     73  CB        15.6930   18.2950   29.1920 C.3   190  ILE190      0.0252
     74  CG1       15.7410   16.7800   29.3330 C.3   190  ILE190      0.0019
     75  CG2       16.7460   18.6810   28.1550 C.3   190  ILE190      0.0019
     76  CD1       15.0090   16.0910   28.1830 C.3   190  ILE190      0.0001
     77  N         15.2950   25.7000   26.6850 N.3   193  GLU193     -0.1245
     78  CA        15.8070   27.0020   26.2920 C.3   193  GLU193      0.1567
     79  C         17.3130   27.0730   26.6560 C.2   193  GLU193      0.2260
     80  O         18.1310   27.5410   25.8570 O.2   193  GLU193     -0.2867
     81  CB        14.9750   28.0840   26.9900 C.3   193  GLU193      0.0388
     82  CG        15.0610   29.4590   26.3970 C.3   193  GLU193      0.1160
     83  CD        14.4840   29.4780   24.9970 C.2   193  GLU193      0.3649
     84  OE1       13.6580   28.5920   24.6590 O.co2 193  GLU193     -0.2457
     85  OE2       14.8420   30.3850   24.2240 O.co2 193  GLU193     -0.2457
     86  N          9.1640   21.3750   36.1920 N.3   221  ASP221     -0.1239
     87  CA         8.5650   22.1290   35.1230 C.3   221  ASP221      0.1674
     88  C          8.7290   21.2620   33.8740 C.2   221  ASP221      0.2266
     89  O          9.8100   21.3150   33.2270 O.2   221  ASP221     -0.2867
     90  CB         9.2820   23.4760   34.9590 C.3   221  ASP221      0.1410
     91  CG         8.7550   24.2470   33.7550 C.2   221  ASP221      0.3668
     92  OD1        8.2180   23.6310   32.7980 O.co2 221  ASP221     -0.2456
     93  OD2        8.9110   25.4760   33.7310 O.co2 221  ASP221     -0.2456
     94  N          6.9240   21.6200   31.0820 N.3   223  VAL223     -0.1231
     95  CA         6.1080   22.2520   30.0620 C.3   223  VAL223      0.1692
     96  C          6.7030   21.9470   28.6690 C.2   223  VAL223      0.2592
     97  O          5.9470   21.7450   27.6710 O.2   223  VAL223     -0.2718
     98  CB         6.0390   23.8010   30.2840 C.3   223  VAL223      0.0266
     99  CG1        5.6430   24.5260   28.9850 C.3   223  VAL223      0.0020
    100  CG2        5.0640   24.0810   31.3850 C.3   223  VAL223      0.0020
    101  N          8.0590   21.9090   28.5650 N.am  224  GLN224     -0.1966
    102  CA         8.6960   21.4560   27.3260 C.3   224  GLN224      0.1733
    103  C          8.9950   19.9860   27.2240 C.2   224  GLN224      0.2617
    104  O          8.8950   19.4410   26.1310 O.2   224  GLN224     -0.2715
    105  CB        10.0340   22.1730   27.0610 C.3   224  GLN224      0.0408
    106  CG        10.5620   21.9920   25.6540 C.3   224  GLN224      0.0908
    107  CD        11.6090   23.0730   25.2810 C.2   224  GLN224      0.2608
    108  OE1       12.4080   22.8720   24.3920 O.2   224  GLN224     -0.2717
    109  NE2       11.6270   24.1840   26.0110 N.am  224  GLN224     -0.0878
    110  N          9.3800   19.3450   28.3190 N.am  225  THR225     -0.1951
    111  CA         9.7410   17.9460   28.2820 C.3   225  THR225      0.1897
    112  C          8.5300   16.9890   28.3350 C.2   225  THR225      0.2313
    113  O          8.6600   15.7530   28.1960 O.2   225  THR225     -0.2863
    114  CB        10.5780   17.6540   29.5140 C.3   225  THR225      0.1794
    115  OG1       11.9460   17.8780   29.1890 O.3   225  THR225     -0.2208
    116  CG2       10.4230   16.2570   29.8550 C.3   225  THR225      0.0378
    117  N          2.2110   21.9240   29.6110 N.3   249  ALA249     -0.1231
    118  CA         1.4760   22.8720   28.7640 C.3   249  ALA249      0.1694
    119  C          2.0850   22.5430   27.4010 C.2   249  ALA249      0.2591
    120  O          2.2960   21.3690   27.1400 O.2   249  ALA249     -0.2718
    121  CB         1.6750   24.3410   29.2200 C.3   249  ALA249      0.0304
    122  N          2.4460   23.5360   26.5860 N.am  250  LYS250     -0.1980
    123  CA         2.9370   23.3220   25.2000 C.3   250  LYS250      0.1596
    124  C          2.2230   22.1400   24.4920 C.2   250  LYS250      0.2287
    125  O          1.1140   22.3440   24.0200 O.2   250  LYS250     -0.2864
    126  CB         4.4600   23.2710   25.1430 C.3   250  LYS250      0.0298
    127  CG         5.1250   24.6210   25.4500 C.3   250  LYS250      0.0038
    128  CD         6.5760   24.4550   25.1600 C.3   250  LYS250      0.0206
    129  CE         7.3400   25.7580   24.8780 C.3   250  LYS250      0.1093
    130  NZ         7.7110   26.4260   26.1670 N.3   250  LYS250     -0.1314
@<TRIPOS>BOND
     1   125   124    2
     2    85    83   ar
     3   108   107    2
     4   124   123    1
     5    84    83   ar
     6   129   128    1
     7   129   130    1
     8    83    82    1
     9   126   123    1
    10   126   127    1
    11   128   127    1
    12   123   122    1
    13   107   106    1
    14   107   109   am
    15   106   105    1
    16    80    79    2
    17   104   103    2
    18    59    57    1
    19    78    79    1
    20    78    77    1
    21    78    81    1
    22    82    81    1
    23   122   119   am
    24   105   102    1
    25   120   119    2
    26   103   102    1
    27   103   110   am
    28    57    56    2
    29    57    58    1
    30   102   101    1
    31   119   118    1
    32    97    96    2
    33    56    55    1
    34    75    73    1
    35    76    74    1
    36   113   112    2
    37   111   110    1
    38   111   112    1
    39   111   114    1
    40   101    96   am
    41    33    34   ar
    42    33    31   ar
    43    96    95    1
    44    34    32   ar
    45   118   121    1
    46   118   117    1
    47    54    55    1
    48    54    53    1
    49    99    98    1
    50    31    29   ar
    51     5     2    1
    52     5     6    1
    53   115   114    1
    54    73    74    1
    55    73    70    1
    56    32    30   ar
    57     2     1    1
    58     2     3    1
    59   114   116    1
    60    29    30   ar
    61    29    28    1
    62    53    50    1
    63     7     3   am
    64     7     8    1
    65    95    98    1
    66    95    94    1
    67    28    25    1
    68    72    71    2
    69    98   100    1
    70     3     4    2
    71    71    70    1
    72    70    69    1
    73    67    66   ar
    74     8     9    1
    75    50    49    1
    76    50    51    1
    77    49    47   am
    78    25    24    1
    79    25    26    1
    80    46    47    1
    81    46    45    1
    82    11     9   am
    83    11    12    1
    84    47    48    2
    85    66    68   ar
    86    66    65    1
    87    27    26    2
    88     9    10    2
    89    45    37   am
    90    26    35   am
    91    52    51    2
    92    15    12    1
    93    92    91   ar
    94    35    36    1
    95    12    13    1
    96    65    64    1
    97    37    36    1
    98    37    38    2
    99    64    61    1
   100    89    88    2
   101    36    39    1
   102    93    91   ar
   103    91    90    1
   104    88    87    1
   105    13    14    2
   106    62    61    1
   107    62    63    2
   108    61    60    1
   109    23    21   am
   110    39    40    1
   111    90    87    1
   112    87    86    1
   113    42    40   ar
   114    42    44   ar
   115    40    41   ar
   116    21    22    2
   117    21    20    1
   118    44    43   ar
   119    16    17    1
   120    20    17    1
   121    41    43   ar
   122    17    18    1
   123    18    19    2
