@<TRIPOS>MOLECULE
tmp/4addC01.pdb
 113 107 0 0 0
SMALL
GASTEIGER

@<TRIPOS>ATOM
      1  N        -56.5240   54.6990  -25.3790 N.3    16  TYR16      -0.1227
      2  CA       -57.0320   55.6450  -24.3820 C.3    16  TYR16       0.1736
      3  C        -58.5390   55.7470  -24.3410 C.2    16  TYR16       0.2595
      4  O        -59.1940   55.7340  -25.3950 O.2    16  TYR16      -0.2718
      5  CB       -56.5050   57.0570  -24.6510 C.3    16  TYR16       0.0548
      6  CG       -55.0590   57.0940  -24.9620 C.ar   16  TYR16      -0.0200
      7  CD1      -54.1030   56.7770  -23.9700 C.ar   16  TYR16      -0.0009
      8  CD2      -54.6220   57.4140  -26.2450 C.ar   16  TYR16      -0.0009
      9  CE1      -52.7500   56.7940  -24.2630 C.ar   16  TYR16       0.0417
     10  CE2      -53.2710   57.4260  -26.5580 C.ar   16  TYR16       0.0417
     11  CZ       -52.3370   57.1250  -25.5690 C.ar   16  TYR16       0.1957
     12  OH       -50.9900   57.1560  -25.8760 O.3    16  TYR16      -0.2866
     13  N        -59.1050   55.9000  -23.1480 N.am   17  ALA17      -0.1966
     14  CA       -60.5030   56.3150  -23.0900 C.3    17  ALA17       0.1713
     15  C        -60.5590   57.8000  -22.7020 C.2    17  ALA17       0.2458
     16  O        -60.7250   58.0850  -21.5220 O.2    17  ALA17      -0.2730
     17  CB       -61.2560   55.4670  -22.0640 C.3    17  ALA17       0.0333
     18  N        -60.3860   58.7550  -23.6540 N.am   18  PRO18      -0.2727
     19  CA       -60.3110   60.1640  -23.2120 C.3    18  PRO18       0.1402
     20  C        -61.6110   60.7940  -22.8250 C.2    18  PRO18       0.2269
     21  O        -62.6630   60.2080  -23.0700 O.2    18  PRO18      -0.2865
     22  CB       -59.7350   60.8970  -24.4280 C.3    18  PRO18       0.0296
     23  CG       -58.8220   59.8970  -24.9930 C.3    18  PRO18       0.0237
     24  CD       -59.7130   58.6390  -24.9550 C.3    18  PRO18       0.0939
     25  N        -50.5090   65.5130  -16.8430 N.3    46  ILE46      -0.1245
     26  CA       -49.8530   64.4220  -16.1350 C.3    46  ILE46       0.1561
     27  C        -48.4300   64.8520  -15.7660 C.2    46  ILE46       0.2260
     28  O        -47.4720   64.2190  -16.1290 O.2    46  ILE46      -0.2867
     29  CB       -49.8470   63.1280  -16.9710 C.3    46  ILE46       0.0252
     30  CG1      -51.1540   63.0560  -17.8160 C.3    46  ILE46       0.0019
     31  CG2      -49.5170   61.9340  -16.0810 C.3    46  ILE46       0.0019
     32  CD1      -51.2570   61.9180  -18.8380 C.3    46  ILE46       0.0001
     33  N        -43.5440   52.4660  -12.7940 N.3   136  PHE136     -0.1241
     34  CA       -43.8350   52.7440  -14.1800 C.3   136  PHE136      0.1605
     35  C        -42.6080   53.4190  -14.7820 C.2   136  PHE136      0.2264
     36  O        -42.0490   54.4180  -14.2010 O.2   136  PHE136     -0.2867
     37  CB       -45.1010   53.6150  -14.3220 C.3   136  PHE136      0.0534
     38  CG       -45.4790   53.8540  -15.7580 C.ar  136  PHE136     -0.0203
     39  CD1      -44.9190   54.9100  -16.4680 C.ar  136  PHE136     -0.0042
     40  CD2      -46.3400   52.9530  -16.4250 C.ar  136  PHE136     -0.0042
     41  CE1      -45.2400   55.0930  -17.8040 C.ar  136  PHE136     -0.0003
     42  CE2      -46.6670   53.1420  -17.7630 C.ar  136  PHE136     -0.0003
     43  CZ       -46.1140   54.2170  -18.4540 C.ar  136  PHE136     -0.0000
     44  N        -43.2310   52.6260  -22.0220 N.3   139  ARG139     -0.1245
     45  CA       -44.1250   51.7100  -22.7960 C.3   139  ARG139      0.1563
     46  C        -43.3830   50.8670  -23.8440 C.2   139  ARG139      0.2260
     47  O        -43.9350   49.9200  -24.4520 O.2   139  ARG139     -0.2867
     48  CB       -45.2870   52.4960  -23.4400 C.3   139  ARG139      0.0307
     49  CG       -46.3430   52.9880  -22.4480 C.3   139  ARG139      0.0489
     50  CD       -47.1640   51.8460  -21.8350 C.3   139  ARG139      0.2205
     51  NE       -48.3710   52.3150  -21.1360 N.pl3 139  ARG139     -0.0865
     52  CZ       -49.4270   51.5470  -20.8190 C.cat 139  ARG139      0.5346
     53  NH1      -49.4590   50.2360  -21.1240 N.pl3 139  ARG139      0.1354
     54  NH2      -50.4690   52.0940  -20.1930 N.pl3 139  ARG139      0.1354
     55  N        -47.6250   56.5510  -11.3710 N.3   193  GLU193     -0.1245
     56  CA       -48.7830   55.7350  -11.7610 C.3   193  GLU193      0.1567
     57  C        -49.1290   54.6920  -10.7130 C.2   193  GLU193      0.2260
     58  O        -50.2500   54.1930  -10.6720 O.2   193  GLU193     -0.2867
     59  CB       -48.6150   55.0400  -13.1300 C.3   193  GLU193      0.0388
     60  CG       -48.1240   55.9760  -14.2250 C.3   193  GLU193      0.1160
     61  CD       -49.0710   57.1510  -14.5430 C.2   193  GLU193      0.3649
     62  OE1      -50.2840   56.8640  -14.7370 O.co2 193  GLU193     -0.2457
     63  OE2      -48.5940   58.3510  -14.6170 O.co2 193  GLU193     -0.2457
     64  N        -38.7660   61.0660  -14.1780 N.3   223  VAL223     -0.1231
     65  CA       -39.4850   61.7550  -15.2420 C.3   223  VAL223      0.1692
     66  C        -40.7590   62.4480  -14.7050 C.2   223  VAL223      0.2591
     67  O        -41.1480   63.5110  -15.1810 O.2   223  VAL223     -0.2718
     68  CB       -39.7010   60.9330  -16.5590 C.3   223  VAL223      0.0266
     69  CG1      -38.5720   59.9400  -16.8400 C.3   223  VAL223      0.0020
     70  CG2      -41.0810   60.3140  -16.6370 C.3   223  VAL223      0.0020
     71  N        -41.3860   61.8550  -13.6810 N.am  224  GLN224     -0.1979
     72  CA       -42.4970   62.4950  -12.9940 C.3   224  GLN224      0.1601
     73  C        -42.0830   63.3790  -11.8090 C.2   224  GLN224      0.2287
     74  O        -42.7300   64.3960  -11.5680 O.2   224  GLN224     -0.2864
     75  CB       -43.5490   61.4660  -12.5880 C.3   224  GLN224      0.0394
     76  CG       -44.8610   62.0720  -12.1790 C.3   224  GLN224      0.0908
     77  CD       -45.9850   61.0650  -12.2520 C.2   224  GLN224      0.2608
     78  OE1      -47.0930   61.3260  -11.7510 O.2   224  GLN224     -0.2717
     79  NE2      -45.7280   59.9060  -12.8990 N.am  224  GLN224     -0.0878
     80  N        -41.1340   64.6780  -19.0840 N.3   250  LYS250     -0.1245
     81  CA       -42.3620   65.4400  -18.6340 C.3   250  LYS250      0.1561
     82  C        -42.1270   66.9850  -18.5320 C.2   250  LYS250      0.2260
     83  O        -41.9670   67.6460  -19.5620 O.2   250  LYS250     -0.2867
     84  CB       -43.0060   64.8310  -17.3780 C.3   250  LYS250      0.0271
     85  CG       -44.0180   63.7180  -17.6820 C.3   250  LYS250      0.0035
     86  CD       -44.0700   62.7180  -16.5470 C.3   250  LYS250      0.0206
     87  CE       -45.3340   61.8900  -16.3330 C.3   250  LYS250      0.1093
     88  NZ       -46.1040   61.4250  -17.5120 N.3   250  LYS250     -0.1314
     89  N        -61.5430   56.5190  -10.7000 N.3   350  LYS350     -0.1245
     90  CA       -61.8720   56.8680  -12.0600 C.3   350  LYS350      0.1561
     91  C        -63.1620   57.6650  -12.0520 C.2   350  LYS350      0.2260
     92  O        -63.2800   58.7030  -12.7380 O.2   350  LYS350     -0.2867
     93  CB       -62.0180   55.6300  -12.9150 C.3   350  LYS350      0.0271
     94  CG       -62.3560   55.9820  -14.3550 C.3   350  LYS350      0.0035
     95  CD       -61.1880   55.7800  -15.3140 C.3   350  LYS350      0.0206
     96  CE       -60.4170   57.0600  -15.6420 C.3   350  LYS350      0.1093
     97  NZ       -59.1160   56.6680  -16.2880 N.3   350  LYS350     -0.1314
     98  N        -56.2280   63.7210  -11.9020 N.3   364  LEU364     -0.1231
     99  CA       -55.7910   62.4190  -12.4160 C.3   364  LEU364      0.1693
    100  C        -56.1890   61.2910  -11.4530 C.2   364  LEU364      0.2591
    101  O        -56.6350   61.5410  -10.3410 O.2   364  LEU364     -0.2718
    102  CB       -54.2710   62.4260  -12.6110 C.3   364  LEU364      0.0284
    103  CG       -53.7090   63.4040  -13.6480 C.3   364  LEU364      0.0019
    104  CD1      -52.4380   64.1250  -13.1810 C.3   364  LEU364      0.0001
    105  CD2      -53.5290   62.7090  -14.9840 C.3   364  LEU364      0.0001
    106  N        -56.0330   60.0470  -11.8840 N.am  365  ILE365     -0.1980
    107  CA       -56.0180   58.9180  -10.9520 C.3   365  ILE365      0.1595
    108  C        -54.5790   58.3860  -10.9220 C.2   365  ILE365      0.2287
    109  O        -53.7030   58.8990  -11.6190 O.2   365  ILE365     -0.2864
    110  CB       -57.0120   57.8050  -11.3360 C.3   365  ILE365      0.0276
    111  CG1      -56.5520   57.0860  -12.6150 C.3   365  ILE365      0.0022
    112  CG2      -58.4090   58.3780  -11.4920 C.3   365  ILE365      0.0022
    113  CD1      -57.3260   55.8200  -12.9160 C.3   365  ILE365      0.0001
@<TRIPOS>BOND
     1    10     8   ar
     2    10    11   ar
     3     8     6   ar
     4    12    11    1
     5    11     9   ar
     6     4     3    2
     7     1     2    1
     8    23    24    1
     9    23    22    1
    10     6     5    1
    11     6     7   ar
    12    24    18    1
    13     5     2    1
    14    47    46    2
    15    22    19    1
    16     2     3    1
    17     3    13   am
    18     9     7   ar
    19    46    45    1
    20    18    19    1
    21    18    15   am
    22    48    45    1
    23    48    49    1
    24    19    20    1
    25    13    14    1
    26    14    15    1
    27    14    17    1
    28    21    20    2
    29    45    44    1
    30    15    16    2
    31    49    50    1
    32    50    51    1
    33    51    52    2
    34    53    52    1
    35    52    54    1
    36    83    82    2
    37    80    81    1
    38    32    30    1
    39    81    82    1
    40    81    84    1
    41    43    41   ar
    42    43    42   ar
    43    30    29    1
    44    41    39   ar
    45    42    40   ar
    46    85    84    1
    47    85    86    1
    48    88    87    1
    49    29    26    1
    50    29    31    1
    51    25    26    1
    52    69    68    1
    53    70    68    1
    54    68    65    1
    55    86    87    1
    56    39    38   ar
    57    40    38   ar
    58    97    96    1
    59    26    27    1
    60    28    27    2
    61    38    37    1
    62    96    95    1
    63    95    94    1
    64    65    66    1
    65    65    64    1
    66    67    66    2
    67   105   103    1
    68    35    36    2
    69    35    34    1
    70    62    61   ar
    71    66    71   am
    72    63    61   ar
    73    61    60    1
    74    94    93    1
    75    37    34    1
    76    60    59    1
    77    34    33    1
    78    71    72    1
    79   103   104    1
    80   103   102    1
    81    59    56    1
    82    72    75    1
    83    72    73    1
    84   113   111    1
    85    93    90    1
    86    79    77   am
    87    92    91    2
    88   111   110    1
    89   102    99    1
    90    75    76    1
    91    99    98    1
    92    99   100    1
    93    77    76    1
    94    77    78    2
    95    90    91    1
    96    90    89    1
    97   106   100   am
    98   106   107    1
    99    73    74    2
   100    56    55    1
   101    56    57    1
   102   109   108    2
   103   112   110    1
   104   100   101    2
   105   110   107    1
   106   107   108    1
   107    57    58    2
