@<TRIPOS>MOLECULE
tmp/4adfD00.pdb
 111 111 0 0 0
SMALL
GASTEIGER

@<TRIPOS>ATOM
      1  N        -47.5910  -59.4300   93.2070 N.3    30  LYS30      -0.1245
      2  CA       -48.7330  -60.3320   93.0630 C.3    30  LYS30       0.1561
      3  C        -48.2130  -61.7220   92.7320 C.2    30  LYS30       0.2260
      4  O        -47.4340  -61.8900   91.7930 O.2    30  LYS30      -0.2867
      5  CB       -49.6980  -59.9000   91.9550 C.3    30  LYS30       0.0271
      6  CG       -50.8910  -60.8420   91.8510 C.3    30  LYS30       0.0035
      7  CD       -52.0480  -60.2380   91.0780 C.3    30  LYS30       0.0206
      8  CE       -53.3160  -61.0670   91.2550 C.3    30  LYS30       0.1093
      9  NZ       -53.1960  -62.4780   90.7870 N.3    30  LYS30      -0.1314
     10  N        -44.7610  -61.2420   90.3470 N.3    38  VAL38      -0.1245
     11  CA       -44.9250  -60.0690   89.4870 C.3    38  VAL38       0.1561
     12  C        -44.8630  -58.7930   90.3210 C.2    38  VAL38       0.2260
     13  O        -45.6200  -58.6330   91.2760 O.2    38  VAL38      -0.2867
     14  CB       -46.2600  -60.0930   88.7220 C.3    38  VAL38       0.0252
     15  CG1      -46.2050  -59.1180   87.5530 C.3    38  VAL38       0.0019
     16  CG2      -46.5800  -61.5000   88.2350 C.3    38  VAL38       0.0019
     17  N        -46.4610  -49.7690   85.4190 N.3    52  TRP52      -0.1228
     18  CA       -47.4500  -49.3350   84.4310 C.3    52  TRP52       0.1722
     19  C        -48.6020  -50.3130   84.1530 C.2    52  TRP52       0.2437
     20  O        -49.7270  -49.8760   83.9050 O.2    52  TRP52      -0.2733
     21  CB       -46.7550  -48.9190   83.1330 C.3    52  TRP52       0.0563
     22  CG       -45.9700  -47.6600   83.3190 C.ar   52  TRP52       0.0003
     23  CD1      -44.6130  -47.5360   83.3890 C.ar   52  TRP52       0.0946
     24  CD2      -46.5040  -46.3420   83.4950 C.ar   52  TRP52       0.0152
     25  NE1      -44.2690  -46.2190   83.5840 N.ar   52  TRP52      -0.2442
     26  CE2      -45.4120  -45.4660   83.6520 C.ar   52  TRP52       0.0810
     27  CE3      -47.8010  -45.8160   83.5270 C.ar   52  TRP52       0.0012
     28  CZ2      -45.5760  -44.0920   83.8380 C.ar   52  TRP52       0.0191
     29  CZ3      -47.9620  -44.4530   83.7110 C.ar   52  TRP52       0.0001
     30  CH2      -46.8570  -43.6070   83.8640 C.ar   52  TRP52       0.0015
     31  N        -48.3350  -51.6310   84.1850 N.am   53  PRO53      -0.2718
     32  CA       -49.4590  -52.5590   84.0090 C.3    53  PRO53       0.1535
     33  C        -50.4660  -52.5270   85.1590 C.2    53  PRO53       0.2598
     34  O        -51.6550  -52.7470   84.9210 O.2    53  PRO53      -0.2715
     35  CB       -48.7750  -53.9340   83.9320 C.3    53  PRO53       0.0310
     36  CG       -47.3400  -53.6410   83.6230 C.3    53  PRO53       0.0237
     37  CD       -47.0560  -52.3480   84.3070 C.3    53  PRO53       0.0939
     38  N        -50.0000  -52.2580   86.3770 N.am   54  PHE54      -0.1974
     39  CA       -50.8860  -52.1530   87.5380 C.3    54  PHE54       0.1639
     40  C        -51.2820  -50.7140   87.8800 C.2    54  PHE54       0.2290
     41  O        -51.9870  -50.4880   88.8660 O.2    54  PHE54      -0.2864
     42  CB       -50.2250  -52.7980   88.7590 C.3    54  PHE54       0.0560
     43  CG       -49.8850  -54.2500   88.5710 C.ar   54  PHE54      -0.0200
     44  CD1      -48.7010  -54.6250   87.9600 C.ar   54  PHE54      -0.0042
     45  CD2      -50.7530  -55.2400   89.0070 C.ar   54  PHE54      -0.0042
     46  CE1      -48.3870  -55.9590   87.7850 C.ar   54  PHE54      -0.0003
     47  CE2      -50.4450  -56.5770   88.8350 C.ar   54  PHE54      -0.0003
     48  CZ       -49.2600  -56.9370   88.2240 C.ar   54  PHE54      -0.0000
     49  N        -54.9140  -49.2810   89.1540 N.3    57  PHE57      -0.1227
     50  CA       -55.7110  -50.3190   89.7950 C.3    57  PHE57       0.1736
     51  C        -55.2260  -50.5050   91.2300 C.2    57  PHE57       0.2595
     52  O        -56.0160  -50.7680   92.1350 O.2    57  PHE57      -0.2718
     53  CB       -55.5930  -51.6180   89.0170 C.3    57  PHE57       0.0547
     54  CG       -56.1580  -51.5300   87.6350 C.ar   57  PHE57      -0.0202
     55  CD1      -57.5250  -51.6010   87.4260 C.ar   57  PHE57      -0.0042
     56  CD2      -55.3260  -51.3420   86.5470 C.ar   57  PHE57      -0.0042
     57  CE1      -58.0490  -51.5080   86.1510 C.ar   57  PHE57      -0.0003
     58  CE2      -55.8420  -51.2480   85.2720 C.ar   57  PHE57      -0.0003
     59  CZ       -57.2050  -51.3300   85.0710 C.ar   57  PHE57      -0.0000
     60  N        -53.9140  -50.3820   91.4180 N.am   58  PHE58      -0.1976
     61  CA       -53.3020  -50.3950   92.7370 C.3    58  PHE58       0.1639
     62  C        -52.6340  -49.0630   93.0700 C.2    58  PHE58       0.2290
     63  O        -52.3820  -48.2380   92.1890 O.2    58  PHE58      -0.2864
     64  CB       -52.2490  -51.5000   92.8190 C.3    58  PHE58       0.0560
     65  CG       -52.8030  -52.8890   92.6650 C.ar   58  PHE58      -0.0200
     66  CD1      -53.2340  -53.3480   91.4320 C.ar   58  PHE58      -0.0042
     67  CD2      -52.8740  -53.7430   93.7540 C.ar   58  PHE58      -0.0042
     68  CE1      -53.7350  -54.6300   91.2920 C.ar   58  PHE58      -0.0003
     69  CE2      -53.3700  -55.0220   93.6210 C.ar   58  PHE58      -0.0003
     70  CZ       -53.8020  -55.4680   92.3910 C.ar   58  PHE58      -0.0000
     71  N        -61.3600  -56.4710   91.0520 N.3    75  ASN75      -0.1240
     72  CA       -61.9390  -57.3250   90.0240 C.3    75  ASN75       0.1653
     73  C        -61.4550  -58.7600   90.2170 C.2    75  ASN75       0.2266
     74  O        -60.6270  -59.0200   91.0920 O.2    75  ASN75      -0.2867
     75  CB       -61.7370  -56.7260   88.6030 C.3    75  ASN75       0.1155
     76  CG       -60.2820  -56.7940   88.0740 C.2    75  ASN75       0.2627
     77  OD1      -59.3960  -57.4110   88.6640 O.2    75  ASN75      -0.2716
     78  ND2      -60.0510  -56.0570   86.9630 N.am   75  ASN75      -0.0877
     79  N        -59.6260  -60.7910   88.6460 N.3    77  SER77      -0.1202
     80  CA       -58.1970  -60.9920   88.4420 C.3    77  SER77       0.2020
     81  C        -57.4120  -60.8290   89.7420 C.2    77  SER77       0.2618
     82  O        -56.3740  -61.4630   89.9300 O.2    77  SER77      -0.2717
     83  CB       -57.6660  -60.0060   87.4010 C.3    77  SER77       0.2103
     84  OG       -56.2870  -59.7610   87.5890 O.3    77  SER77      -0.2182
     85  N        -57.9130  -59.9810   90.6360 N.am   78  HIS78      -0.1975
     86  CA       -57.2160  -59.6650   91.8790 C.3    78  HIS78       0.1656
     87  C        -57.3320  -60.7230   92.9830 C.2    78  HIS78       0.2291
     88  O        -56.6400  -60.6210   93.9950 O.2    78  HIS78      -0.2864
     89  CB       -57.6400  -58.2740   92.3730 C.3    78  HIS78       0.0771
     90  CG       -57.4450  -57.2000   91.3490 C.ar   78  HIS78       0.0820
     91  ND1      -58.1720  -56.0300   91.3370 N.ar   78  HIS78      -0.2267
     92  CD2      -56.6110  -57.1330   90.2840 C.ar   78  HIS78       0.1154
     93  CE1      -57.7860  -55.2820   90.3180 C.ar   78  HIS78       0.1986
     94  NE2      -56.8390  -55.9280   89.6630 N.ar   78  HIS78      -0.2212
     95  N        -67.0470  -62.8870   80.6550 N.3   146  LYS146     -0.1231
     96  CA       -66.0160  -61.9290   80.2680 C.3   146  LYS146      0.1693
     97  C        -65.3730  -61.2950   81.4970 C.2   146  LYS146      0.2592
     98  O        -64.1530  -61.1460   81.5650 O.2   146  LYS146     -0.2718
     99  CB       -66.6050  -60.8300   79.3800 C.3   146  LYS146      0.0285
    100  CG       -67.0550  -61.1930   78.0190 C.3   146  LYS146      0.0035
    101  CD       -66.0430  -61.8660   77.1310 C.3   146  LYS146      0.0206
    102  CE       -66.7330  -62.4230   75.8570 C.3   146  LYS146      0.1093
    103  NZ       -68.1640  -62.9200   76.1650 N.3   146  LYS146     -0.1314
    104  N        -66.2050  -60.9260   82.4670 N.am  147  ASP147     -0.1974
    105  CA       -65.7350  -60.2800   83.6920 C.3   147  ASP147      0.1709
    106  C        -64.9810  -61.2250   84.6390 C.2   147  ASP147      0.2293
    107  O        -64.5570  -60.8060   85.7150 O.2   147  ASP147     -0.2864
    108  CB       -66.8770  -59.5660   84.4300 C.3   147  ASP147      0.1436
    109  CG       -67.9570  -60.5220   84.9040 C.2   147  ASP147      0.3671
    110  OD1      -68.5480  -61.2220   84.0570 O.co2 147  ASP147     -0.2456
    111  OD2      -68.2170  -60.5700   86.1240 O.co2 147  ASP147     -0.2456
@<TRIPOS>BOND
     1   102   103    1
     2   102   101    1
     3   101   100    1
     4   100    99    1
     5    99    96    1
     6    96    95    1
     7    96    97    1
     8    97    98    2
     9    97   104   am
    10   104   105    1
    11    21    22    1
    12    21    18    1
    13    22    23   ar
    14    22    24   ar
    15    23    25   ar
    16    24    27   ar
    17    24    26   ar
    18    27    29   ar
    19    25    26   ar
    20    36    35    1
    21    36    37    1
    22    26    28   ar
    23   105   108    1
    24   105   106    1
    25    29    30   ar
    26    28    30   ar
    27    20    19    2
    28    35    32    1
    29    32    31    1
    30    32    33    1
    31   110   109   ar
    32    19    31   am
    33    19    18    1
    34    31    37    1
    35   108   109    1
    36    18    17    1
    37   106   107    2
    38   109   111   ar
    39    34    33    2
    40    59    58   ar
    41    59    57   ar
    42    33    38   am
    43    58    56   ar
    44    57    55   ar
    45    38    39    1
    46    56    54   ar
    47    78    76   am
    48    83    84    1
    49    83    80    1
    50    55    54   ar
    51    39    40    1
    52    39    42    1
    53    15    14    1
    54    54    53    1
    55    46    44   ar
    56    46    48   ar
    57    40    41    2
    58    44    43   ar
    59    76    75    1
    60    76    77    2
    61    48    47   ar
    62    16    14    1
    63    80    79    1
    64    80    81    1
    65    43    42    1
    66    43    45   ar
    67    75    72    1
    68    14    11    1
    69    47    45   ar
    70    53    50    1
    71    49    50    1
    72    11    12    1
    73    11    10    1
    74    94    92   ar
    75    94    93   ar
    76    81    82    2
    77    81    85   am
    78    50    51    1
    79    72    73    1
    80    72    71    1
    81    73    74    2
    82    92    90   ar
    83    93    91   ar
    84    12    13    2
    85    85    86    1
    86     9     8    1
    87     7     8    1
    88     7     6    1
    89    51    60   am
    90    51    52    2
    91    68    66   ar
    92    68    70   ar
    93    91    90   ar
    94    90    89    1
    95    60    61    1
    96    66    65   ar
    97     4     3    2
    98     6     5    1
    99    86    89    1
   100    86    87    1
   101     5     2    1
   102    63    62    2
   103    70    69   ar
   104    65    64    1
   105    65    67   ar
   106     3     2    1
   107    61    64    1
   108    61    62    1
   109    87    88    2
   110     2     1    1
   111    69    67   ar
