@<TRIPOS>MOLECULE
tmp/4adfM00.pdb
 119 120 0 0 0
SMALL
GASTEIGER

@<TRIPOS>ATOM
      1  N       -133.7840  -18.3060   40.6740 N.3    30  LYS30      -0.1245
      2  CA      -132.9920  -17.4410   41.5490 C.3    30  LYS30       0.1561
      3  C       -133.5820  -16.0430   41.4980 C.2    30  LYS30       0.2260
      4  O       -133.7550  -15.4790   40.4170 O.2    30  LYS30      -0.2867
      5  CB      -131.5200  -17.3710   41.1360 C.3    30  LYS30       0.0271
      6  CG      -130.6890  -16.4810   42.0620 C.3    30  LYS30       0.0035
      7  CD      -129.1950  -16.7330   41.9230 C.3    30  LYS30       0.0206
      8  CE      -128.4030  -16.0680   43.0470 C.3    30  LYS30       0.1093
      9  NZ      -128.5670  -14.5850   43.0950 N.3    30  LYS30      -0.1314
     10  N       -134.9950  -15.4670   37.6710 N.3    38  VAL38      -0.1245
     11  CA      -134.1200  -16.1370   36.7090 C.3    38  VAL38       0.1561
     12  C       -134.2980  -17.6500   36.7940 C.2    38  VAL38       0.2260
     13  O       -134.1200  -18.2320   37.8590 O.2    38  VAL38      -0.2867
     14  CB      -132.6290  -15.8020   36.9570 C.3    38  VAL38       0.0252
     15  CG1     -131.7900  -16.1490   35.7370 C.3    38  VAL38       0.0019
     16  CG2     -132.4460  -14.3340   37.3320 C.3    38  VAL38       0.0019
     17  N       -128.2600  -23.5900   30.8250 N.3    52  TRP52      -0.1228
     18  CA      -126.8310  -23.5580   30.5180 C.3    52  TRP52       0.1722
     19  C       -125.9840  -22.5740   31.3350 C.2    52  TRP52       0.2437
     20  O       -124.8310  -22.8730   31.6480 O.2    52  TRP52      -0.2733
     21  CB      -126.6180  -23.3510   29.0190 C.3    52  TRP52       0.0563
     22  CG      -127.0480  -24.5490   28.2400 C.ar   52  TRP52       0.0003
     23  CD1     -128.1610  -24.6710   27.4630 C.ar   52  TRP52       0.0946
     24  CD2     -126.3800  -25.8150   28.1890 C.ar   52  TRP52       0.0152
     25  NE1     -128.2210  -25.9320   26.9190 N.ar   52  TRP52      -0.2442
     26  CE2     -127.1390  -26.6540   27.3510 C.ar   52  TRP52       0.0810
     27  CE3     -125.2100  -26.3180   28.7680 C.ar   52  TRP52       0.0012
     28  CZ2     -126.7660  -27.9670   27.0750 C.ar   52  TRP52       0.0191
     29  CZ3     -124.8410  -27.6210   28.4920 C.ar   52  TRP52       0.0001
     30  CH2     -125.6160  -28.4310   27.6540 C.ar   52  TRP52       0.0015
     31  N       -126.5380  -21.4020   31.6820 N.am   53  PRO53      -0.2718
     32  CA      -125.7520  -20.5080   32.5390 C.3    53  PRO53       0.1535
     33  C       -125.5290  -21.0580   33.9480 C.2    53  PRO53       0.2598
     34  O       -124.4890  -20.7780   34.5460 O.2    53  PRO53      -0.2715
     35  CB      -126.5990  -19.2280   32.5870 C.3    53  PRO53       0.0310
     36  CG      -127.5380  -19.3370   31.4240 C.3    53  PRO53       0.0237
     37  CD      -127.8170  -20.7930   31.2910 C.3    53  PRO53       0.0939
     38  N       -126.4870  -21.8250   34.4660 N.am   54  PHE54      -0.1974
     39  CA      -126.3530  -22.4440   35.7850 C.3    54  PHE54       0.1639
     40  C       -125.8660  -23.8930   35.7310 C.2    54  PHE54       0.2290
     41  O       -125.7470  -24.5430   36.7710 O.2    54  PHE54      -0.2864
     42  CB      -127.6890  -22.3880   36.5290 C.3    54  PHE54       0.0560
     43  CG      -128.2170  -20.9970   36.7280 C.ar   54  PHE54      -0.0200
     44  CD1     -128.9550  -20.3750   35.7360 C.ar   54  PHE54      -0.0042
     45  CD2     -127.9780  -20.3120   37.9080 C.ar   54  PHE54      -0.0042
     46  CE1     -129.4430  -19.0960   35.9150 C.ar   54  PHE54      -0.0003
     47  CE2     -128.4630  -19.0310   38.0930 C.ar   54  PHE54      -0.0003
     48  CZ      -129.1980  -18.4230   37.0950 C.ar   54  PHE54      -0.0000
     49  N       -123.2660  -25.8190   38.2480 N.3    57  PHE57      -0.1227
     50  CA      -123.2040  -25.1880   39.5580 C.3    57  PHE57       0.1736
     51  C       -124.4040  -25.6290   40.3860 C.2    57  PHE57       0.2595
     52  O       -124.3000  -25.8120   41.5960 O.2    57  PHE57      -0.2718
     53  CB      -123.1890  -23.6790   39.4060 C.3    57  PHE57       0.0547
     54  CG      -121.9740  -23.1730   38.7010 C.ar   57  PHE57      -0.0202
     55  CD1     -120.7680  -23.0560   39.3680 C.ar   57  PHE57      -0.0042
     56  CD2     -122.0320  -22.8360   37.3630 C.ar   57  PHE57      -0.0042
     57  CE1     -119.6430  -22.5990   38.7150 C.ar   57  PHE57      -0.0003
     58  CE2     -120.9130  -22.3770   36.7040 C.ar   57  PHE57      -0.0003
     59  CZ      -119.7150  -22.2570   37.3790 C.ar   57  PHE57      -0.0000
     60  N       -125.5440  -25.7870   39.7190 N.am   58  PHE58      -0.1976
     61  CA      -126.7420  -26.3320   40.3350 C.3    58  PHE58       0.1639
     62  C       -127.1400  -27.6560   39.6980 C.2    58  PHE58       0.2290
     63  O       -126.6890  -28.0010   38.6040 O.2    58  PHE58      -0.2864
     64  CB      -127.9070  -25.3550   40.1970 C.3    58  PHE58       0.0560
     65  CG      -127.7020  -24.0530   40.9170 C.ar   58  PHE58      -0.0200
     66  CD1     -126.8100  -23.1080   40.4380 C.ar   58  PHE58      -0.0042
     67  CD2     -128.4160  -23.7690   42.0690 C.ar   58  PHE58      -0.0042
     68  CE1     -126.6300  -21.9080   41.1010 C.ar   58  PHE58      -0.0003
     69  CE2     -128.2410  -22.5750   42.7340 C.ar   58  PHE58      -0.0003
     70  CZ      -127.3470  -21.6420   42.2510 C.ar   58  PHE58      -0.0000
     71  N       -120.7640  -20.3430   46.0410 N.3    75  ASN75      -0.1225
     72  CA      -119.9520  -19.1390   45.9330 C.3    75  ASN75       0.1785
     73  C       -120.7580  -17.8990   46.3100 C.2    75  ASN75       0.2597
     74  O       -121.9580  -17.9980   46.5670 O.2    75  ASN75      -0.2718
     75  CB      -119.2470  -19.0690   44.5610 C.3    75  ASN75       0.1169
     76  CG      -120.1940  -18.7510   43.3940 C.2    75  ASN75       0.2627
     77  OD1     -121.3680  -18.4330   43.5780 O.2    75  ASN75      -0.2716
     78  ND2     -119.6710  -18.9180   42.1710 N.am   75  ASN75      -0.0877
     79  N       -120.1100  -16.7400   46.3540 N.am   76  ILE76      -0.1966
     80  CA      -120.7350  -15.5630   46.9480 C.3    76  ILE76       0.1727
     81  C       -121.9140  -15.0940   46.1070 C.2    76  ILE76       0.2617
     82  O       -122.8690  -14.5180   46.6300 O.2    76  ILE76      -0.2715
     83  CB      -119.7120  -14.4160   47.1440 C.3    76  ILE76       0.0290
     84  CG1     -118.5610  -14.8580   48.0620 C.3    76  ILE76       0.0022
     85  CG2     -120.4040  -13.1520   47.6770 C.3    76  ILE76       0.0023
     86  CD1     -118.7830  -14.5950   49.5340 C.3    76  ILE76       0.0001
     87  N       -121.8540  -15.3650   44.8080 N.am   77  SER77      -0.1936
     88  CA      -122.9620  -15.0620   43.9120 C.3    77  SER77       0.2055
     89  C       -124.2640  -15.7280   44.3590 C.2    77  SER77       0.2643
     90  O       -125.3510  -15.1960   44.1270 O.2    77  SER77      -0.2714
     91  CB      -122.6260  -15.5100   42.4890 C.3    77  SER77       0.2130
     92  OG      -123.7990  -15.7770   41.7490 O.3    77  SER77      -0.2179
     93  N       -124.1500  -16.8880   45.0000 N.am   78  HIS78      -0.1973
     94  CA      -125.3160  -17.6720   45.4070 C.3    78  HIS78       0.1656
     95  C       -126.0380  -17.1930   46.6620 C.2    78  HIS78       0.2291
     96  O       -127.1220  -17.6900   46.9620 O.2    78  HIS78      -0.2864
     97  CB      -124.9340  -19.1560   45.5140 C.3    78  HIS78       0.0771
     98  CG      -124.3370  -19.7030   44.2590 C.ar   78  HIS78       0.0820
     99  ND1     -123.4830  -20.7830   44.2330 N.ar   78  HIS78      -0.2267
    100  CD2     -124.5110  -19.3320   42.9710 C.ar   78  HIS78       0.1154
    101  CE1     -123.1380  -21.0400   42.9830 C.ar   78  HIS78       0.1986
    102  NE2     -123.7490  -20.1730   42.1970 N.ar   78  HIS78      -0.2212
    103  N       -111.8490  -10.4240   44.1630 N.3   151  LYS151     -0.1231
    104  CA      -112.2130  -11.1170   42.9330 C.3   151  LYS151      0.1693
    105  C       -113.2600  -12.1900   43.2110 C.2   151  LYS151      0.2592
    106  O       -114.2330  -12.3270   42.4690 O.2   151  LYS151     -0.2718
    107  CB      -110.9750  -11.7620   42.2880 C.3   151  LYS151      0.0285
    108  CG      -110.2470  -12.7950   43.1720 C.3   151  LYS151      0.0035
    109  CD      -108.7820  -12.9440   42.7710 C.3   151  LYS151      0.0206
    110  CE      -108.0110  -13.9100   43.6790 C.3   151  LYS151      0.1093
    111  NZ      -108.6340  -15.2530   43.8670 N.3   151  LYS151     -0.1314
    112  N       -113.0590  -12.9420   44.2870 N.am  152  ASP152     -0.1974
    113  CA      -113.9680  -14.0220   44.6620 C.3   152  ASP152      0.1709
    114  C       -115.3160  -13.5340   45.2170 C.2   152  ASP152      0.2293
    115  O       -116.1580  -14.3490   45.5890 O.2   152  ASP152     -0.2864
    116  CB      -113.2960  -15.0070   45.6280 C.3   152  ASP152      0.1436
    117  CG      -112.9060  -14.3640   46.9470 C.2   152  ASP152      0.3671
    118  OD1     -112.1230  -13.3910   46.9270 O.co2 152  ASP152     -0.2456
    119  OD2     -113.3760  -14.8340   48.0030 O.co2 152  ASP152     -0.2456
@<TRIPOS>BOND
     1    25    26   ar
     2    25    23   ar
     3    28    26   ar
     4    28    30   ar
     5    26    24   ar
     6    23    22   ar
     7    30    29   ar
     8    24    22   ar
     9    24    27   ar
    10    22    21    1
    11    29    27   ar
    12    21    18    1
    13    18    17    1
    14    18    19    1
    15    37    36    1
    16    37    31    1
    17    19    20    2
    18    19    31   am
    19    36    35    1
    20    31    32    1
    21    32    35    1
    22    32    33    1
    23    33    38   am
    24    33    34    2
    25    38    39    1
    26    40    39    1
    27    40    41    2
    28    44    46   ar
    29    44    43   ar
    30    15    14    1
    31    39    42    1
    32    46    48   ar
    33    42    43    1
    34    58    56   ar
    35    58    59   ar
    36    11    12    1
    37    11    14    1
    38    11    10    1
    39    43    45   ar
    40    12    13    2
    41    14    16    1
    42    48    47   ar
    43    56    54   ar
    44    59    57   ar
    45    45    47   ar
    46    49    50    1
    47    63    62    2
    48    54    55   ar
    49    54    53    1
    50    57    55   ar
    51    53    50    1
    52    50    51    1
    53    62    61    1
    54    60    61    1
    55    60    51   am
    56    64    61    1
    57    64    65    1
    58    51    52    2
    59     4     3    2
    60    66    65   ar
    61    66    68   ar
    62     1     2    1
    63    65    67   ar
    64    68    70   ar
    65     5     2    1
    66     5     6    1
    67     3     2    1
    68    92    91    1
    69     7     6    1
    70     7     8    1
    71    67    69   ar
    72    78    76   am
    73   102   100   ar
    74   102   101   ar
    75    70    69   ar
    76   107   104    1
    77   107   108    1
    78   106   105    2
    79    91    88    1
    80   109   108    1
    81   109   110    1
    82   104   105    1
    83   104   103    1
    84   100    98   ar
    85   101    99   ar
    86     8     9    1
    87   105   112   am
    88    76    77    2
    89    76    75    1
    90   110   111    1
    91    88    89    1
    92    88    87    1
    93    90    89    2
    94    99    98   ar
    95    98    97    1
    96   112   113    1
    97    89    93   am
    98    75    72    1
    99   113   114    1
   100   113   116    1
   101    87    81   am
   102    93    94    1
   103   114   115    2
   104    94    97    1
   105    94    95    1
   106   116   117    1
   107    72    71    1
   108    72    73    1
   109    81    82    2
   110    81    80    1
   111    73    79   am
   112    73    74    2
   113    79    80    1
   114    95    96    2
   115   118   117   ar
   116   117   119   ar
   117    80    83    1
   118    83    85    1
   119    83    84    1
   120    84    86    1
