@<TRIPOS>MOLECULE
tmp/4adqA00.pdb
 103 106 0 0 0
SMALL
GASTEIGER

@<TRIPOS>ATOM
      1  N        -28.6720    3.2420  -51.2220 N.3    52  TRP52      -0.1228
      2  CA       -27.6860    3.0950  -50.1570 C.3    52  TRP52       0.1722
      3  C        -26.5220    4.0840  -50.2240 C.2    52  TRP52       0.2437
      4  O        -26.0560    4.5600  -49.1880 O.2    52  TRP52      -0.2733
      5  CB       -27.1890    1.6530  -50.0870 C.3    52  TRP52       0.0563
      6  CG       -28.2360    0.7450  -49.5400 C.ar   52  TRP52       0.0003
      7  CD1      -28.9850   -0.1600  -50.2320 C.ar   52  TRP52       0.0946
      8  CD2      -28.6750    0.6760  -48.1800 C.ar   52  TRP52       0.0152
      9  NE1      -29.8570   -0.7980  -49.3830 N.ar   52  TRP52      -0.2442
     10  CE2      -29.6870   -0.3020  -48.1170 C.ar   52  TRP52       0.0810
     11  CE3      -28.3070    1.3430  -47.0070 C.ar   52  TRP52       0.0012
     12  CZ2      -30.3330   -0.6310  -46.9270 C.ar   52  TRP52       0.0191
     13  CZ3      -28.9500    1.0150  -45.8270 C.ar   52  TRP52       0.0001
     14  CH2      -29.9510    0.0370  -45.7960 C.ar   52  TRP52       0.0015
     15  N        -26.0490    4.4020  -51.4380 N.am   53  PRO53      -0.2718
     16  CA       -24.9790    5.3970  -51.5580 C.3    53  PRO53       0.1535
     17  C        -25.3100    6.7160  -50.8610 C.2    53  PRO53       0.2598
     18  O        -24.4500    7.2820  -50.1870 O.2    53  PRO53      -0.2715
     19  CB       -24.8640    5.6020  -53.0700 C.3    53  PRO53       0.0310
     20  CG       -25.3020    4.3050  -53.6490 C.3    53  PRO53       0.0237
     21  CD       -26.3920    3.8050  -52.7410 C.3    53  PRO53       0.0939
     22  N        -26.5390    7.1940  -51.0280 N.am   54  PHE54      -0.1974
     23  CA       -26.9450    8.4750  -50.4610 C.3    54  PHE54       0.1639
     24  C        -27.5930    8.3300  -49.0850 C.2    54  PHE54       0.2290
     25  O        -27.9220    9.3280  -48.4430 O.2    54  PHE54      -0.2864
     26  CB       -27.9050    9.1850  -51.4150 C.3    54  PHE54       0.0560
     27  CG       -27.3050    9.4790  -52.7560 C.ar   54  PHE54      -0.0200
     28  CD1      -26.5380   10.6140  -52.9530 C.ar   54  PHE54      -0.0042
     29  CD2      -27.5030    8.6160  -53.8200 C.ar   54  PHE54      -0.0042
     30  CE1      -25.9810   10.8850  -54.1860 C.ar   54  PHE54      -0.0003
     31  CE2      -26.9500    8.8810  -55.0570 C.ar   54  PHE54      -0.0003
     32  CZ       -26.1880   10.0170  -55.2410 C.ar   54  PHE54      -0.0000
     33  N        -27.0830   10.7570  -46.0170 N.3    57  PHE57      -0.1227
     34  CA       -26.7750   12.1040  -46.4900 C.3    57  PHE57       0.1736
     35  C        -28.0330   12.7860  -47.0150 C.2    57  PHE57       0.2595
     36  O        -28.1880   14.0010  -46.8940 O.2    57  PHE57      -0.2718
     37  CB       -25.7020   12.0680  -47.5820 C.3    57  PHE57       0.0547
     38  CG       -24.3710   11.5540  -47.1130 C.ar   57  PHE57      -0.0202
     39  CD1      -23.4570   12.4050  -46.5130 C.ar   57  PHE57      -0.0042
     40  CD2      -24.0300   10.2230  -47.2800 C.ar   57  PHE57      -0.0042
     41  CE1      -22.2290   11.9360  -46.0840 C.ar   57  PHE57      -0.0003
     42  CE2      -22.8050    9.7480  -46.8530 C.ar   57  PHE57      -0.0003
     43  CZ       -21.9030   10.6060  -46.2550 C.ar   57  PHE57      -0.0000
     44  N        -28.9290   11.9940  -47.5960 N.am   58  PHE58      -0.1976
     45  CA       -30.1860   12.5100  -48.1250 C.3    58  PHE58       0.1639
     46  C        -31.3840   11.7910  -47.5150 C.2    58  PHE58       0.2290
     47  O        -31.2900   10.6300  -47.1130 O.2    58  PHE58      -0.2864
     48  CB       -30.2260   12.3600  -49.6480 C.3    58  PHE58       0.0560
     49  CG       -29.2330   13.2210  -50.3750 C.ar   58  PHE58      -0.0200
     50  CD1      -27.9110   12.8260  -50.4980 C.ar   58  PHE58      -0.0042
     51  CD2      -29.6260   14.4190  -50.9480 C.ar   58  PHE58      -0.0042
     52  CE1      -26.9980   13.6150  -51.1720 C.ar   58  PHE58      -0.0003
     53  CE2      -28.7170   15.2100  -51.6240 C.ar   58  PHE58      -0.0003
     54  CZ       -27.4020   14.8080  -51.7350 C.ar   58  PHE58      -0.0000
     55  N        -22.0020   18.8390  -48.2630 N.3    75  ASN75      -0.1225
     56  CA       -20.5790   18.9230  -48.5780 C.3    75  ASN75       0.1785
     57  C        -20.3890   19.3130  -50.0420 C.2    75  ASN75       0.2597
     58  O        -21.3360   19.2670  -50.8270 O.2    75  ASN75      -0.2718
     59  CB       -19.8250   17.6430  -48.1730 C.3    75  ASN75       0.1169
     60  CG       -20.2180   16.4260  -48.9960 C.2    75  ASN75       0.2627
     61  OD1      -20.7010   16.5420  -50.1220 O.2    75  ASN75      -0.2716
     62  ND2      -20.0310   15.2390  -48.4070 N.am   75  ASN75      -0.0877
     63  N        -19.1700   19.6970  -50.4060 N.am   76  ILE76      -0.1966
     64  CA       -18.9280   20.3380  -51.6980 C.3    76  ILE76       0.1727
     65  C        -19.4270   19.5090  -52.8770 C.2    76  ILE76       0.2617
     66  O        -19.9010   20.0610  -53.8710 O.2    76  ILE76      -0.2715
     67  CB       -17.4330   20.6600  -51.8930 C.3    76  ILE76       0.0290
     68  CG1      -16.9490   21.6310  -50.8110 C.3    76  ILE76       0.0022
     69  CG2      -17.1920   21.2510  -53.2750 C.3    76  ILE76       0.0023
     70  CD1      -17.6280   22.9880  -50.8490 C.3    76  ILE76       0.0001
     71  N        -19.3200   18.1900  -52.7710 N.am   77  SER77      -0.1936
     72  CA       -19.7700   17.3110  -53.8430 C.3    77  SER77       0.2055
     73  C        -21.2280   17.5860  -54.2090 C.2    77  SER77       0.2643
     74  O        -21.6290   17.4170  -55.3610 O.2    77  SER77      -0.2714
     75  CB       -19.6140   15.8470  -53.4310 C.3    77  SER77       0.2130
     76  OG       -20.3540   14.9960  -54.2870 O.3    77  SER77      -0.2179
     77  N        -22.0150   18.0100  -53.2240 N.am   78  HIS78      -0.1973
     78  CA       -23.4460   18.2100  -53.4240 C.3    78  HIS78       0.1656
     79  C        -23.7820   19.4150  -54.3000 C.2    78  HIS78       0.2291
     80  O        -24.8560   19.4640  -54.8960 O.2    78  HIS78      -0.2864
     81  CB       -24.1550   18.3250  -52.0720 C.3    78  HIS78       0.0771
     82  CG       -24.0060   17.1100  -51.2110 C.ar   78  HIS78       0.0820
     83  ND1      -24.2710   17.1190  -49.8580 N.ar   78  HIS78      -0.2267
     84  CD2      -23.6260   15.8460  -51.5120 C.ar   78  HIS78       0.1154
     85  CE1      -24.0590   15.9130  -49.3630 C.ar   78  HIS78       0.1986
     86  NE2      -23.6680   15.1210  -50.3450 N.ar   78  HIS78      -0.2212
     87  N         -8.6540   18.5060  -50.1630 N.3   145  LYS145     -0.1231
     88  CA        -9.3020   17.2130  -49.9740 C.3   145  LYS145      0.1693
     89  C        -10.7800   17.3570  -49.6030 C.2   145  LYS145      0.2592
     90  O        -11.5900   16.4860  -49.9170 O.2   145  LYS145     -0.2718
     91  CB        -8.5720   16.4140  -48.8930 C.3   145  LYS145      0.0285
     92  CG        -7.1930   15.9550  -49.3230 C.3   145  LYS145      0.0035
     93  CD        -7.2300   15.3710  -50.7430 C.3   145  LYS145      0.0206
     94  CE        -5.8450   14.8990  -51.1900 C.3   145  LYS145      0.1093
     95  NZ        -4.8940   16.0220  -51.4700 N.3   145  LYS145     -0.1314
     96  N        -11.1280   18.4550  -48.9350 N.am  146  ASP146     -0.1974
     97  CA       -12.5240   18.7350  -48.5980 C.3   146  ASP146      0.1709
     98  C        -13.3300   19.1250  -49.8410 C.2   146  ASP146      0.2293
     99  O        -14.5560   19.2240  -49.7860 O.2   146  ASP146     -0.2864
    100  CB       -12.6230   19.8330  -47.5320 C.3   146  ASP146      0.1436
    101  CG       -12.2680   21.2030  -48.0650 C.2   146  ASP146      0.3671
    102  OD1      -11.5590   21.2800  -49.0880 O.co2 146  ASP146     -0.2456
    103  OD2      -12.6980   22.2060  -47.4570 O.co2 146  ASP146     -0.2456
@<TRIPOS>BOND
     1    74    73    2
     2    32    31   ar
     3    32    30   ar
     4    31    29   ar
     5    80    79    2
     6    79    78    1
     7    76    75    1
     8    73    72    1
     9    73    77   am
    10    30    28   ar
    11    66    65    2
    12    72    75    1
    13    72    71    1
    14    29    27   ar
    15    20    19    1
    16    20    21    1
    17    78    77    1
    18    78    81    1
    19    69    67    1
    20    19    16    1
    21    28    27   ar
    22    65    71   am
    23    65    64    1
    24    27    26    1
    25    21    15    1
    26    81    82    1
    27    67    64    1
    28    67    68    1
    29    54    53   ar
    30    54    52   ar
    31    64    63    1
    32    53    51   ar
    33    16    15    1
    34    16    17    1
    35    84    82   ar
    36    84    86   ar
    37    95    94    1
    38    15     3   am
    39    26    23    1
    40     1     2    1
    41    82    83   ar
    42    94    93    1
    43    52    50   ar
    44    22    17   am
    45    22    23    1
    46    51    49   ar
    47    17    18    2
    48    70    68    1
    49    58    57    2
    50    93    92    1
    51    50    49   ar
    52    23    24    1
    53    63    57   am
    54    49    48    1
    55    86    85   ar
    56     7     6   ar
    57     7     9   ar
    58     3     2    1
    59     3     4    2
    60    87    88    1
    61     2     5    1
    62    61    60    2
    63     5     6    1
    64    57    56    1
    65    88    89    1
    66    88    91    1
    67    90    89    2
    68    83    85   ar
    69    98    99    2
    70    98    97    1
    71    48    45    1
    72    89    96   am
    73     6     8   ar
    74     9    10   ar
    75    92    91    1
    76   102   101   ar
    77    24    25    2
    78    60    62   am
    79    60    59    1
    80    96    97    1
    81    97   100    1
    82    56    55    1
    83    56    59    1
    84     8    10   ar
    85     8    11   ar
    86    45    44    1
    87    45    46    1
    88    10    12   ar
    89   101   100    1
    90   101   103   ar
    91    44    35   am
    92    37    38    1
    93    37    34    1
    94    46    47    2
    95    40    38   ar
    96    40    42   ar
    97    38    39   ar
    98    35    36    2
    99    35    34    1
   100    11    13   ar
   101    12    14   ar
   102    42    43   ar
   103    39    41   ar
   104    34    33    1
   105    43    41   ar
   106    13    14   ar
