@<TRIPOS>MOLECULE
tmp/4adqB00.pdb
 88 87 0 0 0
SMALL
GASTEIGER

@<TRIPOS>ATOM
      1  N        -26.5390   14.4290   21.0770 N.3    38  VAL38      -0.1245
      2  CA       -25.6170   14.8540   20.0310 C.3    38  VAL38       0.1561
      3  C        -26.3520   15.7480   19.0380 C.2    38  VAL38       0.2260
      4  O        -27.3270   15.3280   18.4170 O.2    38  VAL38      -0.2867
      5  CB       -25.0150   13.6560   19.2760 C.3    38  VAL38       0.0252
      6  CG1      -23.9190   14.1220   18.3280 C.3    38  VAL38       0.0019
      7  CG2      -24.4800   12.6230   20.2570 C.3    38  VAL38       0.0019
      8  N        -20.5150   16.4730   10.9270 N.3    53  PRO53      -0.2102
      9  CA       -20.5730   15.0160   11.0840 C.3    53  PRO53       0.1504
     10  C        -21.7950   14.3960   10.4110 C.2    53  PRO53       0.2575
     11  O        -21.6780   13.3590    9.7600 O.2    53  PRO53      -0.2718
     12  CB       -20.6410   14.8320   12.6010 C.3    53  PRO53       0.0282
     13  CG       -19.9360   16.0200   13.1440 C.3    53  PRO53       0.0208
     14  CD       -20.2710   17.1520   12.2120 C.3    53  PRO53       0.0893
     15  N        -22.9530   15.0270   10.5750 N.am   54  PHE54      -0.1977
     16  CA       -24.2010   14.4970   10.0340 C.3    54  PHE54       0.1639
     17  C        -24.5210   15.0520    8.6480 C.2    54  PHE54       0.2290
     18  O        -25.4970   14.6400    8.0190 O.2    54  PHE54      -0.2864
     19  CB       -25.3550   14.7970   10.9910 C.3    54  PHE54       0.0560
     20  CG       -25.1890   14.1860   12.3510 C.ar   54  PHE54      -0.0200
     21  CD1      -25.5670   12.8760   12.5840 C.ar   54  PHE54      -0.0042
     22  CD2      -24.6470   14.9190   13.3930 C.ar   54  PHE54      -0.0042
     23  CE1      -25.4150   12.3090   13.8330 C.ar   54  PHE54      -0.0003
     24  CE2      -24.4910   14.3580   14.6450 C.ar   54  PHE54      -0.0003
     25  CZ       -24.8760   13.0510   14.8650 C.ar   54  PHE54      -0.0000
     26  N        -26.0570   13.0920    5.5690 N.3    57  PHE57      -0.1227
     27  CA       -26.8900   11.9990    6.0590 C.3    57  PHE57       0.1736
     28  C        -28.2180   12.5270    6.5960 C.2    57  PHE57       0.2595
     29  O        -29.2470   11.8580    6.4940 O.2    57  PHE57      -0.2718
     30  CB       -26.1580   11.2100    7.1450 C.3    57  PHE57       0.0547
     31  CG       -24.9170   10.5190    6.6550 C.ar   57  PHE57      -0.0202
     32  CD1      -24.9910    9.2690    6.0620 C.ar   57  PHE57      -0.0042
     33  CD2      -23.6780   11.1210    6.7840 C.ar   57  PHE57      -0.0042
     34  CE1      -23.8510    8.6320    5.6090 C.ar   57  PHE57      -0.0003
     35  CE2      -22.5340   10.4890    6.3340 C.ar   57  PHE57      -0.0003
     36  CZ       -22.6210    9.2430    5.7450 C.ar   57  PHE57      -0.0000
     37  N        -28.1900   13.7260    7.1690 N.am   58  PHE58      -0.1976
     38  CA       -29.3960   14.3510    7.7040 C.3    58  PHE58       0.1639
     39  C        -29.6470   15.7320    7.0990 C.2    58  PHE58       0.2290
     40  O        -28.7130   16.4260    6.6970 O.2    58  PHE58      -0.2864
     41  CB       -29.2880   14.4750    9.2220 C.3    58  PHE58       0.0560
     42  CG       -29.2890   13.1570    9.9360 C.ar   58  PHE58      -0.0200
     43  CD1      -28.1280   12.4090   10.0340 C.ar   58  PHE58      -0.0042
     44  CD2      -30.4460   12.6700   10.5170 C.ar   58  PHE58      -0.0042
     45  CE1      -28.1240   11.1970   10.6910 C.ar   58  PHE58      -0.0003
     46  CE2      -30.4470   11.4600   11.1790 C.ar   58  PHE58      -0.0003
     47  CZ       -29.2850   10.7210   11.2650 C.ar   58  PHE58      -0.0000
     48  N        -28.9040    4.1080    7.9440 N.3    75  ASN75      -0.1240
     49  CA       -28.0400    2.9750    8.2550 C.3    75  ASN75       0.1653
     50  C        -28.2150    2.5720    9.7190 C.2    75  ASN75       0.2266
     51  O        -28.8060    3.3140   10.5050 O.2    75  ASN75      -0.2867
     52  CB       -26.5750    3.2420    7.8480 C.3    75  ASN75       0.1155
     53  CG       -25.8980    4.3410    8.6690 C.2    75  ASN75       0.2627
     54  OD1      -26.2920    4.6390    9.7980 O.2    75  ASN75      -0.2716
     55  ND2      -24.8770    4.9690    8.0660 N.am   75  ASN75      -0.0877
     56  N        -26.6650    2.4880   12.4240 N.3    77  SER77      -0.1202
     57  CA       -26.2830    3.4090   13.4850 C.3    77  SER77       0.2020
     58  C        -27.4400    4.3320   13.8380 C.2    77  SER77       0.2618
     59  O        -27.5770    4.7630   14.9840 O.2    77  SER77      -0.2717
     60  CB       -25.0720    4.2410   13.0650 C.3    77  SER77       0.2103
     61  OG       -24.9120    5.3590   13.9210 O.3    77  SER77      -0.2182
     62  N        -28.2710    4.6310   12.8460 N.am   78  HIS78      -0.1975
     63  CA       -29.3570    5.5850   13.0210 C.3    78  HIS78       0.1656
     64  C        -30.4880    5.0630   13.9060 C.2    78  HIS78       0.2291
     65  O        -31.2340    5.8510   14.4850 O.2    78  HIS78      -0.2864
     66  CB       -29.9010    6.0180   11.6580 C.3    78  HIS78       0.0771
     67  CG       -28.8760    6.6750   10.7880 C.ar   78  HIS78       0.0820
     68  ND1      -29.0460    6.8440    9.4310 N.ar   78  HIS78      -0.2267
     69  CD2      -27.6580    7.1870   11.0810 C.ar   78  HIS78       0.1154
     70  CE1      -27.9820    7.4450    8.9280 C.ar   78  HIS78       0.1986
     71  NE2      -27.1250    7.6630    9.9090 N.ar   78  HIS78      -0.2212
     72  N        -19.9040   -5.5150   10.2120 N.3   145  LYS145     -0.1231
     73  CA       -19.3770   -4.1810    9.9550 C.3   145  LYS145      0.1693
     74  C        -20.4840   -3.2160    9.5380 C.2   145  LYS145      0.2592
     75  O        -20.3940   -2.0110    9.7840 O.2   145  LYS145     -0.2718
     76  CB       -18.2950   -4.2360    8.8750 C.3   145  LYS145      0.0285
     77  CG       -17.1750   -5.2270    9.1670 C.3   145  LYS145      0.0035
     78  CD       -16.3080   -4.7760   10.3310 C.3   145  LYS145      0.0206
     79  CE       -15.2370   -5.7950   10.6780 C.3   145  LYS145      0.1093
     80  NZ       -15.7470   -6.8790   11.5640 N.3   145  LYS145     -0.1314
     81  N        -21.5290   -3.7500    8.9110 N.am  146  ASP146     -0.1974
     82  CA       -22.6830   -2.9370    8.5300 C.3   146  ASP146      0.1709
     83  C        -23.4970   -2.5200    9.7500 C.2   146  ASP146      0.2293
     84  O        -24.3930   -1.6840    9.6500 O.2   146  ASP146     -0.2864
     85  CB       -23.5780   -3.6800    7.5300 C.3   146  ASP146      0.1436
     86  CG       -22.7890   -4.4790    6.5130 C.2   146  ASP146      0.3671
     87  OD1      -21.6040   -4.1560    6.2900 O.co2 146  ASP146     -0.2456
     88  OD2      -23.3570   -5.4310    5.9360 O.co2 146  ASP146     -0.2456
@<TRIPOS>BOND
     1    26    27    1
     2    34    36   ar
     3    34    32   ar
     4    36    35   ar
     5    88    86   ar
     6    27    28    1
     7    27    30    1
     8    32    31   ar
     9    87    86   ar
    10    35    33   ar
    11    29    28    2
    12    86    85    1
    13    28    37   am
    14    31    33   ar
    15    31    30    1
    16    40    39    2
    17    39    38    1
    18    37    38    1
    19    85    82    1
    20    38    41    1
    21    52    49    1
    22    52    53    1
    23    48    49    1
    24    18    17    2
    25    55    53   am
    26    49    50    1
    27    82    81    1
    28    82    83    1
    29    17    16    1
    30    53    54    2
    31    76    77    1
    32    76    73    1
    33    81    74   am
    34    70    68   ar
    35    70    71   ar
    36    77    78    1
    37    41    42    1
    38    68    67   ar
    39    74    75    2
    40    74    73    1
    41    84    83    2
    42    50    51    2
    43    11    10    2
    44    71    69   ar
    45    42    43   ar
    46    42    44   ar
    47    73    72    1
    48    43    45   ar
    49    16    15    1
    50    16    19    1
    51    78    79    1
    52    10    15   am
    53    10     9    1
    54    44    46   ar
    55    79    80    1
    56    45    47   ar
    57    67    69   ar
    58    67    66    1
    59     8     9    1
    60     8    14    1
    61    19    20    1
    62     9    12    1
    63    46    47   ar
    64    66    63    1
    65    14    13    1
    66    20    21   ar
    67    20    22   ar
    68    56    57    1
    69    21    23   ar
    70    12    13    1
    71    62    63    1
    72    62    58   am
    73    63    64    1
    74    60    57    1
    75    60    61    1
    76    22    24   ar
    77    57    58    1
    78    23    25   ar
    79    58    59    2
    80    64    65    2
    81    24    25   ar
    82     6     5    1
    83     4     3    2
    84     3     2    1
    85     5     2    1
    86     5     7    1
    87     2     1    1
