@<TRIPOS>MOLECULE
tmp/4aduA00.pdb
 152 142 0 0 0
SMALL
GASTEIGER

@<TRIPOS>ATOM
      1  N         25.3810   27.6340   32.5340 N.3    21  ASP21      -0.1239
      2  CA        23.9730   27.8780   32.8980 C.3    21  ASP21       0.1674
      3  C         23.8320   27.9160   34.4260 C.2    21  ASP21       0.2266
      4  O         24.4270   27.0990   35.1260 O.2    21  ASP21      -0.2867
      5  CB        23.0480   26.7710   32.3810 C.3    21  ASP21       0.1410
      6  CG        22.8850   26.7480   30.8480 C.2    21  ASP21       0.3668
      7  OD1       23.1280   27.7570   30.1420 O.co2  21  ASP21      -0.2456
      8  OD2       22.4660   25.6750   30.3480 O.co2  21  ASP21      -0.2456
      9  N         24.7590   31.9960   32.1450 N.3    40  MET40      -0.1245
     10  CA        23.5600   32.0520   31.3600 C.3    40  MET40       0.1570
     11  C         22.4250   31.7420   32.3310 C.2    40  MET40       0.2261
     12  O         22.3070   30.6260   32.8010 O.2    40  MET40      -0.2867
     13  CB        23.6620   31.0020   30.2510 C.3    40  MET40       0.0387
     14  CG        22.3730   30.6830   29.5440 C.3    40  MET40       0.0595
     15  SD        21.8350   32.0610   28.5190 S.3    40  MET40      -0.1393
     16  CE        22.8360   31.7180   27.0610 C.3    40  MET40       0.0692
     17  N         18.9100   30.9610   34.0790 N.3    42  LEU42      -0.1245
     18  CA        17.8060   30.1160   33.6700 C.3    42  LEU42       0.1561
     19  C         16.8620   29.8410   34.8240 C.2    42  LEU42       0.2260
     20  O         17.2870   29.6260   35.9630 O.2    42  LEU42      -0.2867
     21  CB        18.3590   28.7900   33.1130 C.3    42  LEU42       0.0270
     22  CG        18.6800   28.7010   31.6100 C.3    42  LEU42       0.0019
     23  CD1       19.0060   30.0490   30.9860 C.3    42  LEU42       0.0001
     24  CD2       19.8250   27.7260   31.3580 C.3    42  LEU42       0.0001
     25  N         18.6300   22.6480   31.4450 N.3    46  PRO46      -0.2116
     26  CA        18.0150   21.7860   30.4130 C.3    46  PRO46       0.1372
     27  C         17.7040   20.3420   30.7980 C.2    46  PRO46       0.2244
     28  O         16.6960   19.8140   30.3640 O.2    46  PRO46      -0.2868
     29  CB        19.0280   21.8280   29.2750 C.3    46  PRO46       0.0268
     30  CG        19.6480   23.1810   29.4160 C.3    46  PRO46       0.0207
     31  CD        19.6080   23.5760   30.8540 C.3    46  PRO46       0.0892
     32  N         18.1950   33.5080   28.2140 N.3    78  LYS78      -0.1245
     33  CA        17.4870   32.8590   27.1080 C.3    78  LYS78       0.1561
     34  C         16.1460   33.4980   26.8670 C.2    78  LYS78       0.2260
     35  O         15.4670   33.8420   27.8010 O.2    78  LYS78      -0.2867
     36  CB        17.2760   31.3700   27.3830 C.3    78  LYS78       0.0271
     37  CG        18.4690   30.5210   26.9280 C.3    78  LYS78       0.0035
     38  CD        18.4740   29.1290   27.5740 C.3    78  LYS78       0.0206
     39  CE        19.0780   28.0360   26.6890 C.3    78  LYS78       0.1093
     40  NZ        20.5240   28.0510   26.5910 N.3    78  LYS78      -0.1314
     41  N         20.3530   34.6070   24.2540 N.3    99  ASP99      -0.1239
     42  CA        20.3260   33.3730   23.4830 C.3    99  ASP99       0.1674
     43  C         18.8880   33.0550   23.0710 C.2    99  ASP99       0.2266
     44  O         18.0580   32.7350   23.8850 O.2    99  ASP99      -0.2867
     45  CB        20.9230   32.2460   24.3030 C.3    99  ASP99       0.1410
     46  CG        20.9120   30.9140   23.5900 C.2    99  ASP99       0.3668
     47  OD1       20.2340   30.7630   22.5510 O.co2  99  ASP99      -0.2456
     48  OD2       21.5630   29.9700   24.0930 O.co2  99  ASP99      -0.2456
     49  N         16.7500   30.5970   22.1250 N.3   101  SER101     -0.1202
     50  CA        17.0280   29.1890   22.3460 C.3   101  SER101      0.2020
     51  C         15.8720   28.2280   22.1330 C.2   101  SER101      0.2619
     52  O         14.7590   28.4340   22.5840 O.2   101  SER101     -0.2717
     53  CB        17.5340   28.9810   23.7630 C.3   101  SER101      0.2103
     54  OG        17.8350   27.6170   24.0020 O.3   101  SER101     -0.2182
     55  N         16.2230   27.1070   21.5350 N.am  102  GLU102     -0.1965
     56  CA        15.2990   26.0330   21.2440 C.3   102  GLU102      0.1733
     57  C         15.0090   25.1820   22.4900 C.2   102  GLU102      0.2616
     58  O         14.1340   24.3350   22.4760 O.2   102  GLU102     -0.2715
     59  CB        15.8820   25.1860   20.1020 C.3   102  GLU102      0.0429
     60  CG        17.2300   24.5240   20.4130 C.3   102  GLU102      0.1163
     61  CD        18.4650   25.4630   20.3600 C.2   102  GLU102      0.3649
     62  OE1       18.4640   26.5570   19.7010 O.co2 102  GLU102     -0.2457
     63  OE2       19.4620   25.0590   21.0210 O.co2 102  GLU102     -0.2457
     64  N         15.7640   25.4200   23.5590 N.am  103  VAL103     -0.1977
     65  CA        15.5560   24.7760   24.8360 C.3   103  VAL103      0.1596
     66  C         14.2930   25.3070   25.5340 C.2   103  VAL103      0.2287
     67  O         13.6170   24.5670   26.2580 O.2   103  VAL103     -0.2864
     68  CB        16.7540   25.0390   25.7880 C.3   103  VAL103      0.0276
     69  CG1       16.4340   24.5370   27.1850 C.3   103  VAL103      0.0022
     70  CG2       18.0150   24.3870   25.2690 C.3   103  VAL103      0.0022
     71  N         25.9880   28.8340   18.1410 N.3   144  ARG144     -0.1245
     72  CA        26.4310   27.6650   18.8470 C.3   144  ARG144      0.1563
     73  C         25.7910   26.4950   18.1990 C.2   144  ARG144      0.2260
     74  O         24.8620   26.6590   17.4440 O.2   144  ARG144     -0.2867
     75  CB        26.0330   27.7270   20.3100 C.3   144  ARG144      0.0307
     76  CG        24.5840   27.9750   20.5170 C.3   144  ARG144      0.0489
     77  CD        24.2040   27.7890   21.9760 C.3   144  ARG144      0.2205
     78  NE        22.8580   28.2930   22.1070 N.pl3 144  ARG144     -0.0865
     79  CZ        21.7740   27.6470   21.7080 C.cat 144  ARG144      0.5346
     80  NH1       21.8550   26.4210   21.1910 N.pl3 144  ARG144      0.1354
     81  NH2       20.5950   28.2150   21.8570 N.pl3 144  ARG144      0.1354
     82  N         23.4780   23.1170   18.5160 N.3   146  LYS146     -0.1245
     83  CA        22.3630   22.7070   19.3570 C.3   146  LYS146      0.1561
     84  C         22.7400   21.5250   20.1860 C.2   146  LYS146      0.2260
     85  O         22.4020   21.4660   21.3530 O.2   146  LYS146     -0.2867
     86  CB        21.1520   22.3390   18.5170 C.3   146  LYS146      0.0271
     87  CG        20.6330   23.4730   17.7030 C.3   146  LYS146      0.0035
     88  CD        19.3040   23.1200   17.0520 C.3   146  LYS146      0.0206
     89  CE        18.8910   24.2310   16.1010 C.3   146  LYS146      0.1093
     90  NZ        17.5690   23.9980   15.4580 N.3   146  LYS146     -0.1314
     91  N         20.6130   19.0890   23.9800 N.3   149  ALA149     -0.1231
     92  CA        20.6420   19.7760   25.2680 C.3   149  ALA149      0.1694
     93  C         20.0840   18.9560   26.4560 C.2   149  ALA149      0.2592
     94  O         19.0340   18.3310   26.3730 O.2   149  ALA149     -0.2718
     95  CB        19.9490   21.1300   25.1750 C.3   149  ALA149      0.0304
     96  N         20.8520   18.9480   27.5510 N.am  150  GLY150     -0.1957
     97  CA        20.4490   18.3320   28.8130 C.3   150  GLY150      0.1869
     98  C         20.5480   16.8270   28.9020 C.2   150  GLY150      0.2309
     99  O         20.1350   16.2710   29.9020 O.2   150  GLY150     -0.2863
    100  N         27.8470   23.5060   22.1030 N.3   209  ALA209     -0.1231
    101  CA        26.8030   23.5640   23.1170 C.3   209  ALA209      0.1694
    102  C         25.9730   22.3130   23.0070 C.2   209  ALA209      0.2593
    103  O         25.5910   21.9540   21.8990 O.2   209  ALA209     -0.2718
    104  CB        25.9430   24.7420   22.8770 C.3   209  ALA209      0.0304
    105  N         25.7040   21.6630   24.1430 N.am  210  GLY210     -0.1942
    106  CA        24.8090   20.5200   24.2160 C.3   210  GLY210      0.2014
    107  C         25.5120   19.2320   24.5890 C.2   210  GLY210      0.2639
    108  O         26.3040   18.7050   23.8120 O.2   210  GLY210     -0.2714
    109  N         25.2300   18.7240   25.7880 N.am  211  GLY211     -0.1939
    110  CA        25.7060   17.4010   26.1840 C.3   211  GLY211      0.2014
    111  C         27.1560   17.2770   26.6230 C.2   211  GLY211      0.2638
    112  O         27.6960   16.1770   26.6750 O.2   211  GLY211     -0.2714
    113  N         27.7830   18.3950   26.9530 N.am  212  ILE212     -0.1977
    114  CA        29.1460   18.3860   27.4320 C.3   212  ILE212      0.1596
    115  C         29.1490   18.0550   28.9250 C.2   212  ILE212      0.2287
    116  O         28.7420   18.8540   29.7510 O.2   212  ILE212     -0.2864
    117  CB        29.8440   19.7130   27.1490 C.3   212  ILE212      0.0276
    118  CG1       29.8730   19.9880   25.6480 C.3   212  ILE212      0.0022
    119  CG2       31.2750   19.6940   27.6790 C.3   212  ILE212      0.0022
    120  CD1       30.5530   21.2700   25.3060 C.3   212  ILE212      0.0001
    121  N         29.4630   26.1710   25.7780 N.3   230  PHE230     -0.1227
    122  CA        28.4090   26.3330   26.7760 C.3   230  PHE230      0.1736
    123  C         28.1790   25.0010   27.4120 C.2   230  PHE230      0.2595
    124  O         28.1570   23.9820   26.7170 O.2   230  PHE230     -0.2718
    125  CB        27.0700   26.6660   26.1450 C.3   230  PHE230      0.0547
    126  CG        27.0130   27.9980   25.5010 C.ar  230  PHE230     -0.0202
    127  CD1       27.4170   28.1550   24.2110 C.ar  230  PHE230     -0.0042
    128  CD2       26.5060   29.0790   26.1750 C.ar  230  PHE230     -0.0042
    129  CE1       27.3430   29.3900   23.5840 C.ar  230  PHE230     -0.0003
    130  CE2       26.4290   30.3330   25.5720 C.ar  230  PHE230     -0.0003
    131  CZ        26.8580   30.4950   24.2800 C.ar  230  PHE230     -0.0000
    132  N         27.9500   25.0180   28.7160 N.am  231  VAL231     -0.1966
    133  CA        27.7370   23.8350   29.5120 C.3   231  VAL231      0.1727
    134  C         26.6120   24.2020   30.4800 C.2   231  VAL231      0.2617
    135  O         26.6710   25.2300   31.1450 O.2   231  VAL231     -0.2715
    136  CB        29.0080   23.4910   30.3140 C.3   231  VAL231      0.0290
    137  CG1       28.9450   22.0760   30.9030 C.3   231  VAL231      0.0023
    138  CG2       30.2440   23.6690   29.4430 C.3   231  VAL231      0.0023
    139  N         25.5820   23.3670   30.5440 N.am  232  GLY232     -0.1940
    140  CA        24.4850   23.5830   31.4530 C.3   232  GLY232      0.2014
    141  C         24.4140   22.4660   32.4530 C.2   232  GLY232      0.2640
    142  O         24.9220   22.5610   33.5880 O.2   232  GLY232     -0.2714
    143  N         23.8040   21.3810   32.0220 N.am  233  SER233     -0.1935
    144  CA        23.4310   20.3140   32.9270 C.3   233  SER233      0.2055
    145  C         24.6300   19.5800   33.5160 C.2   233  SER233      0.2643
    146  O         24.5790   19.1300   34.6610 O.2   233  SER233     -0.2714
    147  CB        22.4900   19.3710   32.1950 C.3   233  SER233      0.2130
    148  OG        21.4670   20.1280   31.5480 O.3   233  SER233     -0.2179
    149  N         25.7260   19.5260   32.7610 N.am  234  GLY234     -0.1954
    150  CA        26.8820   18.7060   33.1040 C.3   234  GLY234      0.1869
    151  C         27.6630   19.1170   34.3390 C.2   234  GLY234      0.2309
    152  O         28.4850   18.3460   34.8260 O.2   234  GLY234     -0.2863
@<TRIPOS>BOND
     1    90    89    1
     2    89    88    1
     3    88    87    1
     4    74    73    2
     5    87    86    1
     6    71    72    1
     7    73    72    1
     8    82    83    1
     9    86    83    1
    10    72    75    1
    11    83    84    1
    12    62    61   ar
    13    59    60    1
    14    59    56    1
    15    84    85    2
    16    75    76    1
    17    61    60    1
    18    61    63   ar
    19    76    77    1
    20    80    79    1
    21    56    55    1
    22    56    57    1
    23    55    51   am
    24    79    81    1
    25    79    78    2
    26   103   102    2
    27    77    78    1
    28   100   101    1
    29    49    50    1
    30    51    50    1
    31    51    52    2
    32    50    53    1
    33    58    57    2
    34    57    64   am
    35    47    46   ar
    36   104   101    1
    37   102   101    1
    38   102   105   am
    39    43    42    1
    40    43    44    2
    41    42    41    1
    42    42    45    1
    43    64    65    1
    44   129   127   ar
    45   129   131   ar
    46    46    48   ar
    47    46    45    1
    48    53    54    1
    49   108   107    2
    50    91    92    1
    51   105   106    1
    52   127   126   ar
    53   106   107    1
    54   131   130   ar
    55   107   109   am
    56    65    66    1
    57    65    68    1
    58    95    92    1
    59    92    93    1
    60    70    68    1
    61   120   118    1
    62   126   125    1
    63   126   128   ar
    64    66    67    2
    65   130   128   ar
    66   118   117    1
    67   121   122    1
    68    68    69    1
    69   109   110    1
    70   125   122    1
    71   110   111    1
    72    94    93    2
    73    93    96   am
    74    40    39    1
    75   111   112    2
    76   111   113   am
    77    39    38    1
    78   124   123    2
    79   122   123    1
    80    34    33    1
    81    34    35    2
    82    37    36    1
    83    37    38    1
    84   113   114    1
    85    16    15    1
    86    33    36    1
    87    33    32    1
    88   117   114    1
    89   117   119    1
    90   123   132   am
    91   114   115    1
    92    96    97    1
    93    15    14    1
    94   132   133    1
    95    97    98    1
    96    98    99    2
    97   115   116    2
    98    29    30    1
    99    29    26    1
   100    30    31    1
   101   138   136    1
   102   133   136    1
   103   133   134    1
   104    14    13    1
   105     7     6   ar
   106    13    10    1
   107   136   137    1
   108     8     6   ar
   109    28    27    2
   110    26    27    1
   111    26    25    1
   112   134   139   am
   113   134   135    2
   114   139   140    1
   115     6     5    1
   116    31    25    1
   117    23    22    1
   118    24    22    1
   119    10     9    1
   120    10    11    1
   121   140   141    1
   122   148   147    1
   123    22    21    1
   124   143   141   am
   125   143   144    1
   126   147   144    1
   127    11    12    2
   128     5     2    1
   129   141   142    2
   130     1     2    1
   131   149   150    1
   132   149   145   am
   133     2     3    1
   134   144   145    1
   135   150   151    1
   136    21    18    1
   137   145   146    2
   138    18    17    1
   139    18    19    1
   140   151   152    2
   141     3     4    2
   142    19    20    2
