@<TRIPOS>MOLECULE
tmp/4adwA03.pdb
 73 67 0 0 0
SMALL
GASTEIGER

@<TRIPOS>ATOM
      1  N         -3.4520   23.1370   10.9730 N.3    14  SER14      -0.1217
      2  CA        -2.8970   24.4790   11.1390 C.3    14  SER14       0.1889
      3  C         -3.9930   25.5330   11.2290 C.2    14  SER14       0.2288
      4  O         -3.8330   26.5420   11.9170 O.2    14  SER14      -0.2866
      5  CB        -1.9410   24.8080    9.9960 C.3    14  SER14       0.2089
      6  OG        -2.5960   24.7120    8.7440 O.3    14  SER14      -0.2183
      7  N          0.4700   20.3180    7.3170 N.3    52  CYS52      -0.1221
      8  CA         1.6470   21.1200    6.9970 C.3    52  CYS52       0.1808
      9  C          2.8080   20.9360    7.9860 C.2    52  CYS52       0.2601
     10  O          3.9760   21.0700    7.6100 O.2    52  CYS52      -0.2717
     11  CB         1.2750   22.6000    6.8450 C.3    52  CYS52       0.0970
     12  SG         1.3510   23.5790    8.3500 S.3    52  CYS52      -0.0800
     13  N          2.4920   20.6310    9.2390 N.am   53  VAL53      -0.1979
     14  CA         3.5300   20.4060   10.2390 C.3    53  VAL53       0.1595
     15  C          4.0710   18.9760   10.1250 C.2    53  VAL53       0.2287
     16  O          5.2650   18.7400   10.2990 O.2    53  VAL53      -0.2864
     17  CB         3.0220   20.7220   11.6740 C.3    53  VAL53       0.0276
     18  CG1        4.0930   20.4540   12.7190 C.3    53  VAL53       0.0022
     19  CG2        2.5700   22.1680   11.7690 C.3    53  VAL53       0.0022
     20  N          4.3790   21.4690    4.5370 N.3    57  CYS57      -0.1221
     21  CA         5.2660   22.6360    4.4550 C.3    57  CYS57       0.1808
     22  C          6.4970   22.6250    5.3540 C.2    57  CYS57       0.2601
     23  O          7.5380   23.1550    4.9700 O.2    57  CYS57      -0.2717
     24  CB         4.4740   23.9210    4.6950 C.3    57  CYS57       0.0970
     25  SG         3.7860   24.1020    6.3530 S.3    57  CYS57      -0.0800
     26  N          6.3790   22.0370    6.5420 N.am   58  VAL58      -0.1979
     27  CA         7.5010   22.0120    7.4820 C.3    58  VAL58       0.1595
     28  C          8.5690   20.9570    7.1100 C.2    58  VAL58       0.2287
     29  O          9.6890   21.3380    6.7580 O.2    58  VAL58      -0.2864
     30  CB         7.0420   21.9320    8.9680 C.3    58  VAL58       0.0276
     31  CG1        8.2420   21.8760    9.8990 C.3    58  VAL58       0.0022
     32  CG2        6.1560   23.1280    9.3180 C.3    58  VAL58       0.0022
     33  N          8.2220   19.3820   17.5020 N.3   106  ILE106     -0.1245
     34  CA         7.0840   20.2900   17.3250 C.3   106  ILE106      0.1561
     35  C          5.8490   19.6170   17.8870 C.2   106  ILE106      0.2260
     36  O          5.0310   20.2540   18.5410 O.2   106  ILE106     -0.2867
     37  CB         6.8260   20.6740   15.8530 C.3   106  ILE106      0.0252
     38  CG1        8.1380   20.9130   15.1130 C.3   106  ILE106      0.0019
     39  CG2        5.9420   21.9180   15.7720 C.3   106  ILE106      0.0019
     40  CD1        7.9910   20.9360   13.6130 C.3   106  ILE106      0.0001
     41  N          6.0510   19.9170   21.3280 N.3   109  SER109     -0.1202
     42  CA         5.7790   21.3000   21.6730 C.3   109  SER109      0.2020
     43  C          4.2800   21.4730   21.9340 C.2   109  SER109      0.2618
     44  O          3.8760   22.1870   22.8540 O.2   109  SER109     -0.2717
     45  CB         6.2520   22.2150   20.5410 C.3   109  SER109      0.2103
     46  OG         5.9460   23.5700   20.7950 O.3   109  SER109     -0.2182
     47  N          3.4650   20.7940   21.1290 N.am  110  TYR110     -0.1975
     48  CA         2.0060   20.8930   21.2150 C.3   110  TYR110      0.1639
     49  C          1.4290   20.1570   22.4140 C.2   110  TYR110      0.2290
     50  O          0.5730   20.6870   23.1250 O.2   110  TYR110     -0.2864
     51  CB         1.3530   20.3760   19.9290 C.3   110  TYR110      0.0560
     52  CG         1.3950   21.3490   18.7720 C.ar  110  TYR110     -0.0198
     53  CD1        0.8350   22.6230   18.8860 C.ar  110  TYR110     -0.0009
     54  CD2        1.9790   20.9940   17.5560 C.ar  110  TYR110     -0.0009
     55  CE1        0.8730   23.5260   17.8290 C.ar  110  TYR110      0.0417
     56  CE2        2.0170   21.8910   16.4860 C.ar  110  TYR110      0.0417
     57  CZ         1.4600   23.1530   16.6320 C.ar  110  TYR110      0.1957
     58  OH         1.4840   24.0490   15.5890 O.3   110  TYR110     -0.2866
     59  N         -1.5930   27.0210    4.1740 N.3   335  THR335     -0.1218
     60  CA        -1.4870   27.0960    5.6290 C.3   335  THR335      0.1862
     61  C         -1.9170   28.4620    6.1770 C.2   335  THR335      0.2287
     62  O         -2.7460   28.5080    7.0830 O.2   335  THR335     -0.2866
     63  CB        -0.0620   26.7220    6.1440 C.3   335  THR335      0.1770
     64  OG1        0.3200   25.4270    5.6560 O.3   335  THR335     -0.2211
     65  CG2       -0.0040   26.7260    7.6720 C.3   335  THR335      0.0375
     66  N         -5.2890   29.5270    8.4640 N.3   339  ILE339     -0.1245
     67  CA        -4.9920   30.2780    9.6840 C.3   339  ILE339      0.1561
     68  C         -5.8730   31.5250    9.7840 C.2   339  ILE339      0.2260
     69  O         -6.4670   31.7970   10.8340 O.2   339  ILE339     -0.2867
     70  CB        -3.4710   30.6410    9.7640 C.3   339  ILE339      0.0252
     71  CG1       -2.6600   29.4410   10.2730 C.3   339  ILE339      0.0019
     72  CG2       -3.2250   31.8690   10.6480 C.3   339  ILE339      0.0019
     73  CD1       -1.1430   29.6130   10.1940 C.3   339  ILE339      0.0001
@<TRIPOS>BOND
     1    59    60    1
     2    21    20    1
     3    21    24    1
     4    21    22    1
     5    24    25    1
     6    23    22    2
     7    22    26   am
     8    60    63    1
     9    60    61    1
    10    64    63    1
    11    63    65    1
    12    61    62    2
    13    26    27    1
    14    29    28    2
    15    11     8    1
    16    11    12    1
    17     8     7    1
    18     8     9    1
    19    28    27    1
    20    27    30    1
    21    10     9    2
    22     9    13   am
    23    66    67    1
    24     6     5    1
    25    30    32    1
    26    30    31    1
    27    13    14    1
    28    67    70    1
    29    67    68    1
    30    70    71    1
    31    70    72    1
    32    68    69    2
    33     5     2    1
    34    15    14    1
    35    15    16    2
    36    73    71    1
    37    14    17    1
    38     1     2    1
    39     2     3    1
    40     3     4    2
    41    17    19    1
    42    17    18    1
    43    40    38    1
    44    38    37    1
    45    58    57    1
    46    39    37    1
    47    37    34    1
    48    56    57   ar
    49    56    54   ar
    50    57    55   ar
    51    34    33    1
    52    34    35    1
    53    54    52   ar
    54    55    53   ar
    55    35    36    2
    56    52    53   ar
    57    52    51    1
    58    51    48    1
    59    45    46    1
    60    45    42    1
    61    47    48    1
    62    47    43   am
    63    48    49    1
    64    41    42    1
    65    42    43    1
    66    43    44    2
    67    49    50    2
