@<TRIPOS>MOLECULE
tmp/4adwA02.pdb
 105 104 0 0 0
SMALL
GASTEIGER

@<TRIPOS>ATOM
      1  N         12.8250   24.5100  -18.4500 N.3   240  LYS240     -0.1245
      2  CA        14.1980   24.5620  -18.9470 C.3   240  LYS240      0.1561
      3  C         15.1910   24.3010  -17.8250 C.2   240  LYS240      0.2260
      4  O         16.1060   23.4850  -17.9770 O.2   240  LYS240     -0.2867
      5  CB        14.5030   25.9160  -19.5960 C.3   240  LYS240      0.0271
      6  CG        13.9980   26.0570  -21.0100 C.3   240  LYS240      0.0035
      7  CD        15.0400   26.6950  -21.9070 C.3   240  LYS240      0.0206
      8  CE        14.6660   26.4930  -23.3670 C.3   240  LYS240      0.1093
      9  NZ        15.8580   26.3510  -24.2460 N.3   240  LYS240     -0.1314
     10  N         14.3050   39.6260  -17.4450 N.3   395  SER395     -0.1202
     11  CA        15.0300   38.4050  -17.1390 C.3   395  SER395      0.2020
     12  C         16.5240   38.6870  -17.1410 C.2   395  SER395      0.2619
     13  O         17.1100   38.9610  -18.1890 O.2   395  SER395     -0.2717
     14  CB        14.6970   37.3100  -18.1530 C.3   395  SER395      0.2103
     15  OG        13.2990   37.0880  -18.2180 O.3   395  SER395     -0.2182
     16  N         17.1350   38.6330  -15.9630 N.am  396  PHE396     -0.1961
     17  CA        18.5660   38.8630  -15.8290 C.3   396  PHE396      0.1771
     18  C         19.2120   37.6700  -15.1590 C.2   396  PHE396      0.2620
     19  O         18.5340   36.8860  -14.4910 O.2   396  PHE396     -0.2715
     20  CB        18.8500   40.1580  -15.0530 C.3   396  PHE396      0.0574
     21  CG        18.2470   40.2020  -13.6620 C.ar  396  PHE396     -0.0200
     22  CD1       16.8620   40.2120  -13.4730 C.ar  396  PHE396     -0.0042
     23  CD2       19.0680   40.2730  -12.5390 C.ar  396  PHE396     -0.0042
     24  CE1       16.3100   40.2610  -12.1890 C.ar  396  PHE396     -0.0003
     25  CE2       18.5210   40.3260  -11.2460 C.ar  396  PHE396     -0.0003
     26  CZ        17.1400   40.3190  -11.0760 C.ar  396  PHE396     -0.0000
     27  N         20.5170   37.5240  -15.3580 N.am  397  THR397     -0.1937
     28  CA        21.2670   36.4300  -14.7500 C.3   397  THR397      0.2013
     29  C         22.2750   37.0370  -13.7830 C.2   397  THR397      0.2484
     30  O         23.1850   37.7410  -14.2190 O.2   397  THR397     -0.2729
     31  CB        21.9710   35.5540  -15.8180 C.3   397  THR397      0.1807
     32  OG1       21.0960   35.3670  -16.9390 O.3   397  THR397     -0.2208
     33  CG2       22.3510   34.1840  -15.2500 C.3   397  THR397      0.0379
     34  N         22.1050   36.7770  -12.4650 N.am  398  PRO398     -0.2715
     35  CA        22.8650   37.4600  -11.4160 C.3   398  PRO398      0.1536
     36  C         24.3670   37.2710  -11.5500 C.2   398  PRO398      0.2598
     37  O         24.8210   36.3290  -12.2020 O.2   398  PRO398     -0.2715
     38  CB        22.3580   36.8100  -10.1260 C.3   398  PRO398      0.0310
     39  CG        21.0330   36.2630  -10.4730 C.3   398  PRO398      0.0237
     40  CD        21.1680   35.7980  -11.8880 C.3   398  PRO398      0.0939
     41  N         25.1120   38.1790  -10.9270 N.am  399  LEU399     -0.1978
     42  CA        26.5700   38.2720  -11.0460 C.3   399  LEU399      0.1596
     43  C         27.2850   36.9600  -10.7570 C.2   399  LEU399      0.2287
     44  O         28.1040   36.5010  -11.5550 O.2   399  LEU399     -0.2864
     45  CB        27.0880   39.3560  -10.0980 C.3   399  LEU399      0.0297
     46  CG        26.2650   40.6480  -10.1080 C.3   399  LEU399      0.0022
     47  CD1       26.2140   41.3090   -8.7180 C.3   399  LEU399      0.0001
     48  CD2       26.7790   41.6020  -11.1980 C.3   399  LEU399      0.0001
     49  N         19.0880   32.1460  -14.3620 N.3   410  GLU410     -0.1245
     50  CA        18.4210   33.3870  -14.7410 C.3   410  GLU410      0.1567
     51  C         17.1800   33.7090  -13.8890 C.2   410  GLU410      0.2260
     52  O         16.1930   32.9690  -13.9110 O.2   410  GLU410     -0.2867
     53  CB        18.0380   33.2660  -16.2210 C.3   410  GLU410      0.0388
     54  CG        17.4240   34.4920  -16.8400 C.3   410  GLU410      0.1160
     55  CD        16.6370   34.1710  -18.0990 C.2   410  GLU410      0.3649
     56  OE1       15.5450   33.5630  -17.9910 O.co2 410  GLU410     -0.2457
     57  OE2       17.1050   34.5420  -19.1960 O.co2 410  GLU410     -0.2457
     58  N         21.5210   48.2070   -3.7360 N.3   461  HIS461     -0.1227
     59  CA        22.3190   48.0370   -4.9960 C.3   461  HIS461      0.1737
     60  C         22.6580   46.6100   -5.4650 C.2   461  HIS461      0.2438
     61  O         22.5490   46.3140   -6.6700 O.2   461  HIS461     -0.2733
     62  CB        23.5890   48.9460   -5.0420 C.3   461  HIS461      0.0758
     63  CG        24.6240   48.5210   -6.0680 C.ar  461  HIS461      0.0818
     64  ND1       24.3020   48.0130   -7.3120 N.ar  461  HIS461     -0.2268
     65  CD2       25.9790   48.5620   -6.0320 C.ar  461  HIS461      0.1154
     66  CE1       25.4120   47.7250   -7.9750 C.ar  461  HIS461      0.1986
     67  NE2       26.4440   48.0570   -7.2250 N.ar  461  HIS461     -0.2212
     68  N         23.1110   45.7380   -4.5460 N.am  462  PRO462     -0.2718
     69  CA        23.4660   44.4110   -5.0880 C.3   462  PRO462      0.1535
     70  C         22.3570   43.3380   -5.0480 C.2   462  PRO462      0.2599
     71  O         22.5760   42.2420   -5.5620 O.2   462  PRO462     -0.2715
     72  CB        24.6850   43.9930   -4.2460 C.3   462  PRO462      0.0310
     73  CG        25.1300   45.2830   -3.5480 C.3   462  PRO462      0.0237
     74  CD        23.8160   46.0190   -3.2560 C.3   462  PRO462      0.0939
     75  N         21.1900   43.6540   -4.4780 N.am  463  THR463     -0.1937
     76  CA        20.0540   42.7180   -4.3990 C.3   463  THR463      0.2028
     77  C         19.4170   42.3960   -5.7540 C.2   463  THR463      0.2642
     78  O         19.6290   43.1190   -6.7380 O.2   463  THR463     -0.2714
     79  CB        18.9550   43.2570   -3.4800 C.3   463  THR463      0.1808
     80  OG1       18.5150   44.5290   -3.9640 O.3   463  THR463     -0.2208
     81  CG2       19.4840   43.4220   -2.0800 C.3   463  THR463      0.0379
     82  N         18.6410   41.3010   -5.7930 N.am  464  SER464     -0.1949
     83  CA        17.9110   40.9250   -7.0010 C.3   464  SER464      0.1924
     84  C         16.5050   41.5240   -6.9760 C.2   464  SER464      0.2314
     85  O         15.8510   41.6790   -8.0340 O.2   464  SER464     -0.2863
     86  CB        17.8360   39.4030   -7.1350 C.3   464  SER464      0.2116
     87  OG        19.1260   38.8500   -7.3800 O.3   464  SER464     -0.2180
     88  N         15.8960   44.5970   -6.1670 N.3   466  GLU466     -0.1231
     89  CA        16.0310   45.9810   -6.6540 C.3   466  GLU466      0.1699
     90  C         15.5020   46.1570   -8.0840 C.2   466  GLU466      0.2592
     91  O         15.0480   47.2430   -8.4520 O.2   466  GLU466     -0.2718
     92  CB        17.4970   46.4400   -6.5990 C.3   466  GLU466      0.0402
     93  CG        18.4420   45.6120   -7.4890 C.3   466  GLU466      0.1161
     94  CD        19.7420   46.3100   -7.8610 C.2   466  GLU466      0.3649
     95  OE1       19.9400   47.4720   -7.4430 O.co2 466  GLU466     -0.2457
     96  OE2       20.5640   45.6860   -8.5820 O.co2 466  GLU466     -0.2457
     97  N         15.5700   45.0880   -8.8820 N.am  467  GLU467     -0.1979
     98  CA        15.1630   45.1210  -10.2870 C.3   467  GLU467      0.1602
     99  C         13.6370   45.1340  -10.4140 C.2   467  GLU467      0.2287
    100  O         13.0940   45.0200  -11.5150 O.2   467  GLU467     -0.2864
    101  CB        15.7710   43.9350  -11.0490 C.3   467  GLU467      0.0415
    102  CG        16.0830   44.2080  -12.5300 C.3   467  GLU467      0.1163
    103  CD        17.4430   44.8710  -12.7630 C.2   467  GLU467      0.3649
    104  OE1       18.3340   44.7990  -11.8840 O.co2 467  GLU467     -0.2457
    105  OE2       17.6220   45.4590  -13.8480 O.co2 467  GLU467     -0.2457
@<TRIPOS>BOND
     1     9     8    1
     2     8     7    1
     3     7     6    1
     4     6     5    1
     5     5     2    1
     6    57    55   ar
     7     2     1    1
     8     2     3    1
     9    15    14    1
    10    13    12    2
    11    14    11    1
    12    55    56   ar
    13    55    54    1
    14     4     3    2
    15    10    11    1
    16    12    11    1
    17    12    16   am
    18    32    31    1
    19    54    53    1
    20    53    50    1
    21    16    17    1
    22    17    18    1
    23    17    20    1
    24    31    33    1
    25    31    28    1
    26    27    18   am
    27    27    28    1
    28    18    19    2
    29    20    21    1
    30    28    29    1
    31    50    49    1
    32    50    51    1
    33    30    29    2
    34    52    51    2
    35   105   103   ar
    36    29    34   am
    37    21    22   ar
    38    21    23   ar
    39    22    24   ar
    40   103   102    1
    41   103   104   ar
    42    23    25   ar
    43   102   101    1
    44    34    40    1
    45    34    35    1
    46    37    36    2
    47    24    26   ar
    48    40    39    1
    49    44    43    2
    50    36    35    1
    51    36    41   am
    52   100    99    2
    53    35    38    1
    54    25    26   ar
    55    48    46    1
    56   101    98    1
    57    42    41    1
    58    42    43    1
    59    42    45    1
    60    39    38    1
    61    99    98    1
    62    98    97    1
    63    46    45    1
    64    46    47    1
    65    97    90   am
    66    96    94   ar
    67    91    90    2
    68    90    89    1
    69    85    84    2
    70    66    64   ar
    71    66    67   ar
    72    94    93    1
    73    94    95   ar
    74    93    92    1
    75    87    86    1
    76    64    63   ar
    77    67    65   ar
    78    86    83    1
    79    83    84    1
    80    83    82    1
    81    78    77    2
    82    61    60    2
    83    89    92    1
    84    89    88    1
    85    63    65   ar
    86    63    62    1
    87    82    77   am
    88    77    76    1
    89    71    70    2
    90    60    59    1
    91    60    68   am
    92    69    70    1
    93    69    68    1
    94    69    72    1
    95    70    75   am
    96    62    59    1
    97    59    58    1
    98    68    74    1
    99    75    76    1
   100    76    79    1
   101    72    73    1
   102    80    79    1
   103    73    74    1
   104    79    81    1
