@<TRIPOS>MOLECULE
tmp/4ae1B00.pdb
 88 87 0 0 0
SMALL
GASTEIGER

@<TRIPOS>ATOM
      1  N         10.5120  -58.0350   63.2060 N.3    18  TYR18      -0.1227
      2  CA        11.3950  -59.0320   62.6220 C.3    18  TYR18       0.1736
      3  C         12.5780  -58.3840   61.8960 C.2    18  TYR18       0.2595
      4  O         12.4780  -57.2670   61.3430 O.2    18  TYR18      -0.2718
      5  CB        10.6230  -59.9490   61.6640 C.3    18  TYR18       0.0548
      6  CG         9.4630  -60.6990   62.3000 C.ar   18  TYR18      -0.0200
      7  CD1        9.6900  -61.7860   63.1380 C.ar   18  TYR18      -0.0009
      8  CD2        8.1360  -60.3320   62.0440 C.ar   18  TYR18      -0.0009
      9  CE1        8.6400  -62.4820   63.7170 C.ar   18  TYR18       0.0417
     10  CE2        7.0740  -61.0240   62.6340 C.ar   18  TYR18       0.0417
     11  CZ         7.3390  -62.0990   63.4660 C.ar   18  TYR18       0.1957
     12  OH         6.3130  -62.8020   64.0610 O.3    18  TYR18      -0.2866
     13  N         13.6960  -59.0990   61.9060 N.am   19  HIS19      -0.1961
     14  CA        14.9280  -58.6160   61.3030 C.3    19  HIS19       0.1787
     15  C         15.6610  -59.7800   60.6420 C.2    19  HIS19       0.2620
     16  O         16.0940  -60.7160   61.3130 O.2    19  HIS19      -0.2715
     17  CB        15.8320  -57.9780   62.3600 C.3    19  HIS19       0.0785
     18  CG        17.1340  -57.4910   61.8080 C.ar   19  HIS19       0.0821
     19  ND1       17.2800  -56.2420   61.2440 N.ar   19  HIS19      -0.2267
     20  CD2       18.3400  -58.0980   61.6960 C.ar   19  HIS19       0.1154
     21  CE1       18.5240  -56.0940   60.8190 C.ar   19  HIS19       0.1986
     22  NE2       19.1860  -57.2090   61.0750 N.ar   19  HIS19      -0.2212
     23  N         15.7920  -59.7240   59.3250 N.am   20  GLY20      -0.1954
     24  CA        16.4910  -60.7610   58.5960 C.3    20  GLY20       0.1869
     25  C         17.9830  -60.5760   58.7490 C.2    20  GLY20       0.2309
     26  O         18.4890  -59.4720   58.5800 O.2    20  GLY20      -0.2863
     27  N         16.9450  -51.4790   61.1780 N.3    39  TYR39      -0.1227
     28  CA        15.6600  -51.6990   60.5090 C.3    39  TYR39       0.1736
     29  C         15.0170  -52.9960   60.9150 C.2    39  TYR39       0.2596
     30  O         15.7010  -54.0050   61.0850 O.2    39  TYR39      -0.2718
     31  CB        15.8560  -51.7000   58.9850 C.3    39  TYR39       0.0548
     32  CG        16.0590  -50.3140   58.4380 C.ar   39  TYR39      -0.0200
     33  CD1       17.3080  -49.7000   58.4870 C.ar   39  TYR39      -0.0009
     34  CD2       14.9930  -49.5990   57.9190 C.ar   39  TYR39      -0.0009
     35  CE1       17.4880  -48.4120   58.0110 C.ar   39  TYR39       0.0417
     36  CE2       15.1590  -48.3170   57.4390 C.ar   39  TYR39       0.0417
     37  CZ        16.4070  -47.7270   57.4890 C.ar   39  TYR39       0.1957
     38  OH        16.5660  -46.4500   57.0140 O.3    39  TYR39      -0.2866
     39  N         13.6980  -52.9770   61.0700 N.am   40  SER40      -0.1938
     40  CA        12.9660  -54.2190   61.2460 C.3    40  SER40       0.2055
     41  C         11.6380  -54.1440   60.4800 C.2    40  SER40       0.2643
     42  O         11.3300  -53.1160   59.8780 O.2    40  SER40      -0.2714
     43  CB        12.7880  -54.5500   62.7390 C.3    40  SER40       0.2130
     44  OG        12.0490  -53.5520   63.4160 O.3    40  SER40      -0.2179
     45  N         10.8610  -55.2240   60.4780 N.am   41  THR41      -0.1950
     46  CA         9.6030  -55.2120   59.7230 C.3    41  THR41       0.1897
     47  C          8.5440  -56.0380   60.4120 C.2    41  THR41       0.2313
     48  O          8.8740  -56.9670   61.1600 O.2    41  THR41      -0.2863
     49  CB         9.7740  -55.7330   58.2670 C.3    41  THR41       0.1794
     50  OG1        8.4830  -55.8610   57.6510 O.3    41  THR41      -0.2208
     51  CG2       10.4380  -57.0970   58.2560 C.3    41  THR41       0.0378
     52  N         11.2250  -60.0690   55.9550 N.3    47  ALA47      -0.1245
     53  CA        12.4710  -60.1240   56.7150 C.3    47  ALA47       0.1562
     54  C         13.4460  -61.1260   56.0910 C.2    47  ALA47       0.2260
     55  O         14.6290  -60.8400   55.9350 O.2    47  ALA47      -0.2867
     56  CB        12.2030  -60.4850   58.1800 C.3    47  ALA47       0.0290
     57  N         16.1620  -60.4250   53.3590 N.3    50  TYR50      -0.1241
     58  CA        17.3490  -59.6680   53.7180 C.3    50  TYR50       0.1605
     59  C         18.4540  -60.5380   54.3020 C.2    50  TYR50       0.2264
     60  O         19.4830  -60.0170   54.7410 O.2    50  TYR50      -0.2867
     61  CB        16.9790  -58.5780   54.7160 C.3    50  TYR50       0.0534
     62  CG        16.1830  -57.4820   54.0790 C.ar   50  TYR50      -0.0201
     63  CD1       16.7860  -56.5970   53.1990 C.ar   50  TYR50      -0.0009
     64  CD2       14.8250  -57.3390   54.3370 C.ar   50  TYR50      -0.0009
     65  CE1       16.0690  -55.5910   52.5980 C.ar   50  TYR50       0.0417
     66  CE2       14.0960  -56.3340   53.7460 C.ar   50  TYR50       0.0417
     67  CZ        14.7230  -55.4650   52.8680 C.ar   50  TYR50       0.1957
     68  OH        14.0190  -54.4500   52.2690 O.3    50  TYR50      -0.2866
     69  N          6.4650  -50.3160   53.8360 N.3   125  PHE125     -0.1241
     70  CA         7.6310  -51.1130   53.4790 C.3   125  PHE125      0.1605
     71  C          8.0240  -50.8500   52.0200 C.2   125  PHE125      0.2264
     72  O          9.1800  -50.5720   51.7170 O.2   125  PHE125     -0.2867
     73  CB         7.3440  -52.5970   53.7320 C.3   125  PHE125      0.0534
     74  CG         8.4960  -53.5150   53.4130 C.ar  125  PHE125     -0.0203
     75  CD1        9.5950  -53.5990   54.2630 C.ar  125  PHE125     -0.0042
     76  CD2        8.4600  -54.3270   52.2840 C.ar  125  PHE125     -0.0042
     77  CE1       10.6490  -54.4600   53.9830 C.ar  125  PHE125     -0.0003
     78  CE2        9.5140  -55.1950   51.9980 C.ar  125  PHE125     -0.0003
     79  CZ        10.6140  -55.2560   52.8440 C.ar  125  PHE125     -0.0000
     80  N          7.7590  -51.0790   57.5880 N.3   133  GLU133     -0.1245
     81  CA         9.1650  -51.0030   57.9520 C.3   133  GLU133      0.1567
     82  C          9.3360  -50.1640   59.2160 C.2   133  GLU133      0.2260
     83  O          8.7700  -49.0730   59.3180 O.2   133  GLU133     -0.2867
     84  CB         9.9340  -50.3780   56.7930 C.3   133  GLU133      0.0388
     85  CG        11.3230  -49.8880   57.1190 C.3   133  GLU133      0.1160
     86  CD        12.0390  -49.3900   55.8780 C.2   133  GLU133      0.3649
     87  OE1       12.5540  -50.2350   55.1130 O.co2 133  GLU133     -0.2457
     88  OE2       12.0830  -48.1590   55.6630 O.co2 133  GLU133     -0.2457
@<TRIPOS>BOND
     1    72    71    2
     2    78    76   ar
     3    78    79   ar
     4    71    70    1
     5    68    67    1
     6    76    74   ar
     7    65    67   ar
     8    65    63   ar
     9    79    77   ar
    10    67    66   ar
    11    63    62   ar
    12    57    58    1
    13    74    73    1
    14    74    75   ar
    15    70    73    1
    16    70    69    1
    17    58    59    1
    18    58    61    1
    19    66    64   ar
    20    77    75   ar
    21    62    64   ar
    22    62    61    1
    23    59    60    2
    24    87    86   ar
    25    88    86   ar
    26    86    85    1
    27    55    54    2
    28    52    53    1
    29    54    53    1
    30    53    56    1
    31    84    85    1
    32    84    81    1
    33    38    37    1
    34    36    37   ar
    35    36    34   ar
    36    37    35   ar
    37    80    81    1
    38    50    49    1
    39    34    32   ar
    40    81    82    1
    41    35    33   ar
    42    51    49    1
    43    49    46    1
    44    32    33   ar
    45    32    31    1
    46    26    25    2
    47    24    25    1
    48    24    23    1
    49    31    28    1
    50    82    83    2
    51    23    15   am
    52    46    47    1
    53    46    45    1
    54    42    41    2
    55    47    48    2
    56    45    41   am
    57    41    40    1
    58    28    29    1
    59    28    27    1
    60    15    14    1
    61    15    16    2
    62    21    22   ar
    63    21    19   ar
    64    29    39   am
    65    29    30    2
    66    39    40    1
    67    22    20   ar
    68    19    18   ar
    69    40    43    1
    70    14    13    1
    71    14    17    1
    72     4     3    2
    73     5     6    1
    74     5     2    1
    75    20    18   ar
    76    18    17    1
    77     3    13   am
    78     3     2    1
    79     8     6   ar
    80     8    10   ar
    81     6     7   ar
    82     2     1    1
    83    10    11   ar
    84    43    44    1
    85     7     9   ar
    86    11     9   ar
    87    11    12    1
