@<TRIPOS>MOLECULE
tmp/4ae3A02.pdb
 104 104 0 0 0
SMALL
GASTEIGER

@<TRIPOS>ATOM
      1  N         20.3870   21.5870   34.1530 N.3   509  ASP509     -0.1225
      2  CA        20.4980   21.1520   32.7670 C.3   509  ASP509      0.1805
      3  C         19.2630   21.5860   31.9700 C.2   509  ASP509      0.2597
      4  O         19.3660   22.0850   30.8390 O.2   509  ASP509     -0.2718
      5  CB        20.5850   19.6230   32.7140 C.3   509  ASP509      0.1424
      6  CG        21.9380   19.0860   33.1830 C.2   509  ASP509      0.3668
      7  OD1       22.8860   19.8850   33.3430 O.co2 509  ASP509     -0.2456
      8  OD2       22.0460   17.8620   33.4220 O.co2 509  ASP509     -0.2456
      9  N         18.1070   21.4840   32.6130 N.am  510  LEU510     -0.1979
     10  CA        16.8750   21.9770   32.0330 C.3   510  LEU510      0.1596
     11  C         17.0340   23.4460   31.6930 C.2   510  LEU510      0.2287
     12  O         16.5770   23.8860   30.6410 O.2   510  LEU510     -0.2864
     13  CB        15.6770   21.7390   32.9570 C.3   510  LEU510      0.0297
     14  CG        14.3770   22.4410   32.5770 C.3   510  LEU510      0.0022
     15  CD1       13.8910   22.0100   31.1910 C.3   510  LEU510      0.0001
     16  CD2       13.2740   22.2030   33.6490 C.3   510  LEU510      0.0001
     17  N         19.9820   25.2710   31.3380 N.3   512  ASP512     -0.1225
     18  CA        21.1240   25.7680   30.5730 C.3   512  ASP512      0.1805
     19  C         21.8650   24.7150   29.7440 C.2   512  ASP512      0.2598
     20  O         23.0020   24.9520   29.3160 O.2   512  ASP512     -0.2718
     21  CB        22.1330   26.4260   31.5380 C.3   512  ASP512      0.1424
     22  CG        22.9600   25.3830   32.3590 C.2   512  ASP512      0.3668
     23  OD1       23.0920   24.2020   31.9950 O.co2 512  ASP512     -0.2456
     24  OD2       23.5560   25.7500   33.3690 O.co2 512  ASP512     -0.2456
     25  N         21.1820   23.6120   29.4390 N.am  513  GLY513     -0.1942
     26  CA        21.7740   22.5310   28.6750 C.3   513  GLY513      0.2014
     27  C         22.0310   22.9250   27.2460 C.2   513  GLY513      0.2639
     28  O         21.4190   23.8750   26.7460 O.2   513  GLY513     -0.2714
     29  N         22.9600   22.2300   26.5970 N.am  514  ARG514     -0.1963
     30  CA        23.2200   22.4680   25.1830 C.3   514  ARG514      0.1729
     31  C         22.7110   21.4090   24.2200 C.2   514  ARG514      0.2616
     32  O         21.9840   21.7240   23.2790 O.2   514  ARG514     -0.2715
     33  CB        24.7110   22.6610   24.9480 C.3   514  ARG514      0.0348
     34  CG        25.0760   23.9880   24.3780 C.3   514  ARG514      0.0492
     35  CD        24.5710   25.0960   25.2830 C.3   514  ARG514      0.2205
     36  NE        25.5930   26.1190   25.5250 N.pl3 514  ARG514     -0.0865
     37  CZ        25.4630   27.4110   25.2310 C.cat 514  ARG514      0.5346
     38  NH1       24.3420   27.8620   24.6710 N.pl3 514  ARG514      0.1354
     39  NH2       26.4610   28.2500   25.5050 N.pl3 514  ARG514      0.1354
     40  N         22.9740   20.1400   24.5200 N.am  515  GLN515     -0.1964
     41  CA        22.3540   19.0670   23.7550 C.3   515  GLN515      0.1718
     42  C         21.8480   17.9740   24.6520 C.2   515  GLN515      0.2458
     43  O         22.6290   17.3340   25.3610 O.2   515  GLN515     -0.2730
     44  CB        23.3000   18.4430   22.7020 C.3   515  GLN515      0.0407
     45  CG        23.7520   19.2750   21.4900 C.3   515  GLN515      0.0908
     46  CD        24.5850   20.4970   21.8360 C.2   515  GLN515      0.2608
     47  OE1       25.5960   20.3910   22.5410 O.2   515  GLN515     -0.2717
     48  NE2       24.1900   21.6630   21.3080 N.am  515  GLN515     -0.0878
     49  N         20.5260   17.7680   24.6410 N.am  516  PRO516     -0.2716
     50  CA        19.5180   18.5810   23.9330 C.3   516  PRO516      0.1521
     51  C         19.4540   20.0050   24.5180 C.2   516  PRO516      0.2440
     52  O         19.8890   20.2160   25.6560 O.2   516  PRO516     -0.2731
     53  CB        18.2180   17.8160   24.2040 C.3   516  PRO516      0.0310
     54  CG        18.4660   17.1350   25.5070 C.3   516  PRO516      0.0237
     55  CD        19.9100   16.7330   25.4850 C.3   516  PRO516      0.0939
     56  N         18.9930   20.9810   23.7220 N.am  517  PRO517     -0.2716
     57  CA        18.9000   22.3640   24.2170 C.3   517  PRO517      0.1536
     58  C         18.0000   22.5120   25.4500 C.2   517  PRO517      0.2599
     59  O         16.9490   21.8610   25.5410 O.2   517  PRO517     -0.2715
     60  CB        18.2940   23.1290   23.0240 C.3   517  PRO517      0.0310
     61  CG        17.6740   22.0810   22.1480 C.3   517  PRO517      0.0237
     62  CD        18.4730   20.8290   22.3520 C.3   517  PRO517      0.0939
     63  N         18.4680   23.3000   26.4180 N.am  518  GLY518     -0.1955
     64  CA        17.6850   23.6800   27.5760 C.3   518  GLY518      0.1869
     65  C         16.8430   24.9070   27.2690 C.2   518  GLY518      0.2309
     66  O         16.8620   25.4160   26.1340 O.2   518  GLY518     -0.2863
     67  N          9.3480   21.0200   23.6900 N.3   544  HIS544     -0.1226
     68  CA        10.5500   20.2930   24.0680 C.3   544  HIS544      0.1752
     69  C         10.4960   19.6120   25.4480 C.2   544  HIS544      0.2596
     70  O         11.1110   18.5550   25.6480 O.2   544  HIS544     -0.2718
     71  CB        11.7440   21.2430   24.0460 C.3   544  HIS544      0.0759
     72  CG        12.3320   21.4070   22.6830 C.ar  544  HIS544      0.0818
     73  ND1       13.5700   20.9080   22.3390 N.ar  544  HIS544     -0.2268
     74  CD2       11.8460   22.0060   21.5740 C.ar  544  HIS544      0.1154
     75  CE1       13.8150   21.1840   21.0710 C.ar  544  HIS544      0.1986
     76  NE2       12.7880   21.8540   20.5870 N.ar  544  HIS544     -0.2212
     77  N          9.8000   20.2180   26.4080 N.am  545  PHE545     -0.1976
     78  CA         9.8920   19.7420   27.8040 C.3   545  PHE545      0.1639
     79  C          8.6120   19.1750   28.4380 C.2   545  PHE545      0.2290
     80  O          8.6720   18.4670   29.4440 O.2   545  PHE545     -0.2864
     81  CB        10.5220   20.8000   28.6910 C.3   545  PHE545      0.0560
     82  CG        11.7680   21.3640   28.1110 C.ar  545  PHE545     -0.0200
     83  CD1       12.8500   20.5510   27.8190 C.ar  545  PHE545     -0.0042
     84  CD2       11.8350   22.7190   27.8080 C.ar  545  PHE545     -0.0042
     85  CE1       14.0000   21.0810   27.2490 C.ar  545  PHE545     -0.0003
     86  CE2       12.9770   23.2650   27.2510 C.ar  545  PHE545     -0.0003
     87  CZ        14.0740   22.4460   26.9720 C.ar  545  PHE545     -0.0000
     88  N          8.1390   15.4960   29.2310 N.3   548  LYS548     -0.1231
     89  CA         9.4360   14.9440   28.8530 C.3   548  LYS548      0.1693
     90  C         10.4620   15.1870   29.9700 C.2   548  LYS548      0.2592
     91  O         11.1890   14.2670   30.3520 O.2   548  LYS548     -0.2718
     92  CB         9.9150   15.5510   27.5360 C.3   548  LYS548      0.0285
     93  CG         9.0500   15.1770   26.3320 C.3   548  LYS548      0.0035
     94  CD         9.6860   15.6650   25.0320 C.3   548  LYS548      0.0206
     95  CE         8.9020   15.2460   23.8020 C.3   548  LYS548      0.1093
     96  NZ         9.5970   15.6170   22.5230 N.3   548  LYS548     -0.1314
     97  N         10.6070   16.4350   30.4150 N.am  549  ASN549     -0.1974
     98  CA        11.5540   16.7420   31.4720 C.3   549  ASN549      0.1688
     99  C         10.8300   16.7820   32.8220 C.2   549  ASN549      0.2292
    100  O          9.8190   17.4730   32.9760 O.2   549  ASN549     -0.2864
    101  CB        12.2640   18.0560   31.2040 C.3   549  ASN549      0.1181
    102  CG        13.4600   18.2520   32.1190 C.2   549  ASN549      0.2629
    103  OD1       13.3310   18.3740   33.3370 O.2   549  ASN549     -0.2716
    104  ND2       14.6430   18.1880   31.5390 N.am  549  ASN549     -0.0877
@<TRIPOS>BOND
     1    76    75   ar
     2    76    74   ar
     3    75    73   ar
     4    48    46   am
     5    45    46    1
     6    45    44    1
     7    74    72   ar
     8    46    47    2
     9    61    62    1
    10    61    60    1
    11    73    72   ar
    12    62    56    1
    13    96    95    1
    14    72    71    1
    15    44    41    1
    16    60    57    1
    17    32    31    2
    18    67    68    1
    19    56    57    1
    20    56    51   am
    21    41    40    1
    22    41    42    1
    23    95    94    1
    24    50    53    1
    25    50    51    1
    26    50    49    1
    27    71    68    1
    28    68    69    1
    29    53    54    1
    30    57    58    1
    31    31    40   am
    32    31    30    1
    33    34    33    1
    34    34    35    1
    35    51    52    2
    36    49    42   am
    37    49    55    1
    38    42    43    2
    39    38    37    1
    40    33    30    1
    41    94    93    1
    42    30    29    1
    43    37    39    1
    44    37    36    2
    45    35    36    1
    46    69    70    2
    47    69    77   am
    48    58    59    2
    49    58    63   am
    50    55    54    1
    51    66    65    2
    52    93    92    1
    53    77    78    1
    54    63    64    1
    55    29    27   am
    56    28    27    2
    57    87    85   ar
    58    87    86   ar
    59    27    26    1
    60    85    83   ar
    61    86    84   ar
    62    65    64    1
    63    92    89    1
    64    78    79    1
    65    78    81    1
    66    84    82   ar
    67    83    82   ar
    68    82    81    1
    69    79    80    2
    70    26    25    1
    71    89    88    1
    72    89    90    1
    73    20    19    2
    74    25    19   am
    75    19    18    1
    76    90    91    2
    77    90    97   am
    78    97    98    1
    79    18    17    1
    80    18    21    1
    81    12    11    2
    82     4     3    2
    83    15    14    1
    84   101    98    1
    85   101   102    1
    86    98    99    1
    87    21    22    1
    88   104   102   am
    89    11    10    1
    90     3     9   am
    91     3     2    1
    92    23    22   ar
    93    10     9    1
    94    10    13    1
    95   102   103    2
    96    22    24   ar
    97    14    13    1
    98    14    16    1
    99     5     2    1
   100     5     6    1
   101     2     1    1
   102    99   100    2
   103     6     7   ar
   104     6     8   ar
