@<TRIPOS>MOLECULE
tmp/4ae3A01.pdb
 132 125 0 0 0
SMALL
GASTEIGER

@<TRIPOS>ATOM
      1  N         22.1530   43.1690   36.7210 N.3   257  LEU257     -0.1245
      2  CA        21.3620   44.1640   37.3770 C.3   257  LEU257      0.1561
      3  C         19.9980   44.0850   36.7870 C.2   257  LEU257      0.2260
      4  O         19.8560   44.0030   35.5730 O.2   257  LEU257     -0.2867
      5  CB        21.9760   45.5310   37.1200 C.3   257  LEU257      0.0270
      6  CG        21.3690   46.7920   37.6970 C.3   257  LEU257      0.0019
      7  CD1       21.5270   46.8700   39.2060 C.3   257  LEU257      0.0001
      8  CD2       22.0600   47.9620   36.9940 C.3   257  LEU257      0.0001
      9  N         17.6990   45.8390   35.4000 N.3   259  LYS259     -0.1245
     10  CA        17.4480   47.1300   34.7620 C.3   259  LYS259      0.1561
     11  C         15.9560   47.4370   34.5460 C.2   259  LYS259      0.2260
     12  O         15.5690   48.6060   34.5440 O.2   259  LYS259     -0.2867
     13  CB        18.0850   47.1200   33.3760 C.3   259  LYS259      0.0271
     14  CG        19.5880   47.0300   33.4690 C.3   259  LYS259      0.0035
     15  CD        20.2250   47.1030   32.1250 C.3   259  LYS259      0.0206
     16  CE        19.4710   46.4090   31.0840 C.3   259  LYS259      0.1093
     17  NZ        20.2270   46.6090   29.8300 N.3   259  LYS259     -0.1314
     18  N         14.1640   51.5000   26.8360 N.3   414  ALA414     -0.1245
     19  CA        15.3900   50.8180   26.4730 C.3   414  ALA414      0.1562
     20  C         16.5540   51.7530   26.6470 C.2   414  ALA414      0.2260
     21  O         17.6130   51.3670   27.1430 O.2   414  ALA414     -0.2867
     22  CB        15.3430   50.2320   25.0600 C.3   414  ALA414      0.0290
     23  N         17.0940   52.1910   30.4770 N.3   417  LYS417     -0.1231
     24  CA        17.7210   51.0140   31.0320 C.3   417  LYS417      0.1693
     25  C         19.2010   50.9250   30.6350 C.2   417  LYS417      0.2591
     26  O         20.0400   50.5470   31.4480 O.2   417  LYS417     -0.2718
     27  CB        16.9450   49.7490   30.6380 C.3   417  LYS417      0.0285
     28  CG        15.5410   49.6470   31.2710 C.3   417  LYS417      0.0035
     29  CD        14.7780   48.3330   30.9420 C.3   417  LYS417      0.0206
     30  CE        14.3850   48.2100   29.4890 C.3   417  LYS417      0.1093
     31  NZ        13.7780   46.8960   29.1530 N.3   417  LYS417     -0.1314
     32  N         19.5070   51.2350   29.3800 N.am  418  ALA418     -0.1980
     33  CA        20.8860   51.2480   28.9010 C.3   418  ALA418      0.1597
     34  C         21.6730   52.3020   29.6710 C.2   418  ALA418      0.2287
     35  O         22.8090   52.0520   30.0900 O.2   418  ALA418     -0.2864
     36  CB        20.9510   51.5120   27.3970 C.3   418  ALA418      0.0319
     37  N         22.1930   50.9910   33.3900 N.3   421  GLY421     -0.1210
     38  CA        23.1150   49.8670   33.4360 C.3   421  GLY421      0.1956
     39  C         24.5510   50.2460   33.0860 C.2   421  GLY421      0.2611
     40  O         25.5090   49.7770   33.6990 O.2   421  GLY421     -0.2717
     41  N         24.7210   51.1080   32.0950 N.am  422  ARG422     -0.1979
     42  CA        26.0640   51.5650   31.7970 C.3   422  ARG422      0.1597
     43  C         26.6190   52.4270   32.9270 C.2   422  ARG422      0.2287
     44  O         27.7810   52.3390   33.2720 O.2   422  ARG422     -0.2864
     45  CB        26.1190   52.2760   30.4550 C.3   422  ARG422      0.0334
     46  CG        25.8020   51.2920   29.3410 C.3   422  ARG422      0.0492
     47  CD        25.6470   51.9870   28.0190 C.3   422  ARG422      0.2205
     48  NE        25.1940   51.0660   26.9860 N.pl3 422  ARG422     -0.0865
     49  CZ        25.2470   51.3380   25.6920 C.cat 422  ARG422      0.5346
     50  NH1       25.8250   52.4590   25.2830 N.pl3 422  ARG422      0.1354
     51  NH2       24.7610   50.4790   24.8140 N.pl3 422  ARG422      0.1354
     52  N         25.8370   52.1480   36.0750 N.3   424  PHE424     -0.1227
     53  CA        26.1430   51.1970   37.1360 C.3   424  PHE424      0.1736
     54  C         27.5080   50.5240   36.8740 C.2   424  PHE424      0.2595
     55  O         28.3400   50.3200   37.7720 O.2   424  PHE424     -0.2718
     56  CB        25.0600   50.1240   37.3090 C.3   424  PHE424      0.0547
     57  CG        25.2180   49.3150   38.5720 C.ar  424  PHE424     -0.0202
     58  CD1       24.8060   49.8400   39.7950 C.ar  424  PHE424     -0.0042
     59  CD2       25.9030   48.1130   38.5730 C.ar  424  PHE424     -0.0042
     60  CE1       24.9700   49.1160   40.9950 C.ar  424  PHE424     -0.0003
     61  CE2       26.0830   47.3800   39.7630 C.ar  424  PHE424     -0.0003
     62  CZ        25.6330   47.8780   40.9710 C.ar  424  PHE424     -0.0000
     63  N         27.6780   50.1000   35.6330 N.am  425  LEU425     -0.1980
     64  CA        28.9210   49.5050   35.2150 C.3   425  LEU425      0.1596
     65  C         30.0940   50.4380   35.4140 C.2   425  LEU425      0.2287
     66  O         31.1400   50.0430   35.9230 O.2   425  LEU425     -0.2864
     67  CB        28.8300   49.1010   33.7620 C.3   425  LEU425      0.0297
     68  CG        29.5110   47.8100   33.3520 C.3   425  LEU425      0.0022
     69  CD1       29.5290   46.8100   34.4970 C.3   425  LEU425      0.0001
     70  CD2       28.7140   47.2640   32.1820 C.3   425  LEU425      0.0001
     71  N         17.6890   42.4440   24.3400 N.3   584  ASP584     -0.1225
     72  CA        18.1350   43.6990   24.9350 C.3   584  ASP584      0.1790
     73  C         18.5220   44.7790   23.9220 C.2   584  ASP584      0.2440
     74  O         19.6550   45.2460   23.9500 O.2   584  ASP584     -0.2733
     75  CB        19.3290   43.4180   25.8480 C.3   584  ASP584      0.1423
     76  CG        19.6170   44.5430   26.7710 C.2   584  ASP584      0.3668
     77  OD1       18.7070   45.3650   26.9740 O.co2 584  ASP584     -0.2456
     78  OD2       20.7670   44.6190   27.2590 O.co2 584  ASP584     -0.2456
     79  N         17.5810   45.1780   23.0360 N.am  585  PRO585     -0.2718
     80  CA        17.8510   46.1380   21.9520 C.3   585  PRO585      0.1535
     81  C         17.9730   47.5880   22.3730 C.2   585  PRO585      0.2598
     82  O         17.4100   48.0130   23.3830 O.2   585  PRO585     -0.2715
     83  CB        16.6620   45.9560   21.0310 C.3   585  PRO585      0.0310
     84  CG        15.5840   45.5940   21.9340 C.3   585  PRO585      0.0237
     85  CD        16.1760   44.7500   23.0210 C.3   585  PRO585      0.0939
     86  N         18.7050   48.3470   21.5770 N.am  586  LEU586     -0.1978
     87  CA        18.7390   49.7860   21.6820 C.3   586  LEU586      0.1596
     88  C         19.0010   50.3500   20.2850 C.2   586  LEU586      0.2287
     89  O         19.9170   49.8670   19.5990 O.2   586  LEU586     -0.2864
     90  CB        19.8660   50.2160   22.6030 C.3   586  LEU586      0.0297
     91  CG        20.0190   51.7130   22.8370 C.3   586  LEU586      0.0022
     92  CD1       18.7580   52.2960   23.5570 C.3   586  LEU586      0.0001
     93  CD2       21.2540   51.9450   23.6490 C.3   586  LEU586      0.0001
     94  N         22.1470   55.6850   20.4260 N.3   591  GLU591     -0.1245
     95  CA        23.5510   55.6750   20.8010 C.3   591  GLU591      0.1567
     96  C         24.2780   56.8240   20.1390 C.2   591  GLU591      0.2260
     97  O         25.0540   57.5110   20.7940 O.2   591  GLU591     -0.2867
     98  CB        24.1930   54.3370   20.4220 C.3   591  GLU591      0.0388
     99  CG        23.6940   53.1950   21.3050 C.3   591  GLU591      0.1160
    100  CD        24.3430   51.8700   20.9950 C.2   591  GLU591      0.3649
    101  OE1       24.3790   51.4890   19.8030 O.co2 591  GLU591     -0.2457
    102  OE2       24.7940   51.1970   21.9560 O.co2 591  GLU591     -0.2457
    103  N         32.3010   49.4700   28.2340 N.3   611  ILE611     -0.1231
    104  CA        30.9690   49.8120   28.6990 C.3   611  ILE611      0.1692
    105  C         29.8830   49.7460   27.6290 C.2   611  ILE611      0.2592
    106  O         28.7590   49.2580   27.8760 O.2   611  ILE611     -0.2718
    107  CB        30.9710   51.2000   29.3540 C.3   611  ILE611      0.0266
    108  CG1       31.8110   51.1840   30.6220 C.3   611  ILE611      0.0019
    109  CG2       29.5720   51.6220   29.7150 C.3   611  ILE611      0.0020
    110  CD1       32.2530   52.5330   31.0310 C.3   611  ILE611      0.0001
    111  N         30.2420   50.1910   26.4250 N.am  612  ALA612     -0.1966
    112  CA        29.2390   50.4790   25.4200 C.3   612  ALA612      0.1728
    113  C         29.1470   49.3820   24.3670 C.2   612  ALA612      0.2617
    114  O         28.1130   49.2410   23.7210 O.2   612  ALA612     -0.2715
    115  CB        29.5770   51.7620   24.7500 C.3   612  ALA612      0.0334
    116  N         30.2370   48.6530   24.1450 N.am  613  SER613     -0.1936
    117  CA        30.3140   47.7320   23.0060 C.3   613  SER613      0.2055
    118  C         29.6750   46.4070   23.4040 C.2   613  SER613      0.2642
    119  O         29.6660   46.0410   24.5730 O.2   613  SER613     -0.2714
    120  CB        31.7520   47.4970   22.5180 C.3   613  SER613      0.2130
    121  OG        32.5180   46.8360   23.5130 O.3   613  SER613     -0.2179
    122  N         29.1510   45.6810   22.4280 N.am  614  ARG614     -0.1977
    123  CA        28.5680   44.3860   22.7030 C.3   614  ARG614      0.1597
    124  C         29.1480   43.2710   21.8440 C.2   614  ARG614      0.2287
    125  O         29.3860   43.4750   20.6580 O.2   614  ARG614     -0.2864
    126  CB        27.0730   44.4700   22.4400 C.3   614  ARG614      0.0334
    127  CG        26.2900   43.3460   23.0730 C.3   614  ARG614      0.0492
    128  CD        24.8290   43.7070   23.0820 C.3   614  ARG614      0.2205
    129  NE        23.9390   42.5560   23.1410 N.pl3 614  ARG614     -0.0865
    130  CZ        22.6230   42.6650   23.0230 C.cat 614  ARG614      0.5346
    131  NH1       22.0790   43.8700   22.8370 N.pl3 614  ARG614      0.1354
    132  NH2       21.8540   41.5900   23.1160 N.pl3 614  ARG614      0.1354
@<TRIPOS>BOND
     1    89    88    2
     2   101   100   ar
     3    96    97    2
     4    96    95    1
     5    88    87    1
     6    98    95    1
     7    98    99    1
     8    94    95    1
     9   125   124    2
    10   100    99    1
    11   100   102   ar
    12    83    84    1
    13    83    80    1
    14    86    87    1
    15    86    81   am
    16    87    90    1
    17   124   123    1
    18    84    85    1
    19    80    81    1
    20    80    79    1
    21    81    82    2
    22   122   123    1
    23   122   118   am
    24   126   123    1
    25   126   127    1
    26   120   117    1
    27   120   121    1
    28    90    91    1
    29    91    92    1
    30    91    93    1
    31   131   130    1
    32   117   118    1
    33   117   116    1
    34    85    79    1
    35   130   132    1
    36   130   129    2
    37    79    73   am
    38   127   128    1
    39   128   129    1
    40   118   119    2
    41   114   113    2
    42    73    74    2
    43    73    72    1
    44   116   113   am
    45    71    72    1
    46   113   112    1
    47   115   112    1
    48    51    49    1
    49    72    75    1
    50    22    19    1
    51    50    49    1
    52   112   111    1
    53    49    48    2
    54    75    76    1
    55   111   105   am
    56    19    20    1
    57    19    18    1
    58    20    21    2
    59    76    77   ar
    60    76    78   ar
    61    48    47    1
    62    36    33    1
    63   105   106    2
    64   105   104    1
    65    47    46    1
    66   103   104    1
    67   104   107    1
    68    33    32    1
    69    33    34    1
    70    31    30    1
    71    46    45    1
    72   107   109    1
    73   107   108    1
    74    32    25   am
    75    30    29    1
    76    34    35    2
    77    17    16    1
    78    45    42    1
    79    23    24    1
    80   108   110    1
    81    25    24    1
    82    25    26    2
    83    27    24    1
    84    27    28    1
    85    29    28    1
    86    16    15    1
    87    42    41    1
    88    42    43    1
    89    41    39   am
    90    15    14    1
    91    70    68    1
    92    43    44    2
    93    39    38    1
    94    39    40    2
    95    68    67    1
    96    68    69    1
    97    13    14    1
    98    13    10    1
    99    37    38    1
   100    67    64    1
   101    12    11    2
   102    11    10    1
   103    10     9    1
   104    64    65    1
   105    64    63    1
   106    65    66    2
   107     4     3    2
   108    63    54   am
   109    52    53    1
   110     1     2    1
   111     3     2    1
   112    54    53    1
   113    54    55    2
   114     8     6    1
   115     5     2    1
   116     5     6    1
   117    53    56    1
   118    56    57    1
   119     6     7    1
   120    57    59   ar
   121    57    58   ar
   122    59    61   ar
   123    61    62   ar
   124    58    60   ar
   125    62    60   ar
