@<TRIPOS>MOLECULE
tmp/4aecA00.pdb
 140 134 0 0 0
SMALL
GASTEIGER

@<TRIPOS>ATOM
      1  N         29.3730    4.6800  -14.8980 N.3    53  VAL53      -0.1231
      2  CA        27.9700    5.0300  -15.0730 C.3    53  VAL53       0.1692
      3  C         27.8090    6.5080  -15.4930 C.2    53  VAL53       0.2591
      4  O         26.8330    6.8470  -16.1440 O.2    53  VAL53      -0.2718
      5  CB        27.1400    4.7400  -13.7590 C.3    53  VAL53       0.0266
      6  CG1       27.6480    5.6010  -12.6150 C.3    53  VAL53       0.0020
      7  CG2       25.6640    4.9700  -13.9880 C.3    53  VAL53       0.0020
      8  N         28.7560    7.3780  -15.1170 N.am   54  LYS54      -0.1980
      9  CA        28.6260    8.8070  -15.3830 C.3    54  LYS54       0.1596
     10  C         28.7070    9.1890  -16.8610 C.2    54  LYS54       0.2287
     11  O         28.2440   10.2700  -17.2560 O.2    54  LYS54      -0.2864
     12  CB        29.6720    9.5940  -14.5980 C.3    54  LYS54       0.0298
     13  CG        29.4740    9.6290  -13.0470 C.3    54  LYS54       0.0038
     14  CD        28.0170    9.6310  -12.5730 C.3    54  LYS54       0.0206
     15  CE        27.9440   10.1040  -11.1140 C.3    54  LYS54       0.1093
     16  NZ        28.8290    9.3590  -10.1890 N.3    54  LYS54      -0.1314
     17  N         33.7280   10.8760  -11.2380 N.3    85  ASN85      -0.1240
     18  CA        33.6240   10.3870  -12.6050 C.3    85  ASN85       0.1653
     19  C         32.8660   11.3060  -13.5530 C.2    85  ASN85       0.2266
     20  O         32.9230   11.1450  -14.7870 O.2    85  ASN85      -0.2867
     21  CB        32.9110    9.0250  -12.5790 C.3    85  ASN85       0.1155
     22  CG        33.8110    7.9240  -12.0300 C.2    85  ASN85       0.2627
     23  OD1       34.9970    7.9120  -12.3350 O.2    85  ASN85      -0.2716
     24  ND2       33.2580    7.0130  -11.1800 N.am   85  ASN85      -0.0877
     25  N         19.7480   13.8860  -15.2800 N.3   161  ASN161     -0.1240
     26  CA        20.5640   12.8190  -14.7460 C.3   161  ASN161      0.1653
     27  C         19.6510   11.5880  -14.4560 C.2   161  ASN161      0.2266
     28  O         19.7960   10.5500  -15.0850 O.2   161  ASN161     -0.2867
     29  CB        21.3630   13.3960  -13.5680 C.3   161  ASN161      0.1155
     30  CG        21.9330   12.3340  -12.5940 C.2   161  ASN161      0.2627
     31  OD1       21.7600   11.1140  -12.7560 O.2   161  ASN161     -0.2716
     32  ND2       22.6460   12.8320  -11.5800 N.am  161  ASN161     -0.0877
     33  N         18.6250    7.4720  -16.8660 N.3   165  HIS165     -0.1241
     34  CA        18.3600    6.1550  -16.2180 C.3   165  HIS165      0.1621
     35  C         16.9370    5.5790  -16.3970 C.2   165  HIS165      0.2264
     36  O         16.7510    4.3460  -16.5730 O.2   165  HIS165     -0.2867
     37  CB        18.7800    6.1660  -14.7480 C.3   165  HIS165      0.0745
     38  CG        20.2240    6.4540  -14.5590 C.ar  165  HIS165      0.0817
     39  ND1       21.2110    5.6160  -15.0380 N.ar  165  HIS165     -0.2268
     40  CD2       20.8620    7.4900  -13.9720 C.ar  165  HIS165      0.1154
     41  CE1       22.3920    6.1180  -14.7330 C.ar  165  HIS165      0.1986
     42  NE2       22.2170    7.2620  -14.1030 N.ar  165  HIS165     -0.2212
     43  N         24.1060    1.7960   -5.0970 N.3   187  GLY187     -0.1210
     44  CA        24.6930    2.9110   -4.3700 C.3   187  GLY187      0.1956
     45  C         24.0940    4.2540   -4.7370 C.2   187  GLY187      0.2612
     46  O         23.6570    4.4730   -5.9030 O.2   187  GLY187     -0.2717
     47  N         23.9970    5.1650   -3.7630 N.am  188  ILE188     -0.1965
     48  CA        23.5150    6.5200   -4.0530 C.3   188  ILE188      0.1727
     49  C         24.6300    7.5880   -3.9720 C.2   188  ILE188      0.2617
     50  O         25.2310    7.7670   -2.9190 O.2   188  ILE188     -0.2715
     51  CB        22.3730    6.9200   -3.0750 C.3   188  ILE188      0.0290
     52  CG1       21.1370    6.0470   -3.2770 C.3   188  ILE188      0.0022
     53  CG2       22.0080    8.3500   -3.2720 C.3   188  ILE188      0.0023
     54  CD1       20.1910    5.9080   -1.9620 C.3   188  ILE188      0.0001
     55  N         24.8680    8.3520   -5.0360 N.am  189  GLY189     -0.1940
     56  CA        25.7620    9.5090   -4.9550 C.3   189  GLY189      0.2014
     57  C         24.8940   10.7020   -5.3050 C.2   189  GLY189      0.2640
     58  O         24.5830   11.5340   -4.4590 O.2   189  GLY189     -0.2714
     59  N         24.4480   10.7850   -6.5670 N.am  190  THR190     -0.1936
     60  CA        23.5290   11.8420   -6.9490 C.3   190  THR190      0.2028
     61  C         22.0980   11.3830   -6.7890 C.2   190  THR190      0.2643
     62  O         21.2310   12.1950   -6.7650 O.2   190  THR190     -0.2714
     63  CB        23.7180   12.2660   -8.4440 C.3   190  THR190      0.1808
     64  OG1       23.3240   11.1810   -9.3090 O.3   190  THR190     -0.2208
     65  CG2       25.1760   12.7360   -8.7230 C.3   190  THR190      0.0379
     66  N         21.8560   10.0800   -6.7330 N.am  191  GLY191     -0.1939
     67  CA        20.4990    9.5200   -6.6790 C.3   191  GLY191      0.2014
     68  C         19.9290    9.1900   -8.0590 C.2   191  GLY191      0.2639
     69  O         18.8320    8.5700   -8.1970 O.2   191  GLY191     -0.2714
     70  N         20.6680    9.5890   -9.1000 N.am  192  GLY192     -0.1939
     71  CA        20.1810    9.4010  -10.4820 C.3   192  GLY192      0.2014
     72  C         19.7860    7.9890  -10.8570 C.2   192  GLY192      0.2640
     73  O         18.6420    7.7200  -11.2560 O.2   192  GLY192     -0.2714
     74  N         20.7310    7.0770  -10.6780 N.am  193  THR193     -0.1936
     75  CA        20.5310    5.6820  -10.9780 C.3   193  THR193      0.2028
     76  C         19.3550    5.1260  -10.2230 C.2   193  THR193      0.2642
     77  O         18.4250    4.5640  -10.7990 O.2   193  THR193     -0.2714
     78  CB        21.7930    4.8960  -10.5830 C.3   193  THR193      0.1808
     79  OG1       22.9390    5.5750  -11.1160 O.3   193  THR193     -0.2208
     80  CG2       21.7170    3.4410  -11.1180 C.3   193  THR193      0.0379
     81  N         19.3630    5.2710   -8.9120 N.am  194  ILE194     -0.1977
     82  CA        18.2860    4.6550   -8.1370 C.3   194  ILE194      0.1596
     83  C         16.9440    5.2530   -8.5710 C.2   194  ILE194      0.2287
     84  O         15.9150    4.5480   -8.7670 O.2   194  ILE194     -0.2864
     85  CB        18.5620    4.7520   -6.6100 C.3   194  ILE194      0.0276
     86  CG1       17.8370    3.6360   -5.8520 C.3   194  ILE194      0.0022
     87  CG2       18.0660    6.0720   -6.0590 C.3   194  ILE194      0.0022
     88  CD1       18.5750    2.3410   -5.7410 C.3   194  ILE194      0.0001
     89  N         34.2050    6.0260   -2.4870 N.3   232  GLN232     -0.1231
     90  CA        34.1710    7.1300   -3.4340 C.3   232  GLN232      0.1698
     91  C         33.0620    6.9340   -4.4750 C.2   232  GLN232      0.2593
     92  O         32.8870    5.8360   -5.0310 O.2   232  GLN232     -0.2718
     93  CB        35.5170    7.3030   -4.1150 C.3   232  GLN232      0.0381
     94  CG        35.5140    8.5480   -4.9900 C.3   232  GLN232      0.0905
     95  CD        36.8110    8.7510   -5.7210 C.2   232  GLN232      0.2608
     96  OE1       37.7650    7.9480   -5.5650 O.2   232  GLN232     -0.2717
     97  NE2       36.8750    9.8260   -6.5460 N.am  232  GLN232     -0.0878
     98  N         32.2970    7.9970   -4.7050 N.am  233  GLY233     -0.1942
     99  CA        31.1700    7.9100   -5.6110 C.3   233  GLY233      0.2014
    100  C         29.8080    7.8160   -4.9250 C.2   233  GLY233      0.2638
    101  O         28.7810    8.0660   -5.5600 O.2   233  GLY233     -0.2714
    102  N         29.7790    7.4190   -3.6560 N.am  234  ILE234     -0.1977
    103  CA        28.5240    7.4550   -2.9000 C.3   234  ILE234      0.1596
    104  C         28.6580    8.2990   -1.6520 C.2   234  ILE234      0.2287
    105  O         29.6790    8.9430   -1.4640 O.2   234  ILE234     -0.2864
    106  CB        27.9310    6.0440   -2.6060 C.3   234  ILE234      0.0276
    107  CG1       28.7700    5.2520   -1.5810 C.3   234  ILE234      0.0022
    108  CG2       27.7660    5.2910   -3.9210 C.3   234  ILE234      0.0022
    109  CD1       28.3770    3.7730   -1.4950 C.3   234  ILE234      0.0001
    110  N         32.7630    1.2870   -4.8450 N.3   277  SER277     -0.1217
    111  CA        31.3050    1.3680   -4.7370 C.3   277  SER277      0.1889
    112  C         30.6460    0.1430   -5.3850 C.2   277  SER277      0.2288
    113  O         29.5610   -0.2910   -4.9770 O.2   277  SER277     -0.2866
    114  CB        30.7490    2.6910   -5.3270 C.3   277  SER277      0.2089
    115  OG        30.9080    2.7770   -6.7410 O.3   277  SER277     -0.2183
    116  N         29.2510    0.5990  -10.6720 N.3   304  PRO304     -0.2102
    117  CA        29.3030    1.9220  -11.3400 C.3   304  PRO304      0.1504
    118  C         30.5490    2.2110  -12.1740 C.2   304  PRO304      0.2576
    119  O         30.4610    2.9710  -13.1480 O.2   304  PRO304     -0.2718
    120  CB        29.1940    2.9260  -10.1700 C.3   304  PRO304      0.0282
    121  CG        28.3420    2.1870   -9.1610 C.3   304  PRO304      0.0208
    122  CD        28.8630    0.7130   -9.2570 C.3   304  PRO304      0.0893
    123  N         31.6860    1.6300  -11.7850 N.am  305  SER305     -0.1953
    124  CA        32.9600    2.0050  -12.3970 C.3   305  SER305      0.1924
    125  C         34.0160    0.8930  -12.3890 C.2   305  SER305      0.2314
    126  O         34.0430    0.0680  -11.4920 O.2   305  SER305     -0.2863
    127  CB        33.5330    3.2510  -11.7230 C.3   305  SER305      0.2116
    128  OG        33.5980    3.0660  -10.3110 O.3   305  SER305     -0.2180
    129  N         41.2020    3.1530  -10.0570 N.3   310  TYR310     -0.1241
    130  CA        41.4870    3.3670   -8.6600 C.3   310  TYR310      0.1605
    131  C         42.7840    2.7250   -8.1460 C.2   310  TYR310      0.2264
    132  O         42.8850    2.4040   -6.9560 O.2   310  TYR310     -0.2867
    133  CB        40.2870    2.9290   -7.8330 C.3   310  TYR310      0.0534
    134  CG        38.9730    3.5280   -8.3130 C.ar  310  TYR310     -0.0201
    135  CD1       38.5690    4.7950   -7.8850 C.ar  310  TYR310     -0.0009
    136  CD2       38.1280    2.8200   -9.1970 C.ar  310  TYR310     -0.0009
    137  CE1       37.3710    5.3420   -8.3080 C.ar  310  TYR310      0.0417
    138  CE2       36.9370    3.3540   -9.6250 C.ar  310  TYR310      0.0417
    139  CZ        36.5530    4.6250   -9.1770 C.ar  310  TYR310      0.1957
    140  OH        35.3560    5.1830   -9.5880 O.3   310  TYR310     -0.2866
@<TRIPOS>BOND
     1    11    10    2
     2    33    34    1
     3    10     9    1
     4    36    35    2
     5    35    34    1
     6    34    37    1
     7     4     3    2
     8     3     8   am
     9     3     2    1
    10     9     8    1
    11     9    12    1
    12    25    26    1
    13    28    27    2
    14     2     1    1
    15     2     5    1
    16    39    41   ar
    17    39    38   ar
    18    20    19    2
    19    37    38    1
    20    26    27    1
    21    26    29    1
    22    41    42   ar
    23    12    13    1
    24    38    40   ar
    25    42    40   ar
    26     7     5    1
    27     5     6    1
    28    29    30    1
    29    19    18    1
    30   119   118    2
    31    13    14    1
    32    31    30    2
    33    18    21    1
    34    18    17    1
    35    30    32   am
    36    21    22    1
    37    14    15    1
    38   124   125    1
    39   124   123    1
    40   124   127    1
    41   125   126    2
    42    23    22    2
    43   118   123   am
    44   118   117    1
    45    22    24   am
    46   127   128    1
    47   117   116    1
    48   117   120    1
    49    73    72    2
    50    80    78    1
    51    79    78    1
    52    15    16    1
    53    75    74    1
    54    75    78    1
    55    75    76    1
    56    72    74   am
    57    72    71    1
    58    77    76    2
    59   116   122    1
    60    71    70    1
    61    76    81   am
    62   120   121    1
    63   129   130    1
    64   138   136   ar
    65   138   139   ar
    66   140   139    1
    67    64    63    1
    68   122   121    1
    69   136   134   ar
    70   139   137   ar
    71    70    68   am
    72    81    82    1
    73    84    83    2
    74    65    63    1
    75   130   131    1
    76   130   133    1
    77    83    82    1
    78    63    60    1
    79   134   135   ar
    80   134   133    1
    81   137   135   ar
    82    69    68    2
    83   131   132    2
    84    82    85    1
    85    68    67    1
    86    60    61    1
    87    60    59    1
    88    61    62    2
    89    61    66   am
    90   115   114    1
    91    66    67    1
    92    85    87    1
    93    85    86    1
    94    59    57   am
    95    97    95   am
    96    46    45    2
    97    86    88    1
    98    95    96    2
    99    95    94    1
   100    99   100    1
   101    99    98    1
   102   101   100    2
   103   112   113    2
   104   112   111    1
   105   114   111    1
   106    57    56    1
   107    57    58    2
   108    43    44    1
   109    55    56    1
   110    55    49   am
   111    92    91    2
   112    94    93    1
   113   100   102   am
   114   110   111    1
   115    45    44    1
   116    45    47   am
   117    98    91   am
   118    91    90    1
   119    93    90    1
   120    48    49    1
   121    48    47    1
   122    48    51    1
   123    49    50    2
   124   108   106    1
   125   102   103    1
   126    90    89    1
   127    52    51    1
   128    52    54    1
   129    53    51    1
   130   103   106    1
   131   103   104    1
   132   106   107    1
   133   104   105    2
   134   107   109    1
