@<TRIPOS>MOLECULE
tmp/4aedA00.pdb
 171 165 0 0 0
SMALL
GASTEIGER

@<TRIPOS>ATOM
      1  N        158.0290  282.5440  259.9960 N.3   110  ILE110     -0.1231
      2  CA       158.6700  281.2400  259.8840 C.3   110  ILE110      0.1692
      3  C        159.9700  281.2640  259.0850 C.2   110  ILE110      0.2592
      4  O        159.9680  281.1120  257.8620 O.2   110  ILE110     -0.2718
      5  CB       157.7100  280.2270  259.2470 C.3   110  ILE110      0.0266
      6  CG1      156.4020  280.2020  260.0380 C.3   110  ILE110      0.0019
      7  CG2      158.3440  278.8450  259.2300 C.3   110  ILE110      0.0020
      8  CD1      155.3230  279.3740  259.4030 C.3   110  ILE110      0.0001
      9  N        161.0780  281.4520  259.7950 N.am  111  ASP111     -0.1960
     10  CA       162.4020  281.4890  259.1860 C.3   111  ASP111      0.1840
     11  C        163.4200  281.0680  260.2440 C.2   111  ASP111      0.2622
     12  O        163.3670  281.5330  261.3830 O.2   111  ASP111     -0.2715
     13  CB       162.7250  282.9000  258.6920 C.3   111  ASP111      0.1450
     14  CG       163.9230  282.9290  257.7670 C.2   111  ASP111      0.3671
     15  OD1      164.9320  282.2670  258.0860 O.co2 111  ASP111     -0.2456
     16  OD2      163.8590  283.6140  256.7240 O.co2 111  ASP111     -0.2456
     17  N        164.3490  280.1950  259.8660 N.am  112  ILE112     -0.1963
     18  CA       165.3550  279.7040  260.8030 C.3   112  ILE112      0.1727
     19  C        166.7370  280.3360  260.6530 C.2   112  ILE112      0.2616
     20  O        167.6510  280.0250  261.4180 O.2   112  ILE112     -0.2715
     21  CB       165.5140  278.1780  260.6790 C.3   112  ILE112      0.0290
     22  CG1      165.9270  277.8160  259.2510 C.3   112  ILE112      0.0022
     23  CG2      164.2100  277.4920  261.0430 C.3   112  ILE112      0.0023
     24  CD1      166.1910  276.3420  259.0440 C.3   112  ILE112      0.0001
     25  N        166.8930  281.2220  259.6750 N.am  113  THR113     -0.1951
     26  CA       168.1780  281.8750  259.4450 C.3   113  THR113      0.1897
     27  C        168.5010  282.8940  260.5340 C.2   113  THR113      0.2313
     28  O        169.4120  283.7100  260.3830 O.2   113  THR113     -0.2863
     29  CB       168.2000  282.5970  258.0830 C.3   113  THR113      0.1794
     30  OG1      169.5170  283.1010  257.8310 O.3   113  THR113     -0.2208
     31  CG2      167.2200  283.7600  258.0820 C.3   113  THR113      0.0378
     32  N        162.8720  267.5070  253.3470 N.3   130  PHE130     -0.1241
     33  CA       162.7470  266.7720  254.6060 C.3   130  PHE130      0.1605
     34  C        161.5350  267.1450  255.4590 C.2   130  PHE130      0.2264
     35  O        160.8100  268.0960  255.1630 O.2   130  PHE130     -0.2867
     36  CB       164.0080  266.9830  255.4470 C.3   130  PHE130      0.0534
     37  CG       164.2160  268.4110  255.8710 C.ar  130  PHE130     -0.0203
     38  CD1      163.3840  269.0000  256.8190 C.ar  130  PHE130     -0.0042
     39  CD2      165.2280  269.1770  255.3040 C.ar  130  PHE130     -0.0042
     40  CE1      163.5530  270.3280  257.1930 C.ar  130  PHE130     -0.0003
     41  CE2      165.4070  270.5090  255.6730 C.ar  130  PHE130     -0.0003
     42  CZ       164.5660  271.0840  256.6190 C.ar  130  PHE130     -0.0000
     43  N        160.2180  267.6310  259.7000 N.3   132  ALA132     -0.1245
     44  CA       160.8340  268.0940  260.9350 C.3   132  ALA132      0.1562
     45  C        159.9530  267.8980  262.1570 C.2   132  ALA132      0.2260
     46  O        158.7550  267.6440  262.0460 O.2   132  ALA132     -0.2867
     47  CB       161.2170  269.5600  260.8030 C.3   132  ALA132      0.0290
     48  N        159.2380  269.8870  265.7760 N.3   134  PHE134     -0.1241
     49  CA       159.4610  271.0680  266.5950 C.3   134  PHE134      0.1605
     50  C        159.0400  270.9040  268.0460 C.2   134  PHE134      0.2264
     51  O        158.0050  270.3090  268.3490 O.2   134  PHE134     -0.2867
     52  CB       158.7370  272.2710  265.9940 C.3   134  PHE134      0.0534
     53  CG       159.2340  272.6580  264.6340 C.ar  134  PHE134     -0.0203
     54  CD1      158.9090  271.8980  263.5160 C.ar  134  PHE134     -0.0042
     55  CD2      160.0410  273.7780  264.4710 C.ar  134  PHE134     -0.0042
     56  CE1      159.3810  272.2510  262.2520 C.ar  134  PHE134     -0.0003
     57  CE2      160.5170  274.1380  263.2140 C.ar  134  PHE134     -0.0003
     58  CZ       160.1870  273.3740  262.1030 C.ar  134  PHE134     -0.0000
     59  N        149.3300  277.8400  263.8330 N.3   154  PHE154     -0.1241
     60  CA       150.0760  277.9500  262.5900 C.3   154  PHE154      0.1605
     61  C        149.2310  278.7210  261.5860 C.2   154  PHE154      0.2264
     62  O        148.0530  278.4190  261.4000 O.2   154  PHE154     -0.2867
     63  CB       150.3810  276.5620  262.0340 C.3   154  PHE154      0.0534
     64  CG       151.2040  276.5810  260.7810 C.ar  154  PHE154     -0.0203
     65  CD1      152.5630  276.8620  260.8320 C.ar  154  PHE154     -0.0042
     66  CD2      150.6180  276.3280  259.5460 C.ar  154  PHE154     -0.0042
     67  CE1      153.3290  276.8880  259.6700 C.ar  154  PHE154     -0.0003
     68  CE2      151.3760  276.3530  258.3780 C.ar  154  PHE154     -0.0003
     69  CZ       152.7340  276.6330  258.4410 C.ar  154  PHE154     -0.0000
     70  N        156.2130  267.8780  261.4190 N.3   191  VAL191     -0.1245
     71  CA       155.8660  268.6860  260.2560 C.3   191  VAL191      0.1561
     72  C        156.3950  268.1020  258.9500 C.2   191  VAL191      0.2260
     73  O        157.5980  267.8910  258.7960 O.2   191  VAL191     -0.2867
     74  CB       156.4150  270.1150  260.4020 C.3   191  VAL191      0.0252
     75  CG1      156.0020  270.9540  259.2080 C.3   191  VAL191      0.0019
     76  CG2      155.9090  270.7340  261.6900 C.3   191  VAL191      0.0019
     77  N        156.3930  270.6510  253.2570 N.3   194  MET194     -0.1245
     78  CA       155.3700  271.4350  252.5840 C.3   194  MET194      0.1570
     79  C        156.0080  272.5550  251.7800 C.2   194  MET194      0.2261
     80  O        156.5880  273.4830  252.3410 O.2   194  MET194     -0.2867
     81  CB       154.4080  272.0070  253.6220 C.3   194  MET194      0.0387
     82  CG       155.1110  272.5720  254.8450 C.3   194  MET194      0.0595
     83  SD       153.9840  272.9100  256.2030 S.3   194  MET194     -0.1393
     84  CE       153.7680  271.2630  256.8720 C.3   194  MET194      0.0692
     85  N        163.4280  272.5040  249.6620 N.3   200  TYR200     -0.1227
     86  CA       163.6930  273.8440  250.1670 C.3   200  TYR200      0.1736
     87  C        164.9670  274.3710  249.5320 C.2   200  TYR200      0.2595
     88  O        165.9050  273.6150  249.2730 O.2   200  TYR200     -0.2718
     89  CB       163.8400  273.8330  251.6890 C.3   200  TYR200      0.0548
     90  CG       162.5820  273.4340  252.4200 C.ar  200  TYR200     -0.0200
     91  CD1      161.3630  274.0470  252.1340 C.ar  200  TYR200     -0.0009
     92  CD2      162.6090  272.4470  253.4030 C.ar  200  TYR200     -0.0009
     93  CE1      160.2010  273.6840  252.8090 C.ar  200  TYR200      0.0417
     94  CE2      161.4550  272.0780  254.0840 C.ar  200  TYR200      0.0417
     95  CZ       160.2560  272.6990  253.7830 C.ar  200  TYR200      0.1957
     96  OH       159.1140  272.3270  254.4530 O.3   200  TYR200     -0.2866
     97  N        164.9940  275.6750  249.2860 N.am  201  GLN201     -0.1965
     98  CA       166.1410  276.3080  248.6570 C.3   201  GLN201      0.1733
     99  C        166.8270  277.2680  249.6250 C.2   201  GLN201      0.2616
    100  O        166.2150  278.2200  250.1080 O.2   201  GLN201     -0.2715
    101  CB       165.6780  277.0490  247.4010 C.3   201  GLN201      0.0408
    102  CG       166.7460  277.2360  246.3490 C.3   201  GLN201      0.0908
    103  CD       166.1950  277.7760  245.0430 C.2   201  GLN201      0.2608
    104  OE1      166.7090  278.7540  244.5060 O.2   201  GLN201     -0.2717
    105  NE2      165.1410  277.1430  244.5290 N.am  201  GLN201     -0.0878
    106  N        168.0980  277.0080  249.9140 N.am  202  TRP202     -0.1974
    107  CA       168.8610  277.8510  250.8310 C.3   202  TRP202      0.1640
    108  C        169.3240  279.1340  250.1580 C.2   202  TRP202      0.2290
    109  O        169.3450  280.1980  250.7770 O.2   202  TRP202     -0.2864
    110  CB       170.0810  277.0970  251.3590 C.3   202  TRP202      0.0576
    111  CG       169.7410  275.8840  252.1530 C.ar  202  TRP202      0.0006
    112  CD1      170.0640  274.5920  251.8550 C.ar  202  TRP202      0.0946
    113  CD2      169.0180  275.8440  253.3880 C.ar  202  TRP202      0.0152
    114  NE1      169.5890  273.7480  252.8300 N.ar  202  TRP202     -0.2442
    115  CE2      168.9430  274.4900  253.7840 C.ar  202  TRP202      0.0810
    116  CE3      168.4280  276.8200  254.2010 C.ar  202  TRP202      0.0012
    117  CZ2      168.2990  274.0870  254.9570 C.ar  202  TRP202      0.0191
    118  CZ3      167.7860  276.4180  255.3680 C.ar  202  TRP202      0.0001
    119  CH2      167.7290  275.0630  255.7340 C.ar  202  TRP202      0.0015
    120  N        167.2080  287.3410  246.2100 N.3   222  GLY222     -0.1210
    121  CA       167.5090  286.2610  247.1330 C.3   222  GLY222      0.1956
    122  C        166.2900  285.7070  247.8450 C.2   222  GLY222      0.2612
    123  O        166.3500  284.6390  248.4560 O.2   222  GLY222     -0.2717
    124  N        165.1800  286.4340  247.7680 N.am  223  ALA223     -0.1965
    125  CA       163.9430  286.0120  248.4120 C.3   223  ALA223      0.1728
    126  C        163.2120  284.9820  247.5590 C.2   223  ALA223      0.2616
    127  O        162.7730  285.2820  246.4490 O.2   223  ALA223     -0.2715
    128  CB       163.0460  287.2180  248.6550 C.3   223  ALA223      0.0334
    129  N        163.0860  283.7680  248.0860 N.am  224  CYS224     -0.1968
    130  CA       162.4090  282.6890  247.3770 C.3   224  CYS224      0.1712
    131  C        161.1020  282.3160  248.0710 C.2   224  CYS224      0.2296
    132  O        161.1050  281.8480  249.2100 O.2   224  CYS224     -0.2864
    133  CB       163.3180  281.4620  247.2980 C.3   224  CYS224      0.0983
    134  SG       162.5860  280.0470  246.4440 S.3   224  CYS224     -0.0798
    135  N        160.2170  279.1150  250.2090 N.3   227  ASN227     -0.1225
    136  CA       160.7150  278.9330  251.5690 C.3   227  ASN227      0.1785
    137  C        159.8090  279.6880  252.5340 C.2   227  ASN227      0.2597
    138  O        160.0150  279.6700  253.7490 O.2   227  ASN227     -0.2718
    139  CB       162.1440  279.4650  251.6860 C.3   227  ASN227      0.1169
    140  CG       163.0720  278.8630  250.6540 C.2   227  ASN227      0.2627
    141  OD1      163.2260  277.6450  250.5760 O.2   227  ASN227     -0.2716
    142  ND2      163.6990  279.7180  249.8540 N.am  227  ASN227     -0.0877
    143  N        158.8050  280.3540  251.9700 N.am  228  MET228     -0.1965
    144  CA       157.8410  281.1250  252.7460 C.3   228  MET228      0.1736
    145  C        156.7560  280.1750  253.2380 C.2   228  MET228      0.2616
    146  O        155.8770  279.7770  252.4730 O.2   228  MET228     -0.2715
    147  CB       157.2040  282.2070  251.8700 C.3   228  MET228      0.0427
    148  CG       158.1910  283.0210  251.0420 C.3   228  MET228      0.0599
    149  SD       159.2860  284.0700  252.0110 S.3   228  MET228     -0.1393
    150  CE       158.3530  285.6030  252.0230 C.3   228  MET228      0.0692
    151  N        156.8160  279.8140  254.5150 N.am  229  MET229     -0.1977
    152  CA       155.8380  278.8970  255.0850 C.3   229  MET229      0.1605
    153  C        154.7580  279.6180  255.8830 C.2   229  MET229      0.2287
    154  O        154.0040  278.9920  256.6290 O.2   229  MET229     -0.2864
    155  CB       156.5480  277.8770  255.9750 C.3   229  MET229      0.0413
    156  CG       157.6180  277.0730  255.2540 C.3   229  MET229      0.0598
    157  SD       156.9630  276.0990  253.8800 S.3   229  MET229     -0.1393
    158  CE       157.4470  277.1040  252.4710 C.3   229  MET229      0.0692
    159  N        164.0560  272.8160  266.7490 N.3   252  MET252     -0.1245
    160  CA       163.7140  271.9730  265.6130 C.3   252  MET252      0.1570
    161  C        164.6820  270.8220  265.3630 C.2   252  MET252      0.2261
    162  O        165.8880  270.9440  265.5790 O.2   252  MET252     -0.2867
    163  CB       163.6320  272.8300  264.3520 C.3   252  MET252      0.0387
    164  CG       163.4170  272.0350  263.0820 C.3   252  MET252      0.0595
    165  SD       163.9320  272.9550  261.6310 S.3   252  MET252     -0.1393
    166  CE       165.7020  272.6380  261.6600 C.3   252  MET252      0.0692
    167  N        168.3530  285.6310  256.0460 N.3   274  ALA274     -0.1245
    168  CA       168.1140  285.3520  254.6350 C.3   274  ALA274      0.1562
    169  C        168.9050  286.3230  253.7670 C.2   274  ALA274      0.2260
    170  O        168.4320  286.7740  252.7200 O.2   274  ALA274     -0.2867
    171  CB       166.6260  285.4530  254.3210 C.3   274  ALA274      0.0290
@<TRIPOS>BOND
     1   104   103    2
     2   105   103   am
     3   103   102    1
     4   120   121    1
     5   102   101    1
     6   134   133    1
     7   127   126    2
     8   121   122    1
     9   133   130    1
    10   130   131    1
    11   130   129    1
    12   101    98    1
    13   126   129   am
    14   126   125    1
    15   124   122   am
    16   124   125    1
    17   122   123    2
    18   131   132    2
    19   125   128    1
    20    98    97    1
    21    98    99    1
    22    88    87    2
    23    97    87   am
    24    87    86    1
    25    99   106   am
    26    99   100    2
    27    85    86    1
    28   142   140   am
    29   106   107    1
    30   108   109    2
    31   108   107    1
    32    86    89    1
    33   135   136    1
    34   141   140    2
    35   140   139    1
    36   107   110    1
    37   148   147    1
    38   148   149    1
    39   110   111    1
    40   136   139    1
    41   136   137    1
    42    89    90    1
    43    79    80    2
    44    79    78    1
    45   112   111   ar
    46   112   114   ar
    47   147   144    1
    48   143   137   am
    49   143   144    1
    50   149   150    1
    51    91    90   ar
    52    91    93   ar
    53   111   113   ar
    54    90    92   ar
    55   158   157    1
    56   146   145    2
    57   137   138    2
    58    78    77    1
    59    78    81    1
    60   170   169    2
    61   144   145    1
    62    93    95   ar
    63   114   115   ar
    64   145   151   am
    65    32    33    1
    66   113   115   ar
    67   113   116   ar
    68    92    94   ar
    69    81    82    1
    70   169   168    1
    71    95    94   ar
    72    95    96    1
    73   115   117   ar
    74   157   156    1
    75   116   118   ar
    76   171   168    1
    77   151   152    1
    78    33    36    1
    79    33    34    1
    80   168   167    1
    81    82    83    1
    82   117   119   ar
    83   152   153    1
    84   152   155    1
    85    35    34    2
    86   156   155    1
    87    39    41   ar
    88    39    37   ar
    89   118   119   ar
    90    36    37    1
    91    41    42   ar
    92    37    38   ar
    93   153   154    2
    94    83    84    1
    95    42    40   ar
    96    16    14   ar
    97    38    40   ar
    98    14    15   ar
    99    14    13    1
   100    30    29    1
   101     4     3    2
   102    31    29    1
   103    29    26    1
   104    68    69   ar
   105    68    66   ar
   106    69    67   ar
   107    13    10    1
   108    73    72    2
   109    72    71    1
   110    24    22    1
   111     3     9   am
   112     3     2    1
   113    10     9    1
   114    10    11    1
   115    75    74    1
   116     7     5    1
   117     5     2    1
   118     5     6    1
   119    22    21    1
   120     8     6    1
   121    26    25    1
   122    26    27    1
   123    66    64   ar
   124    67    65   ar
   125    25    19   am
   126    43    44    1
   127    17    11   am
   128    17    18    1
   129     2     1    1
   130    11    12    2
   131    71    74    1
   132    71    70    1
   133    28    27    2
   134    74    76    1
   135    19    18    1
   136    19    20    2
   137    21    18    1
   138    21    23    1
   139    64    65   ar
   140    64    63    1
   141    47    44    1
   142    44    45    1
   143    62    61    2
   144    61    60    1
   145   165   166    1
   146   165   164    1
   147    63    60    1
   148    46    45    2
   149    58    56   ar
   150    58    57   ar
   151    56    54   ar
   152    60    59    1
   153   164   163    1
   154    57    55   ar
   155    54    53   ar
   156   163   160    1
   157    55    53   ar
   158    53    52    1
   159   161   162    2
   160   161   160    1
   161   160   159    1
   162    48    49    1
   163    52    49    1
   164    49    50    1
   165    50    51    2
