@<TRIPOS>MOLECULE
tmp/4aelA00.pdb
 155 150 0 0 0
SMALL
GASTEIGER

@<TRIPOS>ATOM
      1  N         10.4030   15.7030   30.3640 N.3    77  TYR77      -0.1241
      2  CA        11.6440   15.0730   29.9260 C.3    77  TYR77       0.1605
      3  C         11.5480   13.6830   29.3290 C.2    77  TYR77       0.2264
      4  O         12.0920   13.4690   28.2390 O.2    77  TYR77      -0.2867
      5  CB        12.7060   15.1130   31.0530 C.3    77  TYR77       0.0534
      6  CG        14.0100   14.4530   30.6590 C.ar   77  TYR77      -0.0201
      7  CD1       14.8110   14.9880   29.6460 C.ar   77  TYR77      -0.0009
      8  CD2       14.4330   13.2850   31.2770 C.ar   77  TYR77      -0.0009
      9  CE1       15.9930   14.3650   29.2580 C.ar   77  TYR77       0.0417
     10  CE2       15.6150   12.6570   30.8990 C.ar   77  TYR77       0.0417
     11  CZ        16.3960   13.2060   29.8950 C.ar   77  TYR77       0.1957
     12  OH        17.5870   12.6140   29.5590 O.3    77  TYR77      -0.2866
     13  N         19.3300    3.4780   36.3530 N.3   188  LEU188     -0.1245
     14  CA        20.6350    3.9870   36.8070 C.3   188  LEU188      0.1561
     15  C         21.1940    3.2630   38.0150 C.2   188  LEU188      0.2260
     16  O         22.4140    3.1580   38.1450 O.2   188  LEU188     -0.2867
     17  CB        20.6530    5.5100   37.0360 C.3   188  LEU188      0.0270
     18  CG        21.3010    6.3720   35.9420 C.3   188  LEU188      0.0019
     19  CD1       21.3630    7.8350   36.3790 C.3   188  LEU188      0.0001
     20  CD2       22.7110    5.8800   35.5760 C.3   188  LEU188      0.0001
     21  N         21.9420    8.8600   28.8570 N.3   228  LEU228     -0.1245
     22  CA        22.5690   10.0850   29.3740 C.3   228  LEU228      0.1561
     23  C         23.2090   10.9850   28.2840 C.2   228  LEU228      0.2260
     24  O         23.8780   11.9720   28.6200 O.2   228  LEU228     -0.2867
     25  CB        23.6390    9.7100   30.4150 C.3   228  LEU228      0.0270
     26  CG        23.2580    8.7550   31.5680 C.3   228  LEU228      0.0019
     27  CD1       24.4470    8.5350   32.4800 C.3   228  LEU228      0.0001
     28  CD2       22.0730    9.2680   32.3800 C.3   228  LEU228      0.0001
     29  N         22.4150   13.4310   26.4620 N.3   230  SER230     -0.1202
     30  CA        22.2440   14.9030   26.4240 C.3   230  SER230      0.2020
     31  C         23.5370   15.5970   26.8580 C.2   230  SER230      0.2618
     32  O         23.8340   16.6650   26.3470 O.2   230  SER230     -0.2717
     33  CB        21.0850   15.3700   27.3070 C.3   230  SER230      0.2103
     34  OG        21.2900   15.0470   28.6750 O.3   230  SER230     -0.2182
     35  N         24.3170   14.9790   27.7730 N.am  231  VAL231     -0.1979
     36  CA        25.6250   15.4990   28.2390 C.3   231  VAL231      0.1595
     37  C         26.6840   15.4270   27.0860 C.2   231  VAL231      0.2287
     38  O         27.7790   15.9760   27.2240 O.2   231  VAL231     -0.2864
     39  CB        26.1430   14.7850   29.5290 C.3   231  VAL231      0.0276
     40  CG1       25.0950   14.7610   30.6470 C.3   231  VAL231      0.0022
     41  CG2       26.6670   13.3790   29.2300 C.3   231  VAL231      0.0022
     42  N         18.7440   20.2790   30.1620 N.3   242  ALA242     -0.1245
     43  CA        18.7630   20.3200   31.6340 C.3   242  ALA242      0.1562
     44  C         17.4920   20.9740   32.1750 C.2   242  ALA242      0.2260
     45  O         16.9410   20.4530   33.1350 O.2   242  ALA242     -0.2867
     46  CB        20.0100   21.0140   32.1560 C.3   242  ALA242      0.0290
     47  N         14.7470   18.2610   32.2210 N.3   245  ILE245     -0.1231
     48  CA        15.0220   17.2850   33.3140 C.3   245  ILE245      0.1692
     49  C         14.5280   17.9010   34.6230 C.2   245  ILE245      0.2592
     50  O         13.7780   17.2500   35.3390 O.2   245  ILE245     -0.2718
     51  CB        16.5280   16.8720   33.4130 C.3   245  ILE245      0.0266
     52  CG1       17.0480   16.2770   32.0790 C.3   245  ILE245      0.0019
     53  CG2       16.8000   15.9220   34.6070 C.3   245  ILE245      0.0020
     54  CD1       18.5360   15.9830   32.0080 C.3   245  ILE245      0.0001
     55  N         14.9210   19.1670   34.9030 N.am  246  TYR246     -0.1976
     56  CA        14.5420   19.8910   36.1220 C.3   246  TYR246      0.1639
     57  C         13.0640   20.1620   36.2280 C.2   246  TYR246      0.2290
     58  O         12.5050   19.9880   37.3020 O.2   246  TYR246     -0.2864
     59  CB        15.3870   21.1640   36.3320 C.3   246  TYR246      0.0560
     60  CG        16.7990   20.8370   36.7730 C.ar  246  TYR246     -0.0198
     61  CD1       17.0400   20.1270   37.9490 C.ar  246  TYR246     -0.0009
     62  CD2       17.8940   21.1810   35.9840 C.ar  246  TYR246     -0.0009
     63  CE1       18.3330   19.7690   38.3270 C.ar  246  TYR246      0.0417
     64  CE2       19.1910   20.8180   36.3460 C.ar  246  TYR246      0.0417
     65  CZ        19.4080   20.1170   37.5200 C.ar  246  TYR246      0.1957
     66  OH        20.6980   19.8370   37.9140 O.3   246  TYR246     -0.2866
     67  N         11.8330   16.7910   37.4290 N.3   249  PHE249     -0.1227
     68  CA        12.3220   16.5130   38.7880 C.3   249  PHE249      0.1736
     69  C         11.6430   17.4210   39.8240 C.2   249  PHE249      0.2595
     70  O         11.2490   16.9350   40.8790 O.2   249  PHE249     -0.2718
     71  CB        13.8490   16.6860   38.8600 C.3   249  PHE249      0.0547
     72  CG        14.6900   15.5430   38.3330 C.ar  249  PHE249     -0.0202
     73  CD1       14.0990   14.3850   37.8510 C.ar  249  PHE249     -0.0042
     74  CD2       16.0750   15.6090   38.3690 C.ar  249  PHE249     -0.0042
     75  CE1       14.8800   13.3180   37.3940 C.ar  249  PHE249     -0.0003
     76  CE2       16.8550   14.5440   37.9210 C.ar  249  PHE249     -0.0003
     77  CZ        16.2550   13.3970   37.4580 C.ar  249  PHE249     -0.0000
     78  N         11.4850   18.7240   39.5040 N.am  250  TRP250     -0.1976
     79  CA        10.8840   19.6910   40.4220 C.3   250  TRP250      0.1640
     80  C          9.3880   19.5320   40.5820 C.2   250  TRP250      0.2290
     81  O          8.8620   19.8610   41.6480 O.2   250  TRP250     -0.2864
     82  CB        11.2760   21.1300   40.0960 C.3   250  TRP250      0.0576
     83  CG        12.7520   21.4100   40.1440 C.ar  250  TRP250      0.0006
     84  CD1       13.6920   20.7750   40.9070 C.ar  250  TRP250      0.0946
     85  CD2       13.4340   22.4730   39.4670 C.ar  250  TRP250      0.0152
     86  NE1       14.9280   21.3450   40.7050 N.ar  250  TRP250     -0.2442
     87  CE2       14.7960   22.3970   39.8320 C.ar  250  TRP250      0.0810
     88  CE3       13.0300   23.4610   38.5490 C.ar  250  TRP250      0.0012
     89  CZ2       15.7540   23.2780   39.3200 C.ar  250  TRP250      0.0191
     90  CZ3       13.9840   24.3250   38.0270 C.ar  250  TRP250      0.0001
     91  CH2       15.3280   24.2200   38.3980 C.ar  250  TRP250      0.0015
     92  N         17.8780   17.2290   47.0780 N.3   265  PRO265     -0.2102
     93  CA        18.0740   18.5320   46.4090 C.3   265  PRO265      0.1504
     94  C         17.7810   18.6220   44.9030 C.2   265  PRO265      0.2575
     95  O         17.2120   19.6440   44.4910 O.2   265  PRO265     -0.2718
     96  CB        19.4980   18.9170   46.7960 C.3   265  PRO265      0.0282
     97  CG        19.6890   18.2430   48.1520 C.3   265  PRO265      0.0208
     98  CD        19.0390   16.8900   47.9290 C.3   265  PRO265      0.0893
     99  N         18.0750   17.5520   44.0880 N.am  266  MET266     -0.1980
    100  CA        17.7950   17.6150   42.6330 C.3   266  MET266      0.1605
    101  C         16.3100   17.7220   42.2710 C.2   266  MET266      0.2287
    102  O         15.9830   18.1220   41.1570 O.2   266  MET266     -0.2864
    103  CB        18.5050   16.5090   41.8170 C.3   266  MET266      0.0413
    104  CG        17.7840   15.1850   41.7930 C.3   266  MET266      0.0598
    105  SD        18.6670   13.9210   40.8400 S.3   266  MET266     -0.1393
    106  CE        19.9240   13.4050   42.0300 C.3   266  MET266      0.0692
    107  N         16.2820   24.7340   45.6530 N.3   271  LYS271     -0.1245
    108  CA        17.7330   24.4860   45.6700 C.3   271  LYS271      0.1561
    109  C         18.4350   24.6580   44.3040 C.2   271  LYS271      0.2260
    110  O         19.5330   24.1330   44.1170 O.2   271  LYS271     -0.2867
    111  CB        18.0350   23.1250   46.3030 C.3   271  LYS271      0.0271
    112  CG        17.3640   22.9670   47.6630 C.3   271  LYS271      0.0035
    113  CD        18.1720   22.1190   48.5850 C.3   271  LYS271      0.0206
    114  CE        17.5960   22.1550   49.9720 C.3   271  LYS271      0.1093
    115  NZ        18.1630   21.0730   50.8120 N.3   271  LYS271     -0.1314
    116  N         22.3220   25.2250   43.6310 N.3   274  GLU274     -0.1231
    117  CA        23.2200   24.0900   43.6560 C.3   274  GLU274      0.1699
    118  C         23.1570   23.2740   42.3450 C.2   274  GLU274      0.2592
    119  O         23.8130   22.2300   42.2650 O.2   274  GLU274     -0.2718
    120  CB        22.9650   23.2110   44.8920 C.3   274  GLU274      0.0402
    121  CG        23.3590   23.8770   46.2080 C.3   274  GLU274      0.1161
    122  CD        22.2000   24.1670   47.1410 C.2   274  GLU274      0.3649
    123  OE1       21.3820   25.0570   46.8130 O.co2 274  GLU274     -0.2457
    124  OE2       22.1110   23.5100   48.2040 O.co2 274  GLU274     -0.2457
    125  N         22.3720   23.7260   41.3370 N.am  275  VAL275     -0.1980
    126  CA        22.2920   23.0400   40.0190 C.3   275  VAL275      0.1595
    127  C         23.6940   22.8680   39.4130 C.2   275  VAL275      0.2287
    128  O         24.0540   21.7090   39.2000 O.2   275  VAL275     -0.2864
    129  CB        21.2580   23.6240   39.0070 C.3   275  VAL275      0.0276
    130  CG1       21.5590   23.1860   37.5670 C.3   275  VAL275      0.0022
    131  CG2       19.8300   23.2570   39.4070 C.3   275  VAL275      0.0022
    132  N         25.6650   20.3140   41.3120 N.3   278  GLY278     -0.1210
    133  CA        24.9570   19.0370   41.1920 C.3   278  GLY278      0.1956
    134  C         25.2690   18.3930   39.8560 C.2   278  GLY278      0.2611
    135  O         25.5950   17.2140   39.7830 O.2   278  GLY278     -0.2717
    136  N         25.2450   19.1950   38.7920 N.am  279  GLN279     -0.1979
    137  CA        25.6200   18.7460   37.4580 C.3   279  GLN279      0.1601
    138  C         27.0870   18.2860   37.4950 C.2   279  GLN279      0.2287
    139  O         27.3750   17.1720   37.0680 O.2   279  GLN279     -0.2864
    140  CB        25.4120   19.8720   36.4450 C.3   279  GLN279      0.0394
    141  CG        23.9430   20.2080   36.2100 C.3   279  GLN279      0.0908
    142  CD        23.2530   19.2050   35.3370 C.2   279  GLN279      0.2608
    143  OE1       23.8540   18.5720   34.4690 O.2   279  GLN279     -0.2717
    144  NE2       21.9770   19.0190   35.5750 N.am  279  GLN279     -0.0878
    145  N         27.5080   14.8890   39.2130 N.3   282  PHE282     -0.1241
    146  CA        26.9350   13.8720   38.3280 C.3   282  PHE282      0.1605
    147  C         27.9200   13.5480   37.1990 C.2   282  PHE282      0.2264
    148  O         28.1170   12.3790   36.8790 O.2   282  PHE282     -0.2867
    149  CB        25.5820   14.3500   37.7560 C.3   282  PHE282      0.0534
    150  CG        24.9010   13.3420   36.8590 C.ar  282  PHE282     -0.0203
    151  CD1       24.2090   12.2630   37.3980 C.ar  282  PHE282     -0.0042
    152  CD2       25.0160   13.4290   35.4730 C.ar  282  PHE282     -0.0042
    153  CE1       23.6260   11.2960   36.5660 C.ar  282  PHE282     -0.0003
    154  CE2       24.4070   12.4720   34.6420 C.ar  282  PHE282     -0.0003
    155  CZ        23.7220   11.4120   35.1980 C.ar  282  PHE282     -0.0000
@<TRIPOS>BOND
     1    32    31    2
     2    30    29    1
     3    30    31    1
     4    30    33    1
     5    31    35   am
     6    37    38    2
     7    37    36    1
     8    33    34    1
     9    35    36    1
    10     4     3    2
    11    36    39    1
    12    23    24    2
    13    23    22    1
    14    21    22    1
    15    41    39    1
    16     9     7   ar
    17     9    11   ar
    18     3     2    1
    19    22    25    1
    20    39    40    1
    21    12    11    1
    22     7     6   ar
    23    11    10   ar
    24     2     1    1
    25     2     5    1
    26    42    43    1
    27    25    26    1
    28     6     5    1
    29     6     8   ar
    30    10     8   ar
    31    26    28    1
    32    26    27    1
    33    43    46    1
    34    43    44    1
    35    54    52    1
    36    52    51    1
    37    44    45    2
    38    47    48    1
    39    48    51    1
    40    48    49    1
    41    51    53    1
    42   143   142    2
    43    49    55   am
    44    49    50    2
    45   154   155   ar
    46   154   152   ar
    47    55    56    1
    48   155   153   ar
    49   142   144   am
    50   142   141    1
    51   152   150   ar
    52    20    18    1
    53    18    19    1
    54    18    17    1
    55    62    64   ar
    56    62    60   ar
    57    56    57    1
    58    56    59    1
    59   141   140    1
    60    57    58    2
    61    59    60    1
    62    64    65   ar
    63    13    14    1
    64   140   137    1
    65   153   151   ar
    66    60    61   ar
    67    14    17    1
    68    14    15    1
    69   150   151   ar
    70   150   149    1
    71   148   147    2
    72   139   138    2
    73   147   146    1
    74    75    77   ar
    75    75    73   ar
    76    67    68    1
    77   137   138    1
    78   137   136    1
    79    77    76   ar
    80    65    66    1
    81    65    63   ar
    82   130   129    1
    83   149   146    1
    84    73    72   ar
    85    76    74   ar
    86    61    63   ar
    87    15    16    2
    88    90    91   ar
    89    90    88   ar
    90   146   145    1
    91    72    74   ar
    92    72    71    1
    93    91    89   ar
    94    88    85   ar
    95    68    71    1
    96    68    69    1
    97   136   134   am
    98   129   131    1
    99   129   126    1
   100   128   127    2
   101    89    87   ar
   102   127   126    1
   103    85    87   ar
   104    85    83   ar
   105    78    69   am
   106    78    79    1
   107   135   134    2
   108    69    70    2
   109    87    86   ar
   110   134   133    1
   111   126   125    1
   112    82    83    1
   113    82    79    1
   114    83    84   ar
   115    79    80    1
   116    80    81    2
   117    86    84   ar
   118   105   104    1
   119   105   106    1
   120   102   101    2
   121   133   132    1
   122   125   118   am
   123   104   103    1
   124   103   100    1
   125   119   118    2
   126   101   100    1
   127   118   117    1
   128   100    99    1
   129   116   117    1
   130   117   120    1
   131    99    94   am
   132   110   109    2
   133   109   108    1
   134    95    94    2
   135   120   121    1
   136    94    93    1
   137   107   108    1
   138   108   111    1
   139   121   122    1
   140   111   112    1
   141    93    96    1
   142    93    92    1
   143    96    97    1
   144   123   122   ar
   145    92    98    1
   146   122   124   ar
   147   112   113    1
   148    98    97    1
   149   113   114    1
   150   114   115    1
