@<TRIPOS>MOLECULE
tmp/4aeoB00.pdb
 221 219 0 0 0
SMALL
GASTEIGER

@<TRIPOS>ATOM
      1  N         13.5420    2.8220  -15.3940 N.3    21  ALA21      -0.1231
      2  CA        14.3090    4.0610  -15.3790 C.3    21  ALA21       0.1679
      3  C         13.7520    4.9960  -14.3160 C.2    21  ALA21       0.2434
      4  O         12.5680    4.8980  -13.9600 O.2    21  ALA21      -0.2733
      5  CB        14.2480    4.7300  -16.7490 C.3    21  ALA21       0.0304
      6  N         14.5940    5.9270  -13.8310 N.am   22  PRO22      -0.2718
      7  CA        14.1460    6.9800  -12.9180 C.3    22  PRO22       0.1535
      8  C         13.1890    7.9400  -13.6170 C.2    22  PRO22       0.2598
      9  O         13.5060    8.4820  -14.6770 O.2    22  PRO22      -0.2715
     10  CB        15.4550    7.6770  -12.5230 C.3    22  PRO22       0.0310
     11  CG        16.3460    7.4860  -13.7220 C.3    22  PRO22       0.0237
     12  CD        16.0140    6.0890  -14.2050 C.3    22  PRO22       0.0939
     13  N         12.0210    8.1450  -13.0120 N.am   23  LEU23      -0.1964
     14  CA        10.9630    8.9330  -13.6380 C.3    23  LEU23       0.1728
     15  C         10.2990    9.8890  -12.6620 C.2    23  LEU23       0.2617
     16  O          9.5930    9.4620  -11.7520 O.2    23  LEU23      -0.2715
     17  CB         9.9010    8.0050  -14.2100 C.3    23  LEU23       0.0311
     18  CG        10.4030    7.0350  -15.2710 C.3    23  LEU23       0.0022
     19  CD1        9.4680    5.8400  -15.3600 C.3    23  LEU23       0.0001
     20  CD2       10.5480    7.7250  -16.6190 C.3    23  LEU23       0.0001
     21  N         10.5270   11.1860  -12.8620 N.am   24  THR24      -0.1937
     22  CA         9.8510   12.2310  -12.1020 C.3    24  THR24       0.2028
     23  C          8.3690   12.2470  -12.4620 C.2    24  THR24       0.2642
     24  O          8.0220   12.3430  -13.6470 O.2    24  THR24      -0.2714
     25  CB        10.4820   13.5980  -12.4480 C.3    24  THR24       0.1808
     26  OG1       11.7820   13.6910  -11.8420 O.3    24  THR24      -0.2208
     27  CG2        9.5830   14.7620  -11.9860 C.3    24  THR24       0.0379
     28  N          7.4900   12.1710  -11.4570 N.am   25  ARG25      -0.1977
     29  CA         6.0460   12.1190  -11.7130 C.3    25  ARG25       0.1597
     30  C          5.2470   13.1760  -10.9320 C.2    25  ARG25       0.2287
     31  O          4.0780   13.4050  -11.2290 O.2    25  ARG25      -0.2864
     32  CB         5.4880   10.7170  -11.4110 C.3    25  ARG25       0.0334
     33  CG         6.2220    9.5510  -12.1020 C.3    25  ARG25       0.0492
     34  CD         6.1550    9.6400  -13.6200 C.3    25  ARG25       0.2205
     35  NE         4.7780    9.8290  -14.0790 N.pl3  25  ARG25      -0.0865
     36  CZ         3.8960    8.8490  -14.2330 C.cat  25  ARG25       0.5346
     37  NH1        4.2500    7.5950  -13.9880 N.pl3  25  ARG25       0.1354
     38  NH2        2.6540    9.1190  -14.6350 N.pl3  25  ARG25       0.1354
     39  N         13.7570   11.0320   -9.4210 N.3    55  ALA55      -0.1245
     40  CA        14.7700   11.9190   -8.8690 C.3    55  ALA55       0.1562
     41  C         14.2970   12.5600   -7.5640 C.2    55  ALA55       0.2260
     42  O         13.1840   13.1190   -7.4720 O.2    55  ALA55      -0.2867
     43  CB        15.1480   12.9890   -9.8850 C.3    55  ALA55       0.0290
     44  N         17.2870    7.6650   -6.3380 N.3    97  GLN97      -0.1245
     45  CA        18.1310    8.5270   -7.1620 C.3    97  GLN97       0.1566
     46  C         18.3010    9.8650   -6.4690 C.2    97  GLN97       0.2260
     47  O         17.3230   10.5910   -6.2730 O.2    97  GLN97      -0.2867
     48  CB        17.5250    8.7440   -8.5600 C.3    97  GLN97       0.0367
     49  CG        18.5210    9.4350   -9.5300 C.3    97  GLN97       0.0905
     50  CD        17.9000    9.8110  -10.8760 C.2    97  GLN97       0.2608
     51  OE1       16.8690   10.4920  -10.9420 O.2    97  GLN97      -0.2717
     52  NE2       18.5330    9.3720  -11.9550 N.am   97  GLN97      -0.0878
     53  N         19.3200   13.7000   -6.0740 N.3    99  TRP99      -0.1241
     54  CA        19.1860   14.8010   -7.0310 C.3    99  TRP99       0.1605
     55  C         19.5440   16.1430   -6.4260 C.2    99  TRP99       0.2264
     56  O         19.2390   16.4040   -5.2630 O.2    99  TRP99      -0.2867
     57  CB        17.7100   14.9100   -7.4010 C.3    99  TRP99       0.0550
     58  CG        17.3610   15.5580   -8.7020 C.ar   99  TRP99       0.0003
     59  CD1       18.1920   15.8680   -9.7370 C.ar   99  TRP99       0.0946
     60  CD2       16.0490   15.9350   -9.1060 C.ar   99  TRP99       0.0152
     61  NE1       17.4620   16.4090  -10.7780 N.ar   99  TRP99      -0.2442
     62  CE2       16.1400   16.4570  -10.4080 C.ar   99  TRP99       0.0810
     63  CE3       14.7930   15.8640   -8.4960 C.ar   99  TRP99       0.0012
     64  CZ2       15.0290   16.9140  -11.1030 C.ar   99  TRP99       0.0191
     65  CZ3       13.6970   16.3110   -9.1830 C.ar   99  TRP99       0.0001
     66  CH2       13.8120   16.8250  -10.4760 C.ar   99  TRP99       0.0015
     67  N         22.4630   11.0390   -9.3320 N.3   172  HIS172     -0.1241
     68  CA        21.9710   11.6410  -10.5640 C.3   172  HIS172      0.1621
     69  C         23.0600   12.5610  -11.0860 C.2   172  HIS172      0.2264
     70  O         23.1130   13.7290  -10.7100 O.2   172  HIS172     -0.2867
     71  CB        20.6800   12.4330  -10.3110 C.3   172  HIS172      0.0745
     72  CG        19.9290   12.7860  -11.5600 C.ar  172  HIS172      0.0817
     73  ND1       20.5050   12.8030  -12.8090 N.ar  172  HIS172     -0.2268
     74  CD2       18.6310   13.1410  -11.7370 C.ar  172  HIS172      0.1154
     75  CE1       19.5960   13.1580  -13.7050 C.ar  172  HIS172      0.1986
     76  NE2       18.4500   13.3540  -13.0780 N.ar  172  HIS172     -0.2212
     77  N         21.6930   14.7020  -17.2500 N.3   175  ASN175     -0.1240
     78  CA        20.6250   15.5770  -17.7140 C.3   175  ASN175      0.1653
     79  C         20.7500   17.0360  -17.3140 C.2   175  ASN175      0.2266
     80  O         19.7600   17.7360  -17.1410 O.2   175  ASN175     -0.2867
     81  CB        19.2720   14.9860  -17.3100 C.3   175  ASN175      0.1155
     82  CG        19.0950   13.5700  -17.8460 C.2   175  ASN175      0.2627
     83  OD1       19.7600   13.1980  -18.8050 O.2   175  ASN175     -0.2716
     84  ND2       18.2170   12.7740  -17.2340 N.am  175  ASN175     -0.0877
     85  N         21.8830   18.5350  -14.6540 N.3   177  TYR177     -0.1241
     86  CA        21.6180   18.9640  -13.2780 C.3   177  TYR177      0.1605
     87  C         22.9430   19.2850  -12.5870 C.2   177  TYR177      0.2264
     88  O         23.9540   19.3910  -13.2640 O.2   177  TYR177     -0.2867
     89  CB        20.7430   17.9410  -12.5630 C.3   177  TYR177      0.0534
     90  CG        19.3350   17.9500  -13.1380 C.ar  177  TYR177     -0.0201
     91  CD1       18.5610   19.1040  -13.0920 C.ar  177  TYR177     -0.0009
     92  CD2       18.7960   16.8280  -13.7430 C.ar  177  TYR177     -0.0009
     93  CE1       17.2860   19.1400  -13.6160 C.ar  177  TYR177      0.0417
     94  CE2       17.5120   16.8550  -14.2770 C.ar  177  TYR177      0.0417
     95  CZ        16.7720   18.0060  -14.2080 C.ar  177  TYR177      0.1957
     96  OH        15.5200   18.0030  -14.7370 O.3   177  TYR177     -0.2866
     97  N         24.1150    7.7220  -12.6200 N.3   224  HIS224     -0.1241
     98  CA        23.3890    8.0230  -13.8460 C.3   224  HIS224      0.1621
     99  C         24.1680    9.0730  -14.6420 C.2   224  HIS224      0.2264
    100  O         24.5900   10.0790  -14.0810 O.2   224  HIS224     -0.2867
    101  CB        22.0160    8.5980  -13.4690 C.3   224  HIS224      0.0745
    102  CG        20.9320    8.2680  -14.4410 C.ar  224  HIS224      0.0817
    103  ND1       20.3730    7.0120  -14.5330 N.ar  224  HIS224     -0.2268
    104  CD2       20.2920    9.0330  -15.3590 C.ar  224  HIS224      0.1154
    105  CE1       19.4450    7.0100  -15.4720 C.ar  224  HIS224      0.1986
    106  NE2       19.3740    8.2240  -15.9910 N.ar  224  HIS224     -0.2212
    107  N         21.5960    7.5670  -20.0260 N.3   261  ARG261     -0.1245
    108  CA        20.5900    7.9410  -21.0170 C.3   261  ARG261      0.1563
    109  C         21.3260    8.2820  -22.3180 C.2   261  ARG261      0.2260
    110  O         21.9010    9.3610  -22.4420 O.2   261  ARG261     -0.2867
    111  CB        19.7890    9.1640  -20.5850 C.3   261  ARG261      0.0307
    112  CG        18.7310    9.5450  -21.6440 C.3   261  ARG261      0.0489
    113  CD        17.8830   10.7530  -21.2360 C.3   261  ARG261      0.2205
    114  NE        18.7110   11.9480  -21.0570 N.pl3 261  ARG261     -0.0865
    115  CZ        19.2450   12.6590  -22.0460 C.cat 261  ARG261      0.5346
    116  NH1       19.0480   12.3170  -23.3250 N.pl3 261  ARG261      0.1354
    117  NH2       19.9920   13.7160  -21.7620 N.pl3 261  ARG261      0.1354
    118  N         19.9750    2.9000  -21.9860 N.3   284  ASN284     -0.1225
    119  CA        18.6560    3.5110  -21.9000 C.3   284  ASN284      0.1785
    120  C         18.4580    4.5320  -23.0080 C.2   284  ASN284      0.2597
    121  O         19.4290    5.1280  -23.4970 O.2   284  ASN284     -0.2718
    122  CB        18.4960    4.2040  -20.5420 C.3   284  ASN284      0.1169
    123  CG        17.2940    5.1470  -20.4980 C.2   284  ASN284      0.2627
    124  OD1       17.4520    6.3630  -20.5960 O.2   284  ASN284     -0.2716
    125  ND2       16.0890    4.5870  -20.3560 N.am  284  ASN284     -0.0877
    126  N         17.1900    4.6890  -23.3870 N.am  285  GLU285     -0.1965
    127  CA        16.6610    5.7470  -24.2530 C.3   285  GLU285      0.1733
    128  C         16.2400    5.1720  -25.6090 C.2   285  GLU285      0.2616
    129  O         17.0660    4.8080  -26.4300 O.2   285  GLU285     -0.2715
    130  CB        17.6030    6.9460  -24.4170 C.3   285  GLU285      0.0429
    131  CG        16.8830    8.1590  -25.0650 C.3   285  GLU285      0.1163
    132  CD        17.7650    9.3930  -25.1590 C.2   285  GLU285      0.3649
    133  OE1       18.9120    9.2590  -25.6170 O.co2 285  GLU285     -0.2457
    134  OE2       17.3140   10.4900  -24.7630 O.co2 285  GLU285     -0.2457
    135  N         14.9300    5.0700  -25.7960 N.am  286  ARG286     -0.1963
    136  CA        14.3220    4.5880  -27.0370 C.3   286  ARG286      0.1729
    137  C         14.6080    3.1140  -27.3500 C.2   286  ARG286      0.2616
    138  O         14.4900    2.6810  -28.4970 O.2   286  ARG286     -0.2715
    139  CB        14.7320    5.4810  -28.2120 C.3   286  ARG286      0.0348
    140  CG        14.2760    6.9180  -28.0650 C.3   286  ARG286      0.0492
    141  CD        12.7670    7.0250  -28.1930 C.3   286  ARG286      0.2205
    142  NE        12.3030    6.4240  -29.4410 N.pl3 286  ARG286     -0.0865
    143  CZ        12.1250    7.0870  -30.5820 C.cat 286  ARG286      0.5346
    144  NH1       12.3580    8.3930  -30.6490 N.pl3 286  ARG286      0.1354
    145  NH2       11.7070    6.4390  -31.6640 N.pl3 286  ARG286      0.1354
    146  N         14.9730    2.3310  -26.3390 N.am  287  PHE287     -0.1974
    147  CA        15.0810    0.8860  -26.5460 C.3   287  PHE287      0.1639
    148  C         13.7060    0.1970  -26.5780 C.2   287  PHE287      0.2290
    149  O         12.7740    0.6170  -25.8940 O.2   287  PHE287     -0.2864
    150  CB        15.9810    0.2750  -25.4630 C.3   287  PHE287      0.0560
    151  CG        17.4390    0.5430  -25.6970 C.ar  287  PHE287     -0.0200
    152  CD1       18.1970   -0.3140  -26.4710 C.ar  287  PHE287     -0.0042
    153  CD2       18.0370    1.6960  -25.1990 C.ar  287  PHE287     -0.0042
    154  CE1       19.5400   -0.0470  -26.7190 C.ar  287  PHE287     -0.0003
    155  CE2       19.3820    1.9590  -25.4350 C.ar  287  PHE287     -0.0003
    156  CZ        20.1280    1.0870  -26.1900 C.ar  287  PHE287     -0.0000
    157  N         17.3230   -0.1320  -19.2010 N.3   305  ALA305     -0.1231
    158  CA        16.3340    0.6280  -18.4580 C.3   305  ALA305      0.1694
    159  C         15.2920    1.1620  -19.4220 C.2   305  ALA305      0.2592
    160  O         15.6230    1.6810  -20.4920 O.2   305  ALA305     -0.2718
    161  CB        17.0090    1.7980  -17.7260 C.3   305  ALA305      0.0304
    162  N         14.0240    1.0270  -19.0390 N.am  306  PHE306     -0.1962
    163  CA        12.9160    1.5180  -19.8570 C.3   306  PHE306      0.1771
    164  C         12.1650    2.5670  -19.0500 C.2   306  PHE306      0.2620
    165  O         11.8910    2.3600  -17.8680 O.2   306  PHE306     -0.2715
    166  CB        11.9610    0.3660  -20.2140 C.3   306  PHE306      0.0574
    167  CG        12.6100   -0.7270  -21.0080 C.ar  306  PHE306     -0.0200
    168  CD1       13.2370   -1.7880  -20.3690 C.ar  306  PHE306     -0.0042
    169  CD2       12.6090   -0.6910  -22.3870 C.ar  306  PHE306     -0.0042
    170  CE1       13.8490   -2.7860  -21.1000 C.ar  306  PHE306     -0.0003
    171  CE2       13.2180   -1.6840  -23.1170 C.ar  306  PHE306     -0.0003
    172  CZ        13.8340   -2.7370  -22.4740 C.ar  306  PHE306     -0.0000
    173  N         11.8400    3.6900  -19.6850 N.am  307  GLY307     -0.1940
    174  CA        11.1970    4.7900  -18.9930 C.3   307  GLY307      0.2014
    175  C          9.7240    4.8340  -19.3330 C.2   307  GLY307      0.2639
    176  O          8.8850    4.3040  -18.5990 O.2   307  GLY307     -0.2714
    177  N          9.3940    5.4400  -20.4680 N.am  308  VAL308     -0.1963
    178  CA         7.9890    5.6030  -20.8180 C.3   308  VAL308      0.1712
    179  C          7.2580    4.2620  -20.8290 C.2   308  VAL308      0.2458
    180  O          6.1310    4.1790  -20.3480 O.2   308  VAL308     -0.2730
    181  CB         7.8060    6.3220  -22.1640 C.3   308  VAL308      0.0289
    182  CG1        6.3060    6.3850  -22.5260 C.3   308  VAL308      0.0023
    183  CG2        8.4010    7.7210  -22.0850 C.3   308  VAL308      0.0023
    184  N          7.8750    3.2080  -21.3890 N.am  309  PRO309     -0.2727
    185  CA         7.1300    1.9410  -21.3700 C.3   309  PRO309      0.1402
    186  C          6.7620    1.4610  -19.9540 C.2   309  PRO309      0.2269
    187  O          5.7410    0.7770  -19.7980 O.2   309  PRO309     -0.2865
    188  CB         8.0860    0.9610  -22.0490 C.3   309  PRO309      0.0296
    189  CG         8.9070    1.8290  -22.9750 C.3   309  PRO309      0.0237
    190  CD         9.0760    3.1350  -22.2470 C.3   309  PRO309      0.0939
    191  N          6.0630    3.6340  -17.4180 N.3   311  ILE311     -0.1245
    192  CA         4.9630    4.4880  -17.0000 C.3   311  ILE311      0.1561
    193  C          3.6570    3.7910  -17.3720 C.2   311  ILE311      0.2260
    194  O          2.7400    3.6850  -16.5550 O.2   311  ILE311     -0.2867
    195  CB         5.0360    5.8670  -17.6880 C.3   311  ILE311      0.0252
    196  CG1        6.2070    6.6580  -17.1060 C.3   311  ILE311      0.0019
    197  CG2        3.7230    6.6330  -17.5250 C.3   311  ILE311      0.0019
    198  CD1        6.3400    8.0500  -17.6610 C.3   311  ILE311      0.0001
    199  N          1.9960   12.5290  -17.4440 N.3   334  PHE334     -0.1227
    200  CA         3.3030   12.1890  -16.9010 C.3   334  PHE334      0.1736
    201  C          3.5580   12.9820  -15.6290 C.2   334  PHE334      0.2595
    202  O          4.0840   12.4620  -14.6720 O.2   334  PHE334     -0.2718
    203  CB         4.4220   12.4620  -17.9130 C.3   334  PHE334      0.0547
    204  CG         4.4710   11.4680  -19.0390 C.ar  334  PHE334     -0.0202
    205  CD1        3.6280   10.3690  -19.0490 C.ar  334  PHE334     -0.0042
    206  CD2        5.3670   11.6320  -20.0880 C.ar  334  PHE334     -0.0042
    207  CE1        3.6710    9.4520  -20.0920 C.ar  334  PHE334     -0.0003
    208  CE2        5.4160   10.7150  -21.1300 C.ar  334  PHE334     -0.0003
    209  CZ         4.5780    9.6240  -21.1290 C.ar  334  PHE334     -0.0000
    210  N          3.1960   14.2600  -15.6420 N.am  335  TYR335     -0.1976
    211  CA         3.3170   15.0870  -14.4550 C.3   335  TYR335      0.1639
    212  C          1.9290   15.4650  -13.9330 C.2   335  TYR335      0.2290
    213  O          0.9470   14.7820  -14.2090 O.2   335  TYR335     -0.2864
    214  CB         4.1630   16.3210  -14.7640 C.3   335  TYR335      0.0560
    215  CG         5.4310   15.9820  -15.5230 C.ar  335  TYR335     -0.0198
    216  CD1        6.5710   15.5200  -14.8620 C.ar  335  TYR335     -0.0009
    217  CD2        5.4840   16.0990  -16.9000 C.ar  335  TYR335     -0.0009
    218  CE1        7.7420   15.1980  -15.5660 C.ar  335  TYR335      0.0417
    219  CE2        6.6390   15.7790  -17.6060 C.ar  335  TYR335      0.0417
    220  CZ         7.7670   15.3310  -16.9340 C.ar  335  TYR335      0.1957
    221  OH         8.9150   15.0160  -17.6490 O.3   335  TYR335     -0.2866
@<TRIPOS>BOND
     1   145   143    1
     2   144   143    1
     3   143   142    2
     4   142   141    1
     5   138   137    2
     6   139   140    1
     7   139   136    1
     8   141   140    1
     9   137   136    1
    10   137   146   am
    11   136   135    1
    12   154   152   ar
    13   154   156   ar
    14   148   147    1
    15   148   149    2
    16   147   146    1
    17   147   150    1
    18   152   151   ar
    19   129   128    2
    20   156   155   ar
    21   135   128   am
    22   151   150    1
    23   151   153   ar
    24   133   132   ar
    25   128   127    1
    26   155   153   ar
    27   132   131    1
    28   132   134   ar
    29   131   130    1
    30   130   127    1
    31   127   126    1
    32   121   120    2
    33   126   120   am
    34   116   115    1
    35   171   172   ar
    36   171   169   ar
    37   120   119    1
    38   189   190    1
    39   189   188    1
    40   182   181    1
    41   172   170   ar
    42   110   109    2
    43   169   167   ar
    44   109   108    1
    45   190   184    1
    46   181   183    1
    47   181   178    1
    48   188   185    1
    49   115   117    1
    50   115   114    2
    51   118   119    1
    52   119   122    1
    53   112   113    1
    54   112   111    1
    55   184   185    1
    56   184   179   am
    57   185   186    1
    58   113   114    1
    59   208   209   ar
    60   208   206   ar
    61   209   207   ar
    62   170   168   ar
    63   108   111    1
    64   108   107    1
    65   167   168   ar
    66   167   166    1
    67   179   178    1
    68   179   180    2
    69   178   177    1
    70   124   123    2
    71   122   123    1
    72   123   125   am
    73   160   159    2
    74   177   175   am
    75   166   163    1
    76   207   205   ar
    77   206   204   ar
    78   186   187    2
    79   163   164    1
    80   163   162    1
    81   173   164   am
    82   173   174    1
    83   159   162   am
    84   159   158    1
    85   175   174    1
    86   175   176    2
    87   157   158    1
    88   164   165    2
    89   205   204   ar
    90   204   203    1
    91    83    82    2
    92   158   161    1
    93   203   200    1
    94    82    81    1
    95    82    84   am
    96    78    79    1
    97    78    81    1
    98    78    77    1
    99   195   197    1
   100   195   196    1
   101   195   192    1
   102   198   196    1
   103   221   220    1
   104   219   220   ar
   105   219   217   ar
   106   199   200    1
   107   191   192    1
   108   193   192    1
   109   193   194    2
   110    79    80    2
   111   220   218   ar
   112   200   201    1
   113   217   215   ar
   114     5     2    1
   115    20    18    1
   116   106   105   ar
   117   106   104   ar
   118   210   201   am
   119   210   211    1
   120   201   202    2
   121   218   216   ar
   122   215   216   ar
   123   215   214    1
   124   105   103   ar
   125     1     2    1
   126     2     3    1
   127    19    18    1
   128   104   102   ar
   129    18    17    1
   130   214   211    1
   131    96    95    1
   132     9     8    2
   133    85    86    1
   134    99   100    2
   135    99    98    1
   136    38    36    1
   137   103   102   ar
   138   211   212    1
   139   102   101    1
   140     3     4    2
   141     3     6   am
   142    94    95   ar
   143    94    92   ar
   144    36    35    2
   145    36    37    1
   146    17    14    1
   147   213   212    2
   148    95    93   ar
   149    12     6    1
   150    12    11    1
   151    35    34    1
   152    98   101    1
   153    98    97    1
   154     6     7    1
   155    92    90   ar
   156    11    10    1
   157    75    76   ar
   158    75    73   ar
   159    24    23    2
   160    14    13    1
   161    14    15    1
   162    34    33    1
   163     8    13   am
   164     8     7    1
   165    93    91   ar
   166    86    87    1
   167    86    89    1
   168    88    87    2
   169    90    91   ar
   170    90    89    1
   171    76    74   ar
   172     7    10    1
   173    21    15   am
   174    21    22    1
   175    73    72   ar
   176    15    16    2
   177    23    22    1
   178    23    28   am
   179    25    22    1
   180    25    27    1
   181    25    26    1
   182    33    32    1
   183    52    50   am
   184    74    72   ar
   185    29    28    1
   186    29    32    1
   187    29    30    1
   188    72    71    1
   189    31    30    2
   190    64    66   ar
   191    64    62   ar
   192    69    70    2
   193    69    68    1
   194    51    50    2
   195    50    49    1
   196    61    62   ar
   197    61    59   ar
   198    68    71    1
   199    68    67    1
   200    66    65   ar
   201    62    60   ar
   202    43    40    1
   203    59    58   ar
   204    49    48    1
   205    39    40    1
   206    65    63   ar
   207    60    58   ar
   208    60    63   ar
   209    40    41    1
   210    58    57    1
   211    48    45    1
   212    41    42    2
   213    57    54    1
   214    45    46    1
   215    45    44    1
   216    54    55    1
   217    54    53    1
   218    46    47    2
   219    55    56    2
