@<TRIPOS>MOLECULE
tmp/4aeoB01.pdb
 128 123 0 0 0
SMALL
GASTEIGER

@<TRIPOS>ATOM
      1  N         14.5940    5.9270  -13.8310 N.3    22  PRO22      -0.2116
      2  CA        14.1460    6.9800  -12.9180 C.3    22  PRO22       0.1372
      3  C         13.1890    7.9400  -13.6170 C.2    22  PRO22       0.2244
      4  O         13.5060    8.4820  -14.6770 O.2    22  PRO22      -0.2868
      5  CB        15.4550    7.6770  -12.5230 C.3    22  PRO22       0.0268
      6  CG        16.3460    7.4860  -13.7220 C.3    22  PRO22       0.0207
      7  CD        16.0140    6.0890  -14.2050 C.3    22  PRO22       0.0892
      8  N         10.5270   11.1860  -12.8620 N.3    24  THR24      -0.1218
      9  CA         9.8510   12.2310  -12.1020 C.3    24  THR24       0.1862
     10  C          8.3690   12.2470  -12.4620 C.2    24  THR24       0.2287
     11  O          8.0220   12.3430  -13.6470 O.2    24  THR24      -0.2866
     12  CB        10.4820   13.5980  -12.4480 C.3    24  THR24       0.1770
     13  OG1       11.7820   13.6910  -11.8420 O.3    24  THR24      -0.2211
     14  CG2        9.5830   14.7620  -11.9860 C.3    24  THR24       0.0375
     15  N         13.7570   11.0320   -9.4210 N.3    55  ALA55      -0.1245
     16  CA        14.7700   11.9190   -8.8690 C.3    55  ALA55       0.1562
     17  C         14.2970   12.5600   -7.5640 C.2    55  ALA55       0.2260
     18  O         13.1840   13.1190   -7.4720 O.2    55  ALA55      -0.2867
     19  CB        15.1480   12.9890   -9.8850 C.3    55  ALA55       0.0290
     20  N         10.9240   21.5600   -9.5490 N.3    65  TYR65      -0.1241
     21  CA         9.6510   21.0920  -10.0830 C.3    65  TYR65       0.1605
     22  C          8.6540   20.9730   -8.9290 C.2    65  TYR65       0.2264
     23  O          9.0510   20.8700   -7.7710 O.2    65  TYR65      -0.2867
     24  CB         9.8470   19.7210  -10.7460 C.3    65  TYR65       0.0534
     25  CG        10.8490   19.7710  -11.8690 C.ar   65  TYR65      -0.0201
     26  CD1       10.4490   20.0610  -13.1630 C.ar   65  TYR65      -0.0009
     27  CD2       12.2040   19.5580  -11.6280 C.ar   65  TYR65      -0.0009
     28  CE1       11.3600   20.1250  -14.1960 C.ar   65  TYR65       0.0417
     29  CE2       13.1310   19.6240  -12.6600 C.ar   65  TYR65       0.0417
     30  CZ        12.7000   19.9020  -13.9390 C.ar   65  TYR65       0.1957
     31  OH        13.5960   19.9750  -14.9800 O.3    65  TYR65      -0.2866
     32  N         17.2870    7.6650   -6.3380 N.3    97  GLN97      -0.1245
     33  CA        18.1310    8.5270   -7.1620 C.3    97  GLN97       0.1566
     34  C         18.3010    9.8650   -6.4690 C.2    97  GLN97       0.2260
     35  O         17.3230   10.5910   -6.2730 O.2    97  GLN97      -0.2867
     36  CB        17.5250    8.7440   -8.5600 C.3    97  GLN97       0.0367
     37  CG        18.5210    9.4350   -9.5300 C.3    97  GLN97       0.0905
     38  CD        17.9000    9.8110  -10.8760 C.2    97  GLN97       0.2608
     39  OE1       16.8690   10.4920  -10.9420 O.2    97  GLN97      -0.2717
     40  NE2       18.5330    9.3720  -11.9550 N.am   97  GLN97      -0.0878
     41  N         19.3200   13.7000   -6.0740 N.3    99  TRP99      -0.1241
     42  CA        19.1860   14.8010   -7.0310 C.3    99  TRP99       0.1605
     43  C         19.5440   16.1430   -6.4260 C.2    99  TRP99       0.2264
     44  O         19.2390   16.4040   -5.2630 O.2    99  TRP99      -0.2867
     45  CB        17.7100   14.9100   -7.4010 C.3    99  TRP99       0.0550
     46  CG        17.3610   15.5580   -8.7020 C.ar   99  TRP99       0.0003
     47  CD1       18.1920   15.8680   -9.7370 C.ar   99  TRP99       0.0946
     48  CD2       16.0490   15.9350   -9.1060 C.ar   99  TRP99       0.0152
     49  NE1       17.4620   16.4090  -10.7780 N.ar   99  TRP99      -0.2442
     50  CE2       16.1400   16.4570  -10.4080 C.ar   99  TRP99       0.0810
     51  CE3       14.7930   15.8640   -8.4960 C.ar   99  TRP99       0.0012
     52  CZ2       15.0290   16.9140  -11.1030 C.ar   99  TRP99       0.0191
     53  CZ3       13.6970   16.3110   -9.1830 C.ar   99  TRP99       0.0001
     54  CH2       13.8120   16.8250  -10.4760 C.ar   99  TRP99       0.0015
     55  N         10.2230   24.2520  -17.1070 N.3   128  SER128     -0.1217
     56  CA         9.1420   23.3010  -17.3490 C.3   128  SER128      0.1889
     57  C          8.0090   23.4620  -16.3230 C.2   128  SER128      0.2288
     58  O          8.2710   23.6650  -15.1390 O.2   128  SER128     -0.2866
     59  CB         9.6760   21.8670  -17.3120 C.3   128  SER128      0.2089
     60  OG        10.6540   21.6560  -18.3170 O.3   128  SER128     -0.2183
     61  N         22.4630   11.0390   -9.3320 N.3   172  HIS172     -0.1241
     62  CA        21.9710   11.6410  -10.5640 C.3   172  HIS172      0.1621
     63  C         23.0600   12.5610  -11.0860 C.2   172  HIS172      0.2264
     64  O         23.1130   13.7290  -10.7100 O.2   172  HIS172     -0.2867
     65  CB        20.6800   12.4330  -10.3110 C.3   172  HIS172      0.0745
     66  CG        19.9290   12.7860  -11.5600 C.ar  172  HIS172      0.0817
     67  ND1       20.5050   12.8030  -12.8090 N.ar  172  HIS172     -0.2268
     68  CD2       18.6310   13.1410  -11.7370 C.ar  172  HIS172      0.1154
     69  CE1       19.5960   13.1580  -13.7050 C.ar  172  HIS172      0.1986
     70  NE2       18.4500   13.3540  -13.0780 N.ar  172  HIS172     -0.2212
     71  N         21.6930   14.7020  -17.2500 N.3   175  ASN175     -0.1240
     72  CA        20.6250   15.5770  -17.7140 C.3   175  ASN175      0.1653
     73  C         20.7500   17.0360  -17.3140 C.2   175  ASN175      0.2266
     74  O         19.7600   17.7360  -17.1410 O.2   175  ASN175     -0.2867
     75  CB        19.2720   14.9860  -17.3100 C.3   175  ASN175      0.1155
     76  CG        19.0950   13.5700  -17.8460 C.2   175  ASN175      0.2627
     77  OD1       19.7600   13.1980  -18.8050 O.2   175  ASN175     -0.2716
     78  ND2       18.2170   12.7740  -17.2340 N.am  175  ASN175     -0.0877
     79  N         21.8830   18.5350  -14.6540 N.3   177  TYR177     -0.1241
     80  CA        21.6180   18.9640  -13.2780 C.3   177  TYR177      0.1605
     81  C         22.9430   19.2850  -12.5870 C.2   177  TYR177      0.2264
     82  O         23.9540   19.3910  -13.2640 O.2   177  TYR177     -0.2867
     83  CB        20.7430   17.9410  -12.5630 C.3   177  TYR177      0.0534
     84  CG        19.3350   17.9500  -13.1380 C.ar  177  TYR177     -0.0201
     85  CD1       18.5610   19.1040  -13.0920 C.ar  177  TYR177     -0.0009
     86  CD2       18.7960   16.8280  -13.7430 C.ar  177  TYR177     -0.0009
     87  CE1       17.2860   19.1400  -13.6160 C.ar  177  TYR177      0.0417
     88  CE2       17.5120   16.8550  -14.2770 C.ar  177  TYR177      0.0417
     89  CZ        16.7720   18.0060  -14.2080 C.ar  177  TYR177      0.1957
     90  OH        15.5200   18.0030  -14.7370 O.3   177  TYR177     -0.2866
     91  N         20.5120   17.4800  -23.0780 N.3   231  ALA231     -0.1231
     92  CA        19.3760   17.9680  -22.3150 C.3   231  ALA231      0.1694
     93  C         19.7940   19.1060  -21.3870 C.2   231  ALA231      0.2592
     94  O         20.8590   19.0600  -20.7650 O.2   231  ALA231     -0.2718
     95  CB        18.7330   16.8180  -21.5200 C.3   231  ALA231      0.0304
     96  N         18.9340   20.1200  -21.3210 N.am  232  HIS232     -0.1976
     97  CA        19.1000   21.2910  -20.4640 C.3   232  HIS232      0.1656
     98  C         20.3440   22.1210  -20.7800 C.2   232  HIS232      0.2291
     99  O         21.0880   22.5160  -19.8850 O.2   232  HIS232     -0.2864
    100  CB        19.0230   20.8940  -18.9830 C.3   232  HIS232      0.0771
    101  CG        17.6790   20.3640  -18.5840 C.ar  232  HIS232      0.0820
    102  ND1       17.5070   19.1240  -18.0060 N.ar  232  HIS232     -0.2267
    103  CD2       16.4390   20.8950  -18.7120 C.ar  232  HIS232      0.1154
    104  CE1       16.2200   18.9240  -17.7710 C.ar  232  HIS232      0.1986
    105  NE2       15.5500   19.9810  -18.1970 N.ar  232  HIS232     -0.2212
    106  N         21.5960    7.5670  -20.0260 N.3   261  ARG261     -0.1245
    107  CA        20.5900    7.9410  -21.0170 C.3   261  ARG261      0.1563
    108  C         21.3260    8.2820  -22.3180 C.2   261  ARG261      0.2260
    109  O         21.9010    9.3610  -22.4420 O.2   261  ARG261     -0.2867
    110  CB        19.7890    9.1640  -20.5850 C.3   261  ARG261      0.0307
    111  CG        18.7310    9.5450  -21.6440 C.3   261  ARG261      0.0489
    112  CD        17.8830   10.7530  -21.2360 C.3   261  ARG261      0.2205
    113  NE        18.7110   11.9480  -21.0570 N.pl3 261  ARG261     -0.0865
    114  CZ        19.2450   12.6590  -22.0460 C.cat 261  ARG261      0.5346
    115  NH1       19.0480   12.3170  -23.3250 N.pl3 261  ARG261      0.1354
    116  NH2       19.9920   13.7160  -21.7620 N.pl3 261  ARG261      0.1354
    117  N          3.1960   14.2600  -15.6420 N.3   335  TYR335     -0.1241
    118  CA         3.3170   15.0870  -14.4550 C.3   335  TYR335      0.1605
    119  C          1.9290   15.4650  -13.9330 C.2   335  TYR335      0.2264
    120  O          0.9470   14.7820  -14.2090 O.2   335  TYR335     -0.2867
    121  CB         4.1630   16.3210  -14.7640 C.3   335  TYR335      0.0534
    122  CG         5.4310   15.9820  -15.5230 C.ar  335  TYR335     -0.0201
    123  CD1        6.5710   15.5200  -14.8620 C.ar  335  TYR335     -0.0009
    124  CD2        5.4840   16.0990  -16.9000 C.ar  335  TYR335     -0.0009
    125  CE1        7.7420   15.1980  -15.5660 C.ar  335  TYR335      0.0417
    126  CE2        6.6390   15.7790  -17.6060 C.ar  335  TYR335      0.0417
    127  CZ         7.7670   15.3310  -16.9340 C.ar  335  TYR335      0.1957
    128  OH         8.9150   15.0160  -17.6490 O.3   335  TYR335     -0.2866
@<TRIPOS>BOND
     1   115   114    1
     2    91    92    1
     3   109   108    2
     4   108   107    1
     5    92    95    1
     6    92    93    1
     7   114   116    1
     8   114   113    2
     9   111   112    1
    10   111   110    1
    11    93    96   am
    12    93    94    2
    13    96    97    1
    14   112   113    1
    15   107   110    1
    16   107   106    1
    17    98    97    1
    18    98    99    2
    19    97   100    1
    20   100   101    1
    21    77    76    2
    22   103   101   ar
    23   103   105   ar
    24   101   102   ar
    25    60    59    1
    26   105   104   ar
    27   102   104   ar
    28    76    75    1
    29    76    78   am
    30    72    73    1
    31    72    75    1
    32    72    71    1
    33   128   127    1
    34   126   127   ar
    35   126   124   ar
    36    56    59    1
    37    56    55    1
    38    56    57    1
    39    73    74    2
    40   127   125   ar
    41   124   122   ar
    42    57    58    2
    43   117   118    1
    44   125   123   ar
    45   122   123   ar
    46   122   121    1
    47    31    30    1
    48   121   118    1
    49    90    89    1
    50     4     3    2
    51    79    80    1
    52   118   119    1
    53    88    89   ar
    54    88    86   ar
    55   120   119    2
    56    89    87   ar
    57     7     1    1
    58     7     6    1
    59    28    30   ar
    60    28    26   ar
    61    30    29   ar
    62     1     2    1
    63    86    84   ar
    64     6     5    1
    65    69    70   ar
    66    69    67   ar
    67    11    10    2
    68     3     2    1
    69    87    85   ar
    70    80    81    1
    71    80    83    1
    72    82    81    2
    73    26    25   ar
    74    84    85   ar
    75    84    83    1
    76    70    68   ar
    77     2     5    1
    78     8     9    1
    79    67    66   ar
    80    29    27   ar
    81    10     9    1
    82    12     9    1
    83    12    14    1
    84    12    13    1
    85    40    38   am
    86    25    27   ar
    87    25    24    1
    88    68    66   ar
    89    66    65    1
    90    52    54   ar
    91    52    50   ar
    92    63    64    2
    93    63    62    1
    94    39    38    2
    95    38    37    1
    96    49    50   ar
    97    49    47   ar
    98    24    21    1
    99    62    65    1
   100    62    61    1
   101    54    53   ar
   102    50    48   ar
   103    21    20    1
   104    21    22    1
   105    19    16    1
   106    47    46   ar
   107    37    36    1
   108    15    16    1
   109    53    51   ar
   110    48    46   ar
   111    48    51   ar
   112    22    23    2
   113    16    17    1
   114    46    45    1
   115    36    33    1
   116    17    18    2
   117    45    42    1
   118    33    34    1
   119    33    32    1
   120    42    43    1
   121    42    41    1
   122    34    35    2
   123    43    44    2
