@<TRIPOS>MOLECULE
tmp/4af0A00.pdb
 117 106 0 0 0
SMALL
GASTEIGER

@<TRIPOS>ATOM
      1  N         34.1140   24.1510   37.8200 N.3   149  ARG149     -0.1245
      2  CA        35.5100   23.8500   37.5170 C.3   149  ARG149      0.1563
      3  C         36.3340   25.1230   37.7400 C.2   149  ARG149      0.2260
      4  O         35.7420   26.2080   37.7690 O.2   149  ARG149     -0.2867
      5  CB        35.6340   23.3340   36.0730 C.3   149  ARG149      0.0307
      6  CG        35.1080   21.9050   35.9370 C.3   149  ARG149      0.0489
      7  CD        35.2250   21.3520   34.5330 C.3   149  ARG149      0.2205
      8  NE        35.3200   19.8860   34.5410 N.pl3 149  ARG149     -0.0865
      9  CZ        34.3160   19.0550   34.2660 C.cat 149  ARG149      0.5346
     10  NH1       33.1200   19.5310   33.9320 N.pl3 149  ARG149      0.1354
     11  NH2       34.5020   17.7430   34.3100 N.pl3 149  ARG149      0.1354
     12  N         25.4610   24.7690   37.5560 N.3   170  ASP170     -0.1225
     13  CA        24.9260   23.7320   36.6970 C.3   170  ASP170      0.1805
     14  C         25.5270   22.3560   36.9410 C.2   170  ASP170      0.2598
     15  O         26.6900   22.1250   36.6160 O.2   170  ASP170     -0.2718
     16  CB        25.0470   24.1620   35.2330 C.3   170  ASP170      0.1424
     17  CG        24.1340   23.4140   34.2920 C.2   170  ASP170      0.3668
     18  OD1       23.0470   22.9630   34.7420 O.co2 170  ASP170     -0.2456
     19  OD2       24.4680   23.3290   33.0980 O.co2 170  ASP170     -0.2456
     20  N         24.7150   21.4370   37.5210 N.am  171  SER171     -0.1938
     21  CA        25.1500   20.0870   37.9050 C.3   171  SER171      0.2055
     22  C         23.9780   19.0930   38.0490 C.2   171  SER171      0.2643
     23  O         22.9090   19.4640   38.5450 O.2   171  SER171     -0.2714
     24  CB        25.8940   20.1820   39.2420 C.3   171  SER171      0.2130
     25  OG        26.3780   18.9390   39.7180 O.3   171  SER171     -0.2179
     26  N         24.2090   17.8100   37.6830 N.am  172  SER172     -0.1949
     27  CA        23.2390   16.7280   37.8830 C.3   172  SER172      0.1924
     28  C         23.1950   16.3730   39.3930 C.2   172  SER172      0.2314
     29  O         22.1810   15.8580   39.8700 O.2   172  SER172     -0.2863
     30  CB        23.6070   15.4950   37.0580 C.3   172  SER172      0.2116
     31  OG        24.8150   14.9010   37.4900 O.3   172  SER172     -0.2180
     32  N         21.9980   20.4950   41.0710 N.3   199  ASN199     -0.1240
     33  CA        20.6720   19.9770   41.4290 C.3   199  ASN199      0.1653
     34  C         20.6660   19.0850   42.6520 C.2   199  ASN199      0.2266
     35  O         21.6530   18.3950   42.9320 O.2   199  ASN199     -0.2867
     36  CB        19.9920   19.3080   40.2380 C.3   199  ASN199      0.1155
     37  CG        19.3710   20.2760   39.2560 C.2   199  ASN199      0.2627
     38  OD1       19.9470   21.3090   38.9330 O.2   199  ASN199     -0.2716
     39  ND2       18.2080   19.9490   38.7060 N.am  199  ASN199     -0.0877
     40  N         18.0080   24.4760   43.2570 N.3   218  ARG218     -0.1245
     41  CA        17.4600   23.9360   42.0120 C.3   218  ARG218      0.1563
     42  C         17.2110   22.4440   42.3070 C.2   218  ARG218      0.2260
     43  O         18.1490   21.7170   42.6640 O.2   218  ARG218     -0.2867
     44  CB        18.4880   24.1460   40.8810 C.3   218  ARG218      0.0307
     45  CG        17.9480   23.9780   39.4850 C.3   218  ARG218      0.0489
     46  CD        19.0470   24.2560   38.4790 C.3   218  ARG218      0.2205
     47  NE        18.6870   23.8380   37.1210 N.pl3 218  ARG218     -0.0865
     48  CZ        19.5590   23.5960   36.1470 C.cat 218  ARG218      0.5346
     49  NH1       20.8630   23.6890   36.3760 N.pl3 218  ARG218      0.1354
     50  NH2       19.1360   23.2340   34.9430 N.pl3 218  ARG218      0.1354
     51  N         15.7810   18.6010   41.3080 N.3   220  GLY220     -0.1210
     52  CA        15.5110   17.6380   40.2470 C.3   220  GLY220      0.1956
     53  C         16.7010   16.7760   39.8850 C.2   220  GLY220      0.2612
     54  O         17.8250   17.2710   39.7350 O.2   220  GLY220     -0.2717
     55  N         16.4500   15.4740   39.7400 N.am  221  MET221     -0.1965
     56  CA        17.4190   14.4930   39.3150 C.3   221  MET221      0.1736
     57  C         16.6760   13.3340   38.6490 C.2   221  MET221      0.2617
     58  O         16.1150   12.4670   39.3300 O.2   221  MET221     -0.2715
     59  CB        18.3400   14.0250   40.4610 C.3   221  MET221      0.0427
     60  CG        19.5620   13.2860   39.9600 C.3   221  MET221      0.0599
     61  SD        20.6250   12.7700   41.3200 S.3   221  MET221     -0.1393
     62  CE        22.0250   12.2230   40.4070 C.3   221  MET221      0.0692
     63  N         16.6810   13.3420   37.3210 N.am  222  GLY222     -0.1955
     64  CA        16.0250   12.3160   36.5190 C.3   222  GLY222      0.1869
     65  C         14.6270   12.6630   36.0600 C.2   222  GLY222      0.2309
     66  O         13.9910   11.8580   35.3850 O.2   222  GLY222     -0.2863
     67  N         15.7390   13.5290   29.7150 N.3   227  CYS227     -0.1235
     68  CA        16.5460   12.7290   30.6100 C.3   227  CYS227      0.1677
     69  C         16.4550   11.2570   30.1740 C.2   227  CYS227      0.2270
     70  O         15.3420   10.7640   29.9480 O.2   227  CYS227     -0.2867
     71  CB        16.0410   12.9280   32.0340 C.3   227  CYS227      0.0956
     72  SG        16.9750   12.0380   33.2910 S.3   227  CYS227     -0.0801
     73  N         18.6020    4.7220   34.5200 N.3   233  MET233     -0.1245
     74  CA        19.1290    5.5400   35.6200 C.3   233  MET233      0.1570
     75  C         19.1540    4.7420   36.9270 C.2   233  MET233      0.2261
     76  O         18.2610    3.9280   37.1420 O.2   233  MET233     -0.2867
     77  CB        18.2510    6.7940   35.8150 C.3   233  MET233      0.0387
     78  CG        18.0810    7.6550   34.5580 C.3   233  MET233      0.0595
     79  SD        19.5000    8.7030   34.1020 S.3   233  MET233     -0.1393
     80  CE        19.3530   10.0360   35.3430 C.3   233  MET233      0.0692
     81  N         12.6020   21.9420   39.1930 N.3   260  ASP260     -0.1239
     82  CA        13.2010   21.8220   37.8650 C.3   260  ASP260      0.1674
     83  C         13.0690   20.4170   37.2580 C.2   260  ASP260      0.2266
     84  O         13.6000   19.4620   37.8020 O.2   260  ASP260     -0.2867
     85  CB        14.6770   22.2750   37.9320 C.3   260  ASP260      0.1410
     86  CG        15.4680   22.0630   36.6600 C.2   260  ASP260      0.3668
     87  OD1       14.8610   22.1190   35.5630 O.co2 260  ASP260     -0.2456
     88  OD2       16.7020   21.8660   36.7540 O.co2 260  ASP260     -0.2456
     89  N         21.4360   18.5400   28.0660 N.3   310  MET310     -0.1230
     90  CA        22.7980   19.0650   28.0750 C.3   310  MET310      0.1702
     91  C         23.8330   17.9460   28.2720 C.2   310  MET310      0.2592
     92  O         25.0100   18.1270   27.9680 O.2   310  MET310     -0.2718
     93  CB        22.9430   20.2240   29.0790 C.3   310  MET310      0.0401
     94  CG        22.1530   21.4890   28.6780 C.3   310  MET310      0.0596
     95  SD        22.3670   22.0360   26.9510 S.3   310  MET310     -0.1393
     96  CE        24.0000   22.6910   27.0230 C.3   310  MET310      0.0692
     97  N         23.3650   16.7840   28.7220 N.am  311  GLY311     -0.1957
     98  CA        24.1850   15.5880   28.8780 C.3   311  GLY311      0.1869
     99  C         24.0720   14.6580   27.6850 C.2   311  GLY311      0.2309
    100  O         24.5230   13.5080   27.7510 O.2   311  GLY311     -0.2863
    101  N         27.2240   17.7860   24.4990 N.3   316  MET316     -0.1245
    102  CA        28.5920   17.6100   25.0160 C.3   316  MET316      0.1570
    103  C         29.6570   17.8420   23.9310 C.2   316  MET316      0.2261
    104  O         30.7220   18.3940   24.2330 O.2   316  MET316     -0.2867
    105  CB        28.7860   16.2250   25.6560 C.3   316  MET316      0.0387
    106  CG        28.0010   16.0340   26.9540 C.3   316  MET316      0.0595
    107  SD        28.3990   14.4900   27.8360 S.3   316  MET316     -0.1393
    108  CE        27.7700   13.2950   26.7080 C.3   316  MET316      0.0692
    109  N         23.8590   11.2810   29.2960 N.3   340  GLN340     -0.1245
    110  CA        22.9760   11.4570   30.4490 C.3   340  GLN340      0.1566
    111  C         21.6020   11.9860   30.0600 C.2   340  GLN340      0.2260
    112  O         20.6650   11.9510   30.8630 O.2   340  GLN340     -0.2867
    113  CB        23.6610   12.2620   31.5600 C.3   340  GLN340      0.0367
    114  CG        24.6720   11.4090   32.3260 C.3   340  GLN340      0.0905
    115  CD        25.0420   12.0070   33.6530 C.2   340  GLN340      0.2608
    116  OE1       26.1970   12.3780   33.8780 O.2   340  GLN340     -0.2717
    117  NE2       24.0800   12.0860   34.5750 N.am  340  GLN340     -0.0878
@<TRIPOS>BOND
     1   103   104    2
     2   103   102    1
     3   101   102    1
     4   102   105    1
     5   105   106    1
     6   108   107    1
     7    95    96    1
     8    95    94    1
     9   106   107    1
    10    99   100    2
    11    99    98    1
    12    92    91    2
    13    89    90    1
    14    90    91    1
    15    90    93    1
    16    91    97   am
    17    94    93    1
    18    97    98    1
    19   109   110    1
    20    67    68    1
    21    70    69    2
    22   111   110    1
    23   111   112    2
    24    69    68    1
    25   110   113    1
    26    68    71    1
    27   113   114    1
    28    71    72    1
    29   114   115    1
    30    19    17   ar
    31   115   116    2
    32   115   117   am
    33    10     9    1
    34    79    78    1
    35    79    80    1
    36     9    11    1
    37     9     8    2
    38    17    18   ar
    39    17    16    1
    40    73    74    1
    41     7     8    1
    42     7     6    1
    43    78    77    1
    44    50    48    1
    45    16    13    1
    46    66    65    2
    47    87    86   ar
    48    74    77    1
    49    74    75    1
    50     6     5    1
    51    65    64    1
    52     5     2    1
    53    48    49    1
    54    48    47    2
    55    64    63    1
    56    15    14    2
    57    86    88   ar
    58    86    85    1
    59    13    14    1
    60    13    12    1
    61    75    76    2
    62    14    20   am
    63    30    31    1
    64    30    27    1
    65    47    46    1
    66    83    84    2
    67    83    82    1
    68    63    57   am
    69     2     3    1
    70     2     1    1
    71    20    21    1
    72    26    27    1
    73    26    22   am
    74     3     4    2
    75    82    85    1
    76    82    81    1
    77    27    28    1
    78    21    22    1
    79    21    24    1
    80    22    23    2
    81    46    45    1
    82    57    56    1
    83    57    58    2
    84    39    37   am
    85    38    37    2
    86    24    25    1
    87    37    36    1
    88    56    55    1
    89    56    59    1
    90    28    29    2
    91    45    44    1
    92    54    53    2
    93    55    53   am
    94    53    52    1
    95    60    59    1
    96    60    61    1
    97    36    33    1
    98    52    51    1
    99    62    61    1
   100    44    41    1
   101    32    33    1
   102    33    34    1
   103    41    42    1
   104    41    40    1
   105    42    43    2
   106    34    35    2
