@<TRIPOS>MOLECULE
tmp/4af0A01.pdb
 176 163 0 0 0
SMALL
GASTEIGER

@<TRIPOS>ATOM
      1  N         15.0380   27.1630   31.5400 N.3    83  SER83      -0.1217
      2  CA        16.1830   26.3110   31.8090 C.3    83  SER83       0.1889
      3  C         17.4600   26.7700   31.0680 C.2    83  SER83       0.2288
      4  O         17.3610   27.1900   29.9060 O.2    83  SER83      -0.2866
      5  CB        15.8350   24.8690   31.4580 C.3    83  SER83       0.2089
      6  OG        16.8610   23.9520   31.7920 O.3    83  SER83      -0.2183
      7  N         19.6560   25.8290   28.8720 N.3    85  MET85      -0.1245
      8  CA        19.8740   24.8080   27.8590 C.3    85  MET85       0.1570
      9  C         20.0380   25.5100   26.5230 C.2    85  MET85       0.2261
     10  O         19.3570   26.5120   26.2650 O.2    85  MET85      -0.2867
     11  CB        18.6970   23.8120   27.8390 C.3    85  MET85       0.0387
     12  CG        18.5750   22.9960   29.1340 C.3    85  MET85       0.0595
     13  SD        17.0670   22.0220   29.2990 S.3    85  MET85      -0.1393
     14  CE        17.5170   20.6460   28.2980 C.3    85  MET85       0.0692
     15  N         24.2090   17.8100   37.6830 N.3   172  SER172     -0.1217
     16  CA        23.2390   16.7280   37.8830 C.3   172  SER172      0.1889
     17  C         23.1950   16.3730   39.3930 C.2   172  SER172      0.2288
     18  O         22.1810   15.8580   39.8700 O.2   172  SER172     -0.2866
     19  CB        23.6070   15.4950   37.0580 C.3   172  SER172      0.2089
     20  OG        24.8150   14.9010   37.4900 O.3   172  SER172     -0.2183
     21  N         21.9980   20.4950   41.0710 N.3   199  ASN199     -0.1240
     22  CA        20.6720   19.9770   41.4290 C.3   199  ASN199      0.1653
     23  C         20.6660   19.0850   42.6520 C.2   199  ASN199      0.2266
     24  O         21.6530   18.3950   42.9320 O.2   199  ASN199     -0.2867
     25  CB        19.9920   19.3080   40.2380 C.3   199  ASN199      0.1155
     26  CG        19.3710   20.2760   39.2560 C.2   199  ASN199      0.2627
     27  OD1       19.9470   21.3090   38.9330 O.2   199  ASN199     -0.2716
     28  ND2       18.2080   19.9490   38.7060 N.am  199  ASN199     -0.0877
     29  N         18.0080   24.4760   43.2570 N.3   218  ARG218     -0.1245
     30  CA        17.4600   23.9360   42.0120 C.3   218  ARG218      0.1563
     31  C         17.2110   22.4440   42.3070 C.2   218  ARG218      0.2260
     32  O         18.1490   21.7170   42.6640 O.2   218  ARG218     -0.2867
     33  CB        18.4880   24.1460   40.8810 C.3   218  ARG218      0.0307
     34  CG        17.9480   23.9780   39.4850 C.3   218  ARG218      0.0489
     35  CD        19.0470   24.2560   38.4790 C.3   218  ARG218      0.2205
     36  NE        18.6870   23.8380   37.1210 N.pl3 218  ARG218     -0.0865
     37  CZ        19.5590   23.5960   36.1470 C.cat 218  ARG218      0.5346
     38  NH1       20.8630   23.6890   36.3760 N.pl3 218  ARG218      0.1354
     39  NH2       19.1360   23.2340   34.9430 N.pl3 218  ARG218      0.1354
     40  N         15.7810   18.6010   41.3080 N.3   220  GLY220     -0.1225
     41  CA        15.5110   17.6380   40.2470 C.3   220  GLY220      0.1811
     42  C         16.7010   16.7760   39.8850 C.2   220  GLY220      0.2280
     43  O         17.8250   17.2710   39.7350 O.2   220  GLY220     -0.2866
     44  N         16.6810   13.3420   37.3210 N.3   222  GLY222     -0.1225
     45  CA        16.0250   12.3160   36.5190 C.3   222  GLY222      0.1811
     46  C         14.6270   12.6630   36.0600 C.2   222  GLY222      0.2280
     47  O         13.9910   11.8580   35.3850 O.2   222  GLY222     -0.2866
     48  N         13.6910   15.4600   34.1170 N.3   224  GLY224     -0.1210
     49  CA        13.6810   16.1210   32.8170 C.3   224  GLY224      0.1956
     50  C         13.1080   15.2990   31.6760 C.2   224  GLY224      0.2613
     51  O         13.3590   14.1010   31.5780 O.2   224  GLY224     -0.2717
     52  N         12.3520   15.9470   30.7880 N.am  225  SER225     -0.1938
     53  CA        11.7380   15.3160   29.6180 C.3   225  SER225      0.2055
     54  C         12.7630   14.6610   28.6600 C.2   225  SER225      0.2643
     55  O         12.4560   13.6770   27.9970 O.2   225  SER225     -0.2714
     56  CB        10.8820   16.3330   28.8690 C.3   225  SER225      0.2130
     57  OG        11.6810   17.2850   28.1880 O.3   225  SER225     -0.2179
     58  N         13.9740   15.2140   28.5870 N.am  226  ILE226     -0.1963
     59  CA        15.0640   14.7310   27.7220 C.3   226  ILE226      0.1727
     60  C         16.0750   13.8690   28.4810 C.2   226  ILE226      0.2616
     61  O         17.1560   13.5780   27.9750 O.2   226  ILE226     -0.2715
     62  CB        15.7710   15.9120   27.0050 C.3   226  ILE226      0.0290
     63  CG1       15.8740   17.1940   27.8990 C.3   226  ILE226      0.0022
     64  CG2       15.1240   16.1740   25.6530 C.3   226  ILE226      0.0023
     65  CD1       16.6370   17.0540   29.2380 C.3   226  ILE226      0.0001
     66  N         15.7390   13.5290   29.7150 N.am  227  CYS227     -0.1968
     67  CA        16.5460   12.7290   30.6100 C.3   227  CYS227      0.1712
     68  C         16.4550   11.2570   30.1740 C.2   227  CYS227      0.2296
     69  O         15.3420   10.7640   29.9480 O.2   227  CYS227     -0.2864
     70  CB        16.0410   12.9280   32.0340 C.3   227  CYS227      0.0983
     71  SG        16.9750   12.0380   33.2910 S.3   227  CYS227     -0.0798
     72  N         18.6020    4.7220   34.5200 N.3   233  MET233     -0.1245
     73  CA        19.1290    5.5400   35.6200 C.3   233  MET233      0.1570
     74  C         19.1540    4.7420   36.9270 C.2   233  MET233      0.2261
     75  O         18.2610    3.9280   37.1420 O.2   233  MET233     -0.2867
     76  CB        18.2510    6.7940   35.8150 C.3   233  MET233      0.0387
     77  CG        18.0810    7.6550   34.5580 C.3   233  MET233      0.0595
     78  SD        19.5000    8.7030   34.1020 S.3   233  MET233     -0.1393
     79  CE        19.3530   10.0360   35.3430 C.3   233  MET233      0.0692
     80  N         12.6020   21.9420   39.1930 N.3   260  ASP260     -0.1225
     81  CA        13.2010   21.8220   37.8650 C.3   260  ASP260      0.1805
     82  C         13.0690   20.4170   37.2580 C.2   260  ASP260      0.2598
     83  O         13.6000   19.4620   37.8020 O.2   260  ASP260     -0.2718
     84  CB        14.6770   22.2750   37.9320 C.3   260  ASP260      0.1424
     85  CG        15.4680   22.0630   36.6600 C.2   260  ASP260      0.3668
     86  OD1       14.8610   22.1190   35.5630 O.co2 260  ASP260     -0.2456
     87  OD2       16.7020   21.8660   36.7540 O.co2 260  ASP260     -0.2456
     88  N         12.4360   20.3380   36.0920 N.am  261  GLY261     -0.1942
     89  CA        12.2510   19.0960   35.3520 C.3   261  GLY261      0.2014
     90  C         10.8470   18.5270   35.4880 C.2   261  GLY261      0.2639
     91  O         10.2580   18.5350   36.5790 O.2   261  GLY261     -0.2714
     92  N         10.3150   18.0240   34.3790 N.am  262  GLY262     -0.1939
     93  CA         9.0090   17.3730   34.3580 C.3   262  GLY262      0.2014
     94  C          7.7900   18.2610   34.4400 C.2   262  GLY262      0.2638
     95  O          6.7320   17.7890   34.8470 O.2   262  GLY262     -0.2714
     96  N          7.9180   19.5470   34.0650 N.am  263  ILE263     -0.1977
     97  CA         6.8000   20.4910   34.0140 C.3   263  ILE263      0.1596
     98  C          6.3250   20.4530   32.5490 C.2   263  ILE263      0.2287
     99  O          6.9870   21.0100   31.6670 O.2   263  ILE263     -0.2864
    100  CB         7.2090   21.9430   34.4560 C.3   263  ILE263      0.0276
    101  CG1        7.6630   22.0480   35.9400 C.3   263  ILE263      0.0022
    102  CG2        6.1360   22.9710   34.0920 C.3   263  ILE263      0.0022
    103  CD1        6.6110   21.8590   37.0450 C.3   263  ILE263      0.0001
    104  N         11.1270   25.6370   36.8670 N.3   281  MET281     -0.1230
    105  CA        12.0630   25.8160   35.7810 C.3   281  MET281      0.1702
    106  C         11.5810   24.9550   34.6310 C.2   281  MET281      0.2592
    107  O         11.2510   23.7870   34.8350 O.2   281  MET281     -0.2718
    108  CB        13.5000   25.4820   36.2080 C.3   281  MET281      0.0401
    109  CG        14.5140   25.6700   35.1010 C.3   281  MET281      0.0596
    110  SD        16.1960   25.4200   35.6720 S.3   281  MET281     -0.1393
    111  CE        16.5710   27.0540   36.3780 C.3   281  MET281      0.0692
    112  N         11.5330   25.5410   33.4240 N.am  282  MET282     -0.1965
    113  CA        11.0440   24.8420   32.2440 C.3   282  MET282      0.1736
    114  C         12.0610   24.7720   31.1240 C.2   282  MET282      0.2617
    115  O         12.6030   25.7930   30.7020 O.2   282  MET282     -0.2715
    116  CB         9.7530   25.5110   31.7180 C.3   282  MET282      0.0427
    117  CG         8.5900   25.5330   32.7230 C.3   282  MET282      0.0599
    118  SD         7.2000   26.6230   32.2590 S.3   282  MET282     -0.1393
    119  CE         7.9490   28.1700   32.3530 C.3   282  MET282      0.0692
    120  N         12.2590   23.5650   30.6120 N.am  283  GLY283     -0.1940
    121  CA        13.0940   23.2920   29.4500 C.3   283  GLY283      0.2014
    122  C         12.1630   23.0050   28.2880 C.2   283  GLY283      0.2639
    123  O         11.9400   23.8790   27.4440 O.2   283  GLY283     -0.2714
    124  N         11.5480   21.8090   28.3180 N.am  284  GLY284     -0.1939
    125  CA        10.6100   21.3160   27.3130 C.3   284  GLY284      0.2014
    126  C          9.4590   22.2410   26.9690 C.2   284  GLY284      0.2638
    127  O          9.1940   22.4760   25.7820 O.2   284  GLY284     -0.2714
    128  N          8.7650   22.7800   28.0020 N.am  285  LEU285     -0.1977
    129  CA         7.6290   23.6920   27.7960 C.3   285  LEU285      0.1596
    130  C          7.9910   24.9710   27.0340 C.2   285  LEU285      0.2287
    131  O          7.1300   25.5270   26.3620 O.2   285  LEU285     -0.2864
    132  CB         6.9630   24.0620   29.1270 C.3   285  LEU285      0.0297
    133  CG         5.6330   23.4150   29.5030 C.3   285  LEU285      0.0022
    134  CD1        5.0120   24.1510   30.6860 C.3   285  LEU285      0.0001
    135  CD2        4.6140   23.4150   28.3260 C.3   285  LEU285      0.0001
    136  N         15.3400   19.9740   20.5170 N.3   307  TYR307     -0.1241
    137  CA        15.3180   20.0920   21.9680 C.3   307  TYR307      0.1605
    138  C         16.1570   18.9380   22.4770 C.2   307  TYR307      0.2264
    139  O         15.9570   17.7990   22.0520 O.2   307  TYR307     -0.2867
    140  CB        13.9280   20.1730   22.6030 C.3   307  TYR307      0.0534
    141  CG        14.0010   20.2140   24.1170 C.ar  307  TYR307     -0.0201
    142  CD1       14.6280   21.2690   24.7830 C.ar  307  TYR307     -0.0009
    143  CD2       13.5060   19.1690   24.8820 C.ar  307  TYR307     -0.0009
    144  CE1       14.6760   21.3180   26.1780 C.ar  307  TYR307      0.0417
    145  CE2       13.5570   19.2020   26.2780 C.ar  307  TYR307      0.0417
    146  CZ        14.1650   20.2680   26.9230 C.ar  307  TYR307      0.1957
    147  OH        14.2600   20.2850   28.2960 O.3   307  TYR307     -0.2866
    148  N         18.9300   17.3340   25.8110 N.3   309  GLY309     -0.1210
    149  CA        19.5180   17.3680   27.1390 C.3   309  GLY309      0.1956
    150  C         20.9390   17.8730   27.0200 C.2   309  GLY309      0.2612
    151  O         21.5710   17.7020   25.9730 O.2   309  GLY309     -0.2717
    152  N         21.4360   18.5400   28.0660 N.am  310  MET310     -0.1965
    153  CA        22.7980   19.0650   28.0750 C.3   310  MET310      0.1736
    154  C         23.8330   17.9460   28.2720 C.2   310  MET310      0.2617
    155  O         25.0100   18.1270   27.9680 O.2   310  MET310     -0.2715
    156  CB        22.9430   20.2240   29.0790 C.3   310  MET310      0.0427
    157  CG        22.1530   21.4890   28.6780 C.3   310  MET310      0.0599
    158  SD        22.3670   22.0360   26.9510 S.3   310  MET310     -0.1393
    159  CE        24.0000   22.6910   27.0230 C.3   310  MET310      0.0692
    160  N         23.3650   16.7840   28.7220 N.am  311  GLY311     -0.1955
    161  CA        24.1850   15.5880   28.8780 C.3   311  GLY311      0.1869
    162  C         24.0720   14.6580   27.6850 C.2   311  GLY311      0.2309
    163  O         24.5230   13.5080   27.7510 O.2   311  GLY311     -0.2863
    164  N         23.8590   11.2810   29.2960 N.3   340  GLN340     -0.1231
    165  CA        22.9760   11.4570   30.4490 C.3   340  GLN340      0.1698
    166  C         21.6020   11.9860   30.0600 C.2   340  GLN340      0.2592
    167  O         20.6650   11.9510   30.8630 O.2   340  GLN340     -0.2718
    168  CB        23.6610   12.2620   31.5600 C.3   340  GLN340      0.0381
    169  CG        24.6720   11.4090   32.3260 C.3   340  GLN340      0.0905
    170  CD        25.0420   12.0070   33.6530 C.2   340  GLN340      0.2608
    171  OE1       26.1970   12.3780   33.8780 O.2   340  GLN340     -0.2717
    172  NE2       24.0800   12.0860   34.5750 N.am  340  GLN340     -0.0878
    173  N         21.4820   12.3720   28.7970 N.am  341  GLY341     -0.1957
    174  CA        20.2480   12.8590   28.1960 C.3   341  GLY341      0.1869
    175  C         20.2000   12.5630   26.7150 C.2   341  GLY341      0.2309
    176  O         21.1870   12.0880   26.1530 O.2   341  GLY341     -0.2863
@<TRIPOS>BOND
     1   136   137    1
     2   137   138    1
     3   137   140    1
     4   139   138    2
     5   140   141    1
     6   141   142   ar
     7   141   143   ar
     8   142   144   ar
     9   143   145   ar
    10    64    62    1
    11   127   126    2
    12   148   149    1
    13   151   150    2
    14   176   175    2
    15   144   146   ar
    16    10     9    2
    17   145   146   ar
    18   131   130    2
    19     9     8    1
    20   175   174    1
    21   146   147    1
    22   158   159    1
    23   158   157    1
    24   126   125    1
    25   126   128   am
    26    62    59    1
    27    62    63    1
    28   150   149    1
    29   150   152   am
    30   130   129    1
    31   125   124    1
    32   123   122    2
    33   162   163    2
    34   162   161    1
    35    59    60    1
    36    59    58    1
    37   129   128    1
    38   129   132    1
    39    11     8    1
    40    11    12    1
    41     8     7    1
    42    63    65    1
    43   155   154    2
    44    61    60    2
    45    55    54    2
    46   152   153    1
    47   153   154    1
    48   153   156    1
    49    57    56    1
    50   174   173    1
    51   154   160   am
    52   122   124   am
    53   122   121    1
    54    14    13    1
    55   135   133    1
    56    60    66   am
    57    58    54   am
    58    54    53    1
    59   157   156    1
    60   160   161    1
    61   173   166   am
    62    56    53    1
    63   132   133    1
    64    12    13    1
    65   164   165    1
    66   121   120    1
    67   133   134    1
    68    53    52    1
    69    66    67    1
    70     4     3    2
    71    69    68    2
    72   166   165    1
    73   166   167    2
    74    68    67    1
    75   165   168    1
    76    67    70    1
    77   120   114   am
    78   115   114    2
    79    52    50   am
    80     3     2    1
    81   114   113    1
    82     5     6    1
    83     5     2    1
    84     1     2    1
    85   168   169    1
    86    51    50    2
    87    99    98    2
    88    50    49    1
    89   116   113    1
    90   116   117    1
    91    70    71    1
    92   113   112    1
    93   118   119    1
    94   118   117    1
    95   169   170    1
    96    98    97    1
    97    49    48    1
    98   112   106   am
    99   170   171    2
   100   170   172   am
   101    97    96    1
   102    97   100    1
   103    96    94   am
   104   102   100    1
   105    78    77    1
   106    78    79    1
   107    93    92    1
   108    93    94    1
   109    92    90   am
   110    94    95    2
   111   100   101    1
   112    72    73    1
   113    77    76    1
   114   106   107    2
   115   106   105    1
   116    39    37    1
   117   109   110    1
   118   109   108    1
   119    89    90    1
   120    89    88    1
   121    47    46    2
   122    90    91    2
   123    86    85   ar
   124    73    76    1
   125    73    74    1
   126   110   111    1
   127   105   108    1
   128   105   104    1
   129   101   103    1
   130    46    45    1
   131    88    82   am
   132    37    38    1
   133    37    36    2
   134    45    44    1
   135    85    87   ar
   136    85    84    1
   137    74    75    2
   138    19    20    1
   139    19    16    1
   140    36    35    1
   141    82    83    2
   142    82    81    1
   143    15    16    1
   144    81    84    1
   145    81    80    1
   146    16    17    1
   147    35    34    1
   148    28    26   am
   149    27    26    2
   150    26    25    1
   151    17    18    2
   152    34    33    1
   153    43    42    2
   154    42    41    1
   155    25    22    1
   156    41    40    1
   157    33    30    1
   158    21    22    1
   159    22    23    1
   160    30    31    1
   161    30    29    1
   162    31    32    2
   163    23    24    2
