@<TRIPOS>MOLECULE
tmp/4af3A00.pdb
 204 195 0 0 0
SMALL
GASTEIGER

@<TRIPOS>ATOM
      1  N         20.7080  -29.7500  -18.8420 N.3    12  ARG12      -0.1245
      2  CA        21.8210  -30.1410  -17.9930 C.3    12  ARG12       0.1563
      3  C         21.4260  -29.9540  -16.5400 C.2    12  ARG12       0.2260
      4  O         20.4730  -29.2300  -16.2610 O.2    12  ARG12      -0.2867
      5  CB        23.0750  -29.3100  -18.3250 C.3    12  ARG12       0.0307
      6  CG        22.8500  -27.8060  -18.4750 C.3    12  ARG12       0.0489
      7  CD        24.1350  -27.0200  -18.2140 C.3    12  ARG12       0.2205
      8  NE        24.9530  -26.7930  -19.4150 N.pl3  12  ARG12      -0.0865
      9  CZ        26.1850  -26.2740  -19.4140 C.cat  12  ARG12       0.5346
     10  NH1       26.7810  -25.9370  -18.2770 N.pl3  12  ARG12       0.1354
     11  NH2       26.8370  -26.1000  -20.5580 N.pl3  12  ARG12       0.1354
     12  N         22.0480  -28.3240  -12.7360 N.3    14  LEU14      -0.1231
     13  CA        22.5130  -26.9880  -12.3260 C.3    14  LEU14       0.1693
     14  C         23.2470  -26.9700  -10.9760 C.2    14  LEU14       0.2593
     15  O         24.2990  -26.3480  -10.8410 O.2    14  LEU14      -0.2718
     16  CB        21.3400  -25.9980  -12.2950 C.3    14  LEU14       0.0284
     17  CG        20.7420  -25.5390  -13.6380 C.3    14  LEU14       0.0019
     18  CD1       19.4530  -24.7850  -13.3660 C.3    14  LEU14       0.0001
     19  CD2       21.6940  -24.6760  -14.4650 C.3    14  LEU14       0.0001
     20  N         22.7090  -27.6560   -9.9800 N.am   15  GLY15      -0.1942
     21  CA        23.2660  -27.5670   -8.6270 C.3    15  GLY15       0.2014
     22  C         24.7220  -27.9690   -8.4450 C.2    15  GLY15       0.2638
     23  O         25.4370  -27.3570   -7.6570 O.2    15  GLY15      -0.2714
     24  N         25.1600  -28.9750   -9.2020 N.am   16  LYS16      -0.1977
     25  CA        26.3040  -29.8180   -8.8340 C.3    16  LYS16       0.1596
     26  C         26.0050  -30.4840   -7.4770 C.2    16  LYS16       0.2287
     27  O         26.8870  -30.6370   -6.6400 O.2    16  LYS16      -0.2864
     28  CB        27.6230  -29.0190   -8.8040 C.3    16  LYS16       0.0298
     29  CG        28.0410  -28.4390  -10.1440 C.3    16  LYS16       0.0038
     30  CD        29.3430  -27.6400  -10.0860 C.3    16  LYS16       0.0206
     31  CE        29.4090  -26.6270   -8.9330 C.3    16  LYS16       0.1093
     32  NZ        28.3690  -25.5330   -8.9580 N.3    16  LYS16      -0.1314
     33  N         22.4450  -27.7460   -4.6000 N.3    19  PHE19      -0.1241
     34  CA        21.0760  -27.2520   -4.3980 C.3    19  PHE19       0.1605
     35  C         20.0290  -28.3370   -4.6190 C.2    19  PHE19       0.2264
     36  O         18.8560  -28.0300   -4.8710 O.2    19  PHE19      -0.2867
     37  CB        20.7920  -26.0610   -5.3210 C.3    19  PHE19       0.0534
     38  CG        21.6660  -24.8660   -5.0530 C.ar   19  PHE19      -0.0203
     39  CD1       22.9210  -24.7550   -5.6500 C.ar   19  PHE19      -0.0042
     40  CD2       21.2400  -23.8560   -4.2010 C.ar   19  PHE19      -0.0042
     41  CE1       23.7290  -23.6610   -5.3980 C.ar   19  PHE19      -0.0003
     42  CE2       22.0430  -22.7610   -3.9490 C.ar   19  PHE19      -0.0003
     43  CZ        23.2850  -22.6630   -4.5470 C.ar   19  PHE19      -0.0000
     44  N         18.2530  -30.2870   -9.5660 N.3    22  VAL22      -0.1245
     45  CA        17.8010  -29.1040  -10.2970 C.3    22  VAL22       0.1561
     46  C         18.3230  -29.1550  -11.7280 C.2    22  VAL22       0.2260
     47  O         19.4580  -29.5660  -11.9670 O.2    22  VAL22      -0.2867
     48  CB        18.2890  -27.8070   -9.6280 C.3    22  VAL22       0.0252
     49  CG1       17.5570  -26.6060  -10.2190 C.3    22  VAL22       0.0019
     50  CG2       18.0850  -27.8740   -8.1170 C.3    22  VAL22       0.0019
     51  N         13.6660  -23.7190  -14.9770 N.3    35  ALA35      -0.1245
     52  CA        14.5250  -24.5340  -14.1440 C.3    35  ALA35       0.1562
     53  C         13.5740  -25.5030  -13.4510 C.2    35  ALA35       0.2260
     54  O         12.5320  -25.0950  -12.9300 O.2    35  ALA35      -0.2867
     55  CB        15.2980  -23.6780  -13.1500 C.3    35  ALA35       0.0290
     56  N         13.0470  -28.3950  -10.5420 N.3    37  LYS37      -0.1245
     57  CA        13.5850  -28.9940   -9.3030 C.3    37  LYS37       0.1561
     58  C         12.7750  -30.2100   -8.8110 C.2    37  LYS37       0.2260
     59  O         11.5570  -30.1320   -8.6000 O.2    37  LYS37      -0.2867
     60  CB        13.6840  -27.9510   -8.1830 C.3    37  LYS37       0.0271
     61  CG        14.2610  -28.5270   -6.8920 C.3    37  LYS37       0.0035
     62  CD        14.7890  -27.4610   -5.9450 C.3    37  LYS37       0.0206
     63  CE        15.4740  -28.0630   -4.7200 C.3    37  LYS37       0.1093
     64  NZ        16.6180  -27.2220   -4.2560 N.3    37  LYS37      -0.1314
     65  N         12.2690  -15.0750   -7.6660 N.3    69  LEU69      -0.1245
     66  CA        12.2680  -16.2130   -8.5730 C.3    69  LEU69       0.1561
     67  C         10.8620  -16.7740   -8.6550 C.2    69  LEU69       0.2260
     68  O         10.2470  -17.0570   -7.6420 O.2    69  LEU69      -0.2867
     69  CB        13.2250  -17.3000   -8.0990 C.3    69  LEU69       0.0270
     70  CG        13.5320  -18.3100   -9.1990 C.3    69  LEU69       0.0019
     71  CD1       14.4000  -17.6370  -10.2500 C.3    69  LEU69       0.0001
     72  CD2       14.2090  -19.5570   -8.6530 C.3    69  LEU69       0.0001
     73  N         10.2020  -23.9250  -12.1530 N.3    85  LEU85      -0.1231
     74  CA        10.6830  -22.6300  -11.6390 C.3    85  LEU85       0.1693
     75  C         11.3480  -21.7550  -12.7030 C.2    85  LEU85       0.2592
     76  O         11.7810  -22.2460  -13.7420 O.2    85  LEU85      -0.2718
     77  CB        11.6810  -22.8530  -10.5130 C.3    85  LEU85       0.0284
     78  CG        11.1690  -23.5190   -9.2370 C.3    85  LEU85       0.0019
     79  CD1       12.3220  -23.7540   -8.2660 C.3    85  LEU85       0.0001
     80  CD2       10.0640  -22.6960   -8.5820 C.3    85  LEU85       0.0001
     81  N         11.4360  -20.4580  -12.4240 N.am   86  GLU86      -0.1966
     82  CA        12.1250  -19.5100  -13.3150 C.3    86  GLU86       0.1733
     83  C         13.6250  -19.7950  -13.3650 C.2    86  GLU86       0.2616
     84  O         14.2480  -20.0850  -12.3420 O.2    86  GLU86      -0.2715
     85  CB        11.8910  -18.0670  -12.8440 C.3    86  GLU86       0.0429
     86  CG        12.6880  -16.9920  -13.5630 C.3    86  GLU86       0.1163
     87  CD        12.4240  -15.5920  -13.0140 C.2    86  GLU86       0.3649
     88  OE1       11.4640  -15.4100  -12.2380 O.co2  86  GLU86      -0.2457
     89  OE2       13.1830  -14.6650  -13.3680 O.co2  86  GLU86      -0.2457
     90  N         14.1960  -19.6980  -14.5620 N.am   87  TYR87      -0.1960
     91  CA        15.6120  -19.9470  -14.7490 C.3    87  TYR87       0.1771
     92  C         16.3490  -18.6240  -14.7680 C.2    87  TYR87       0.2619
     93  O         16.0360  -17.7450  -15.5730 O.2    87  TYR87      -0.2715
     94  CB        15.8840  -20.7220  -16.0370 C.3    87  TYR87       0.0574
     95  CG        17.3620  -20.8420  -16.3290 C.ar   87  TYR87      -0.0198
     96  CD1       18.2190  -21.4290  -15.4170 C.ar   87  TYR87      -0.0009
     97  CD2       17.9020  -20.3500  -17.5050 C.ar   87  TYR87      -0.0009
     98  CE1       19.5760  -21.5370  -15.6690 C.ar   87  TYR87       0.0417
     99  CE2       19.2580  -20.4580  -17.7680 C.ar   87  TYR87       0.0417
    100  CZ        20.0960  -21.0490  -16.8410 C.ar   87  TYR87       0.1957
    101  OH        21.4500  -21.1390  -17.0950 O.3    87  TYR87      -0.2866
    102  N         17.3300  -18.5080  -13.8730 N.am   88  ALA88      -0.1964
    103  CA        18.1240  -17.2920  -13.6900 C.3    88  ALA88       0.1713
    104  C         19.4860  -17.4310  -14.4110 C.2    88  ALA88       0.2458
    105  O         20.4210  -18.0440  -13.8900 O.2    88  ALA88      -0.2730
    106  CB        18.3040  -17.0190  -12.2020 C.3    88  ALA88       0.0333
    107  N         19.6010  -16.8580  -15.6190 N.am   89  PRO89      -0.2716
    108  CA        20.7510  -17.1780  -16.4930 C.3    89  PRO89       0.1536
    109  C         22.1380  -16.9780  -15.8720 C.2    89  PRO89       0.2598
    110  O         23.0420  -17.7570  -16.1520 O.2    89  PRO89      -0.2715
    111  CB        20.5730  -16.2310  -17.6870 C.3    89  PRO89       0.0310
    112  CG        19.1510  -15.7780  -17.6320 C.3    89  PRO89       0.0237
    113  CD        18.7340  -15.8120  -16.1980 C.3    89  PRO89       0.0939
    114  N         22.3160  -15.9510  -15.0500 N.am   90  ARG90      -0.1964
    115  CA        23.6340  -15.6940  -14.4510 C.3    90  ARG90       0.1729
    116  C         23.8970  -16.4710  -13.1510 C.2    90  ARG90       0.2617
    117  O         24.9440  -16.2900  -12.5060 O.2    90  ARG90      -0.2715
    118  CB        23.8560  -14.1930  -14.2590 C.3    90  ARG90       0.0348
    119  CG        24.3250  -13.5310  -15.5400 C.3    90  ARG90       0.0492
    120  CD        24.1460  -12.0230  -15.5430 C.3    90  ARG90       0.2205
    121  NE        24.0700  -11.5370  -16.9150 N.pl3  90  ARG90      -0.0865
    122  CZ        25.1160  -11.4340  -17.7330 C.cat  90  ARG90       0.5346
    123  NH1       26.3370  -11.7650  -17.3100 N.pl3  90  ARG90       0.1354
    124  NH2       24.9460  -10.9910  -18.9820 N.pl3  90  ARG90       0.1354
    125  N         22.9570  -17.3410  -12.7770 N.am   91  GLY91      -0.1940
    126  CA        23.1620  -18.2600  -11.6630 C.3    91  GLY91       0.2014
    127  C         23.2600  -17.5750  -10.3130 C.2    91  GLY91       0.2638
    128  O         22.5950  -16.5610  -10.0710 O.2    91  GLY91      -0.2714
    129  N         24.1080  -18.1250   -9.4450 N.am   92  GLU92      -0.1977
    130  CA        24.1710  -17.6960   -8.0500 C.3    92  GLU92       0.1602
    131  C         25.0490  -16.4720   -7.8280 C.2    92  GLU92       0.2287
    132  O         26.1320  -16.3570   -8.3990 O.2    92  GLU92      -0.2864
    133  CB        24.5930  -18.8540   -7.1280 C.3    92  GLU92       0.0415
    134  CG        25.8900  -19.5530   -7.4760 C.3    92  GLU92       0.1163
    135  CD        26.0070  -20.9120   -6.8030 C.2    92  GLU92       0.3649
    136  OE1       25.9210  -20.9340   -5.5540 O.co2  92  GLU92      -0.2457
    137  OE2       26.1780  -21.9430   -7.5110 O.co2  92  GLU92      -0.2457
    138  N         28.6980  -16.8670   -6.3070 N.3    95  LYS95      -0.1245
    139  CA        29.7480  -17.1460   -7.3220 C.3    95  LYS95       0.1561
    140  C         30.2440  -15.8860   -8.0420 C.2    95  LYS95       0.2260
    141  O         31.4420  -15.7190   -8.2630 O.2    95  LYS95      -0.2867
    142  CB        29.2660  -18.1650   -8.3530 C.3    95  LYS95       0.0271
    143  CG        29.6740  -19.5790   -7.9930 C.3    95  LYS95       0.0035
    144  CD        29.0680  -20.6270   -8.9130 C.3    95  LYS95       0.0206
    145  CE        29.8670  -21.9240   -8.8480 C.3    95  LYS95       0.1093
    146  NZ        30.5290  -22.1330   -7.5220 N.3    95  LYS95      -0.1314
    147  N         34.0260  -14.2630   -8.3360 N.3    99  LYS99      -0.1245
    148  CA        34.6290  -13.7000   -9.5510 C.3    99  LYS99       0.1561
    149  C         34.9990  -12.2320   -9.3430 C.2    99  LYS99       0.2260
    150  O         36.0360  -11.7850   -9.8120 O.2    99  LYS99      -0.2867
    151  CB        33.6930  -13.8320  -10.7710 C.3    99  LYS99       0.0271
    152  CG        33.8050  -15.1490  -11.4730 C.3    99  LYS99       0.0035
    153  CD        32.7290  -15.3060  -12.5390 C.3    99  LYS99       0.0206
    154  CE        31.5530  -16.1420  -11.9960 C.3    99  LYS99       0.1093
    155  NZ        31.9120  -17.5360  -11.5470 N.3    99  LYS99      -0.1314
    156  N         23.1860  -17.6500   -0.4080 N.3   135  GLU135     -0.1231
    157  CA        22.8090  -18.9220   -1.0410 C.3   135  GLU135      0.1699
    158  C         21.5040  -18.8240   -1.8390 C.2   135  GLU135      0.2592
    159  O         21.3570  -19.4610   -2.8780 O.2   135  GLU135     -0.2718
    160  CB        22.6370  -20.0210    0.0220 C.3   135  GLU135      0.0402
    161  CG        23.9310  -20.5430    0.6480 C.3   135  GLU135      0.1161
    162  CD        24.6440  -19.5300    1.5500 C.2   135  GLU135      0.3649
    163  OE1       24.0090  -18.5280    1.9660 O.co2 135  GLU135     -0.2457
    164  OE2       25.8490  -19.7320    1.8450 O.co2 135  GLU135     -0.2457
    165  N         20.5650  -18.0210   -1.3430 N.am  136  ASN136     -0.1974
    166  CA        19.2240  -17.9120   -1.9100 C.3   136  ASN136      0.1688
    167  C         19.0630  -16.8660   -2.9860 C.2   136  ASN136      0.2292
    168  O         17.9350  -16.6040   -3.4190 O.2   136  ASN136     -0.2864
    169  CB        18.2300  -17.5600   -0.8140 C.3   136  ASN136      0.1181
    170  CG        17.9540  -18.7170    0.1020 C.2   136  ASN136      0.2629
    171  OD1       18.8590  -19.4690    0.4590 O.2   136  ASN136     -0.2716
    172  ND2       16.6920  -18.8770    0.4810 N.am  136  ASN136     -0.0877
    173  N         19.8110  -15.2990   -6.7700 N.3   138  LEU138     -0.1245
    174  CA        20.1840  -15.6080   -8.1470 C.3   138  LEU138      0.1561
    175  C         20.1980  -14.3150   -8.9810 C.2   138  LEU138      0.2260
    176  O         19.7020  -13.2760   -8.5350 O.2   138  LEU138     -0.2867
    177  CB        19.2220  -16.6550   -8.7290 C.3   138  LEU138      0.0270
    178  CG        19.3060  -18.0580   -8.0830 C.3   138  LEU138      0.0019
    179  CD1       18.0660  -18.8850   -8.3690 C.3   138  LEU138      0.0001
    180  CD2       20.5530  -18.8260   -8.5160 C.3   138  LEU138      0.0001
    181  N         15.5380  -16.6810   -4.4650 N.3   148  ALA148     -0.1231
    182  CA        15.0360  -18.0500   -4.6570 C.3   148  ALA148      0.1694
    183  C         14.9490  -18.7440   -3.3150 C.2   148  ALA148      0.2592
    184  O         15.9900  -19.0410   -2.7290 O.2   148  ALA148     -0.2718
    185  CB        15.9680  -18.8280   -5.5680 C.3   148  ALA148      0.0304
    186  N         13.7340  -19.0390   -2.8400 N.am  149  ASP149     -0.1960
    187  CA        13.5370  -19.4940   -1.4560 C.3   149  ASP149      0.1840
    188  C         12.7470  -20.7970   -1.2920 C.2   149  ASP149      0.2622
    189  O         11.5210  -20.7900   -1.3450 O.2   149  ASP149     -0.2715
    190  CB        12.8550  -18.3840   -0.6480 C.3   149  ASP149      0.1450
    191  CG        12.6550  -18.7940    0.8000 C.2   149  ASP149      0.3671
    192  OD1       13.6090  -19.3130    1.4160 O.co2 149  ASP149     -0.2456
    193  OD2       11.5300  -18.6130    1.3170 O.co2 149  ASP149     -0.2456
    194  N         13.4690  -21.9040   -1.0860 N.am  150  PHE150     -0.1974
    195  CA        12.9090  -23.1800   -0.5800 C.3   150  PHE150      0.1639
    196  C         13.8910  -23.8740    0.3970 C.2   150  PHE150      0.2290
    197  O         15.0520  -23.4950    0.5100 O.2   150  PHE150     -0.2864
    198  CB        12.5880  -24.1420   -1.7310 C.3   150  PHE150      0.0560
    199  CG        11.3600  -23.7800   -2.5240 C.ar  150  PHE150     -0.0200
    200  CD1       11.4250  -22.8470   -3.5540 C.ar  150  PHE150     -0.0042
    201  CD2       10.1410  -24.3980   -2.2660 C.ar  150  PHE150     -0.0042
    202  CE1       10.2940  -22.5190   -4.2940 C.ar  150  PHE150     -0.0003
    203  CE2        9.0070  -24.0780   -3.0070 C.ar  150  PHE150     -0.0003
    204  CZ         9.0850  -23.1370   -4.0220 C.ar  150  PHE150     -0.0000
@<TRIPOS>BOND
     1    11     9    1
     2     8     9    2
     3     8     7    1
     4     9    10    1
     5   124   122    1
     6     1     2    1
     7     6     5    1
     8     6     7    1
     9     5     2    1
    10     2     3    1
    11    99    97   ar
    12    99   100   ar
    13   122   123    1
    14   122   121    2
    15   111   112    1
    16   111   108    1
    17   112   113    1
    18    97    95   ar
    19   101   100    1
    20   121   120    1
    21   100    98   ar
    22     3     4    2
    23   108   109    1
    24   108   107    1
    25    95    94    1
    26    95    96   ar
    27   113   107    1
    28   110   109    2
    29    94    91    1
    30   109   114   am
    31    98    96   ar
    32   107   104   am
    33    93    92    2
    34   120   119    1
    35   119   118    1
    36   114   115    1
    37    51    52    1
    38    92    91    1
    39    92   102   am
    40    91    90    1
    41    90    83   am
    42    19    17    1
    43   115   118    1
    44   115   116    1
    45   104   105    2
    46   104   103    1
    47    52    53    1
    48    52    55    1
    49   102   103    1
    50    76    75    2
    51   103   106    1
    52    17    18    1
    53    17    16    1
    54    86    87    1
    55    86    85    1
    56    53    54    2
    57    89    87   ar
    58    83    82    1
    59    83    84    2
    60    82    85    1
    61    82    81    1
    62   116   125   am
    63   116   117    2
    64    87    88   ar
    65   125   126    1
    66    12    13    1
    67    75    81   am
    68    75    74    1
    69   153   154    1
    70   153   152    1
    71    13    16    1
    72    13    14    1
    73    73    74    1
    74   154   155    1
    75    47    46    2
    76    46    45    1
    77   126   127    1
    78    74    77    1
    79   152   151    1
    80    14    15    2
    81    14    20   am
    82   151   148    1
    83    56    57    1
    84    77    78    1
    85   127   128    2
    86   127   129   am
    87    45    48    1
    88    45    44    1
    89    71    70    1
    90    49    48    1
    91    29    30    1
    92    29    28    1
    93    30    31    1
    94    20    21    1
    95   150   149    2
    96    48    50    1
    97   148   149    1
    98   148   147    1
    99   129   130    1
   100    57    58    1
   101    57    60    1
   102    78    80    1
   103    78    79    1
   104    24    25    1
   105    24    22   am
   106    70    72    1
   107    70    69    1
   108   175   176    2
   109   175   174    1
   110    32    31    1
   111   144   145    1
   112   144   143    1
   113   145   146    1
   114    25    28    1
   115    25    26    1
   116    58    59    2
   117   177   174    1
   118   177   178    1
   119    67    66    1
   120    67    68    2
   121    21    22    1
   122    66    69    1
   123    66    65    1
   124   180   178    1
   125    22    23    2
   126   132   131    2
   127   179   178    1
   128   142   143    1
   129   142   139    1
   130   141   140    2
   131    60    61    1
   132   174   173    1
   133   130   131    1
   134   130   133    1
   135   140   139    1
   136   137   135   ar
   137    26    27    2
   138   134   133    1
   139   134   135    1
   140   139   138    1
   141    61    62    1
   142   135   136   ar
   143    62    63    1
   144    39    41   ar
   145    39    38   ar
   146   185   182    1
   147    41    43   ar
   148    37    38    1
   149    37    34    1
   150    38    40   ar
   151    36    35    2
   152    63    64    1
   153   182   181    1
   154   182   183    1
   155    35    34    1
   156    33    34    1
   157    43    42   ar
   158   202   204   ar
   159   202   200   ar
   160    40    42   ar
   161   204   203   ar
   162   200   199   ar
   163   168   167    2
   164   183   186   am
   165   183   184    2
   166   203   201   ar
   167   167   166    1
   168   159   158    2
   169   186   187    1
   170   199   201   ar
   171   199   198    1
   172   166   165    1
   173   166   169    1
   174   158   165   am
   175   158   157    1
   176   198   195    1
   177   187   188    1
   178   187   190    1
   179   189   188    2
   180   188   194   am
   181   194   195    1
   182   157   156    1
   183   157   160    1
   184   169   170    1
   185   190   191    1
   186   195   196    1
   187   160   161    1
   188   170   171    2
   189   170   172   am
   190   196   197    2
   191   161   162    1
   192   191   193   ar
   193   191   192   ar
   194   162   164   ar
   195   162   163   ar
