@<TRIPOS>MOLECULE
tmp/4afaA00.pdb
 110 109 0 0 0
SMALL
GASTEIGER

@<TRIPOS>ATOM
      1  N         55.4980    3.8990    4.8300 N.3    40  TRP40      -0.1241
      2  CA        54.1280    4.3230    5.0690 C.3    40  TRP40       0.1605
      3  C         53.1840    3.1770    5.4090 C.2    40  TRP40       0.2264
      4  O         53.4170    2.0250    5.0280 O.2    40  TRP40      -0.2867
      5  CB        53.5730    5.1130    3.8790 C.3    40  TRP40       0.0550
      6  CG        53.7450    4.5020    2.5140 C.ar   40  TRP40       0.0003
      7  CD1       54.7370    4.7870    1.6170 C.ar   40  TRP40       0.0946
      8  CD2       52.8750    3.5580    1.8610 C.ar   40  TRP40       0.0152
      9  NE1       54.5530    4.0650    0.4550 N.ar   40  TRP40      -0.2442
     10  CE2       53.4210    3.2980    0.5830 C.ar   40  TRP40       0.0810
     11  CE3       51.7020    2.8900    2.2410 C.ar   40  TRP40       0.0012
     12  CZ2       52.8230    2.4100   -0.3250 C.ar   40  TRP40       0.0191
     13  CZ3       51.1120    2.0050    1.3390 C.ar   40  TRP40       0.0001
     14  CH2       51.6730    1.7750    0.0720 C.ar   40  TRP40       0.0015
     15  N         48.8270   22.1100   -2.6170 N.3    73  TYR73      -0.1241
     16  CA        49.8900   21.1830   -2.9200 C.3    73  TYR73       0.1605
     17  C         51.0290   21.4360   -1.9440 C.2    73  TYR73       0.2264
     18  O         51.6040   22.5120   -1.9370 O.2    73  TYR73      -0.2867
     19  CB        50.3560   21.2990   -4.3740 C.3    73  TYR73       0.0534
     20  CG        51.0470   20.0340   -4.8250 C.ar   73  TYR73      -0.0201
     21  CD1       52.2920   19.6880   -4.3150 C.ar   73  TYR73      -0.0009
     22  CD2       50.4450   19.1620   -5.7280 C.ar   73  TYR73      -0.0009
     23  CE1       52.9320   18.5300   -4.7010 C.ar   73  TYR73       0.0417
     24  CE2       51.0860   17.9800   -6.1230 C.ar   73  TYR73       0.0417
     25  CZ        52.3340   17.6800   -5.6000 C.ar   73  TYR73       0.1957
     26  OH        52.9930   16.5260   -5.9480 O.3    73  TYR73      -0.2866
     27  N         61.5050   15.1250    1.1210 N.3    78  LYS78      -0.1231
     28  CA        61.7970   13.6950    0.9190 C.3    78  LYS78       0.1693
     29  C         60.7040   12.8370    1.5090 C.2    78  LYS78       0.2593
     30  O         59.9350   13.3100    2.3380 O.2    78  LYS78      -0.2718
     31  CB        63.1430   13.3210    1.5560 C.3    78  LYS78       0.0285
     32  CG        63.2220   13.5470    3.0680 C.3    78  LYS78       0.0035
     33  CD        64.6810   13.5320    3.5740 C.3    78  LYS78       0.0206
     34  CE        64.7200   13.7700    5.0810 C.3    78  LYS78       0.1093
     35  NZ        66.0990   13.9350    5.6230 N.3    78  LYS78      -0.1314
     36  N         60.6700   11.5650    1.1040 N.am   79  GLY79      -0.1942
     37  CA        59.7110   10.6030    1.6080 C.3    79  GLY79       0.2014
     38  C         60.0890   10.0400    2.9630 C.2    79  GLY79       0.2639
     39  O         61.1850   10.3140    3.4960 O.2    79  GLY79      -0.2714
     40  N         59.1600    9.2630    3.5210 N.am   80  CYS80      -0.1967
     41  CA        59.3800    8.4730    4.7350 C.3    80  CYS80       0.1712
     42  C         59.7290    9.3160    5.9580 C.2    80  CYS80       0.2296
     43  O         60.3820    8.8370    6.8880 O.2    80  CYS80      -0.2864
     44  CB        60.4560    7.4060    4.4770 C.3    80  CYS80       0.0983
     45  SG        59.9680    6.1930    3.2170 S.3    80  CYS80      -0.0798
     46  N         46.5340   13.4590   -3.6180 N.3   125  ASP125     -0.1225
     47  CA        47.6810   12.6680   -3.2210 C.3   125  ASP125      0.1805
     48  C         47.6020   12.7480   -1.7000 C.2   125  ASP125      0.2597
     49  O         47.8650   13.8090   -1.1260 O.2   125  ASP125     -0.2718
     50  CB        48.9680   13.2910   -3.7880 C.3   125  ASP125      0.1424
     51  CG        50.2470   12.6740   -3.2190 C.2   125  ASP125      0.3668
     52  OD1       50.2060   11.8650   -2.2650 O.co2 125  ASP125     -0.2456
     53  OD2       51.3270   13.0170   -3.7410 O.co2 125  ASP125     -0.2456
     54  N         47.1820   11.6780   -1.0250 N.am  126  ASP126     -0.1974
     55  CA        46.9760   10.3480   -1.5790 C.3   126  ASP126      0.1709
     56  C         45.5390    9.9920   -1.9180 C.2   126  ASP126      0.2293
     57  O         45.3040    9.1740   -2.7970 O.2   126  ASP126     -0.2864
     58  CB        47.4650    9.3230   -0.5760 C.3   126  ASP126      0.1436
     59  CG        48.9460    9.2560   -0.5300 C.2   126  ASP126      0.3671
     60  OD1       49.5190    8.5350   -1.3750 O.co2 126  ASP126     -0.2456
     61  OD2       49.5320    9.9530    0.3210 O.co2 126  ASP126     -0.2456
     62  N         46.0240    8.3970   -5.2860 N.3   159  TRP159     -0.1241
     63  CA        47.3480    8.4460   -5.9080 C.3   159  TRP159      0.1605
     64  C         47.8870    7.0240   -6.0660 C.2   159  TRP159      0.2264
     65  O         47.9010    6.2520   -5.1000 O.2   159  TRP159     -0.2867
     66  CB        48.3300    9.2910   -5.0860 C.3   159  TRP159      0.0550
     67  CG        49.6440    9.4700   -5.7910 C.ar  159  TRP159      0.0003
     68  CD1       49.9930   10.4940   -6.6390 C.ar  159  TRP159      0.0946
     69  CD2       50.7620    8.5820   -5.7480 C.ar  159  TRP159      0.0152
     70  NE1       51.2690   10.2870   -7.1240 N.ar  159  TRP159     -0.2442
     71  CE2       51.7590    9.1190   -6.5970 C.ar  159  TRP159      0.0810
     72  CE3       51.0160    7.3750   -5.0880 C.ar  159  TRP159      0.0012
     73  CZ2       52.9940    8.4990   -6.7830 C.ar  159  TRP159      0.0191
     74  CZ3       52.2480    6.7570   -5.2770 C.ar  159  TRP159      0.0001
     75  CH2       53.2190    7.3180   -6.1160 C.ar  159  TRP159      0.0015
     76  N         49.5090    9.8210    3.1690 N.3   187  ARG187     -0.1231
     77  CA        50.2390    8.7260    3.8360 C.3   187  ARG187      0.1694
     78  C         51.7440    8.9990    3.9520 C.2   187  ARG187      0.2592
     79  O         52.4100    8.4300    4.8140 O.2   187  ARG187     -0.2718
     80  CB        50.0620    7.4280    3.0360 C.3   187  ARG187      0.0321
     81  CG        51.0110    7.3590    1.8370 C.3   187  ARG187      0.0489
     82  CD        50.6860    6.2640    0.8680 C.3   187  ARG187      0.2205
     83  NE        51.6950    6.2200   -0.1870 N.pl3 187  ARG187     -0.0865
     84  CZ        51.6240    5.4590   -1.2670 C.cat 187  ARG187      0.5346
     85  NH1       50.5890    4.6480   -1.4510 N.pl3 187  ARG187      0.1354
     86  NH2       52.6060    5.5020   -2.1650 N.pl3 187  ARG187      0.1354
     87  N         52.2800    9.8630    3.0850 N.am  188  ASP188     -0.1960
     88  CA        53.7390    9.9890    2.9070 C.3   188  ASP188      0.1840
     89  C         54.0490   11.1010    1.9370 C.2   188  ASP188      0.2622
     90  O         53.2760   11.3380    1.0120 O.2   188  ASP188     -0.2715
     91  CB        54.2910    8.6750    2.3150 C.3   188  ASP188      0.1450
     92  CG        55.7870    8.7330    1.9790 C.2   188  ASP188      0.3671
     93  OD1       56.5710    9.3890    2.7140 O.co2 188  ASP188     -0.2456
     94  OD2       56.1810    8.0940    0.9690 O.co2 188  ASP188     -0.2456
     95  N         55.1720   11.7870    2.1520 N.am  189  ASN189     -0.1958
     96  CA        55.7290   12.6980    1.1520 C.3   189  ASN189      0.1819
     97  C         54.7490   13.8100    0.7380 C.2   189  ASN189      0.2621
     98  O         54.0430   14.3620    1.5900 O.2   189  ASN189     -0.2715
     99  CB        56.2090   11.8880   -0.0620 C.3   189  ASN189      0.1195
    100  CG        57.2300   12.6340   -0.8870 C.2   189  ASN189      0.2630
    101  OD1       58.0910   13.3290   -0.3480 O.2   189  ASN189     -0.2716
    102  ND2       57.1260   12.5160   -2.2030 N.am  189  ASN189     -0.0877
    103  N         54.7000   14.1540   -0.5470 N.am  190  ASN190     -0.1972
    104  CA        53.8360   15.2340   -1.0000 C.3   190  ASN190      0.1688
    105  C         52.3760   14.9760   -0.7080 C.2   190  ASN190      0.2292
    106  O         51.9390   13.8210   -0.5420 O.2   190  ASN190     -0.2864
    107  CB        54.0050   15.4690   -2.4930 C.3   190  ASN190      0.1181
    108  CG        55.4040   15.8960   -2.8540 C.2   190  ASN190      0.2629
    109  OD1       56.1820   16.3300   -1.9980 O.2   190  ASN190     -0.2716
    110  ND2       55.7360   15.7780   -4.1260 N.am  190  ASN190     -0.0877
@<TRIPOS>BOND
     1    70    68   ar
     2    70    71   ar
     3    73    71   ar
     4    73    75   ar
     5    68    67   ar
     6    71    69   ar
     7    24    22   ar
     8    24    25   ar
     9    75    74   ar
    10    64    63    1
    11    64    65    2
    12    26    25    1
    13    63    62    1
    14    63    66    1
    15    67    69   ar
    16    67    66    1
    17    69    72   ar
    18    22    20   ar
    19    25    23   ar
    20    74    72   ar
    21    20    19    1
    22    20    21   ar
    23    23    21   ar
    24    19    16    1
    25   110   108   am
    26    50    47    1
    27    50    51    1
    28    53    51   ar
    29    46    47    1
    30    47    48    1
    31    51    52   ar
    32    16    15    1
    33    16    17    1
    34   108   107    1
    35   108   109    2
    36    57    56    2
    37   107   104    1
    38   102   100   am
    39    86    84    1
    40    17    18    2
    41    56    55    1
    42    48    49    2
    43    48    54   am
    44    55    54    1
    45    55    58    1
    46    85    84    1
    47    60    59   ar
    48    84    83    2
    49   104   105    1
    50   104   103    1
    51   100   101    2
    52   100    99    1
    53   105   106    2
    54    58    59    1
    55   103    97   am
    56    59    61   ar
    57    12    14   ar
    58    12    10   ar
    59    83    82    1
    60    99    96    1
    61    14    13   ar
    62     9    10   ar
    63     9     7   ar
    64    10     8   ar
    65    97    96    1
    66    97    98    2
    67    82    81    1
    68    28    27    1
    69    28    29    1
    70    28    31    1
    71    94    92   ar
    72    90    89    2
    73    36    29   am
    74    36    37    1
    75    96    95    1
    76    13    11   ar
    77    29    30    2
    78    31    32    1
    79    37    38    1
    80     7     6   ar
    81    81    80    1
    82     8    11   ar
    83     8     6   ar
    84    89    95   am
    85    89    88    1
    86    92    91    1
    87    92    93   ar
    88    91    88    1
    89     6     5    1
    90    88    87    1
    91    38    39    2
    92    38    40   am
    93    80    77    1
    94    32    33    1
    95    87    78   am
    96    76    77    1
    97    45    44    1
    98    40    41    1
    99    33    34    1
   100    77    78    1
   101     5     2    1
   102    78    79    2
   103    44    41    1
   104    41    42    1
   105     1     2    1
   106     4     3    2
   107     2     3    1
   108    34    35    1
   109    42    43    2
