@<TRIPOS>MOLECULE
tmp/4afdA00.pdb
 123 124 0 0 0
SMALL
GASTEIGER

@<TRIPOS>ATOM
      1  N        -11.2640   24.1080  -17.0370 N.3    18  TRP18      -0.1241
      2  CA       -10.2570   24.3160  -15.9910 C.3    18  TRP18       0.1605
      3  C         -9.0830   25.0900  -16.5170 C.2    18  TRP18       0.2264
      4  O         -8.5320   25.9760  -15.7910 O.2    18  TRP18      -0.2867
      5  CB        -9.8570   22.9790  -15.3930 C.3    18  TRP18       0.0550
      6  CG       -10.9420   22.3880  -14.5670 C.ar   18  TRP18       0.0003
      7  CD1      -11.6790   21.2890  -14.7950 C.ar   18  TRP18       0.0946
      8  CD2      -11.4320   22.8990  -13.2530 C.ar   18  TRP18       0.0152
      9  NE1      -12.6100   21.0900  -13.8450 N.ar   18  TRP18      -0.2442
     10  CE2      -12.4790   22.0140  -12.8470 C.ar   18  TRP18       0.0810
     11  CE3      -11.0780   23.9550  -12.4010 C.ar   18  TRP18       0.0012
     12  CZ2      -13.1780   22.1650  -11.6370 C.ar   18  TRP18       0.0191
     13  CZ3      -11.8150   24.1220  -11.1990 C.ar   18  TRP18       0.0001
     14  CH2      -12.8540   23.2660  -10.8440 C.ar   18  TRP18       0.0015
     15  N         -6.3680   27.1870  -17.0410 N.3    20  GLY20      -0.1210
     16  CA        -5.3280   27.6540  -16.0920 C.3    20  GLY20       0.1956
     17  C         -5.5240   27.0590  -14.6940 C.2    20  GLY20       0.2613
     18  O         -6.0890   25.9650  -14.5490 O.2    20  GLY20      -0.2717
     19  N         -4.9910   27.7160  -13.6620 N.am   21  THR21      -0.1938
     20  CA        -5.4280   27.4790  -12.2440 C.3    21  THR21       0.2028
     21  C         -5.8330   28.8560  -11.6760 C.2    21  THR21       0.2642
     22  O         -5.8640   29.1120  -10.4440 O.2    21  THR21      -0.2714
     23  CB        -4.4340   26.6880  -11.3500 C.3    21  THR21       0.1808
     24  OG1       -3.0910   27.1520  -11.5630 O.3    21  THR21      -0.2208
     25  CG2       -4.5130   25.1910  -11.6580 C.3    21  THR21       0.0379
     26  N         -6.0540   29.7260  -12.6660 N.am   22  ASP22      -0.1957
     27  CA        -6.8580   30.9390  -12.5620 C.3    22  ASP22       0.1840
     28  C         -8.3620   30.5560  -12.5650 C.2    22  ASP22       0.2622
     29  O         -8.8440   29.8370  -13.4730 O.2    22  ASP22      -0.2715
     30  CB        -6.5320   31.8370  -13.7480 C.3    22  ASP22       0.1450
     31  CG        -6.4480   31.0750  -15.0500 C.2    22  ASP22       0.3671
     32  OD1       -5.5260   30.2260  -15.2220 O.co2  22  ASP22      -0.2456
     33  OD2       -7.2880   31.3510  -15.9300 O.co2  22  ASP22      -0.2456
     34  N         -9.0820   31.0290  -11.5740 N.am   23  TRP23      -0.1974
     35  CA       -10.4330   30.4580  -11.3140 C.3    23  TRP23       0.1640
     36  C        -11.2940   31.5710  -10.8510 C.2    23  TRP23       0.2290
     37  O        -11.2780   31.9990   -9.6850 O.2    23  TRP23      -0.2864
     38  CB       -10.2760   29.3160  -10.2620 C.3    23  TRP23       0.0576
     39  CG       -11.5640   28.5630  -10.0380 C.ar   23  TRP23       0.0006
     40  CD1      -12.8000   28.6910  -10.7310 C.ar   23  TRP23       0.0946
     41  CD2      -11.7030   27.4230   -9.1600 C.ar   23  TRP23       0.0152
     42  NE1      -13.6920   27.7810  -10.2050 N.ar   23  TRP23      -0.2442
     43  CE2      -13.0710   27.0050   -9.2530 C.ar   23  TRP23       0.0810
     44  CE3      -10.8970   26.8220   -8.2090 C.ar   23  TRP23       0.0012
     45  CZ2      -13.5620   25.9550   -8.5010 C.ar   23  TRP23       0.0191
     46  CZ3      -11.4250   25.7550   -7.4920 C.ar   23  TRP23       0.0001
     47  CH2      -12.7090   25.3190   -7.6640 C.ar   23  TRP23       0.0015
     48  N         -3.6360   30.7070    3.5140 N.3    62  TRP62      -0.1227
     49  CA        -2.3570   30.5860    2.7650 C.3    62  TRP62       0.1737
     50  C         -1.2900   30.0050    3.6460 C.2    62  TRP62       0.2595
     51  O         -1.3130   30.1610    4.8380 O.2    62  TRP62      -0.2718
     52  CB        -1.9520   31.9980    2.2100 C.3    62  TRP62       0.0564
     53  CG        -3.1060   32.7350    1.5780 C.ar   62  TRP62       0.0003
     54  CD1       -3.4010   34.1030    1.7390 C.ar   62  TRP62       0.0946
     55  CD2       -4.0540   32.2560    0.6110 C.ar   62  TRP62       0.0152
     56  NE1       -4.4760   34.4130    0.9520 N.ar   62  TRP62      -0.2442
     57  CE2       -4.9340   33.3740    0.2690 C.ar   62  TRP62       0.0810
     58  CE3       -4.3390   31.0080    0.0200 C.ar   62  TRP62       0.0012
     59  CZ2       -6.0230   33.2130   -0.6040 C.ar   62  TRP62       0.0191
     60  CZ3       -5.4590   30.9530   -0.9190 C.ar   62  TRP62       0.0001
     61  CH2       -6.2450   32.0080   -1.1920 C.ar   62  TRP62       0.0015
     62  N         -0.3310   29.3400    3.0120 N.am   63  GLU63      -0.1979
     63  CA         0.8180   28.8060    3.7640 C.3    63  GLU63       0.1602
     64  C          1.5360   29.9760    4.4840 C.2    63  GLU63       0.2287
     65  O          1.7230   31.0680    3.9480 O.2    63  GLU63      -0.2864
     66  CB         1.7710   28.0520    2.7890 C.3    63  GLU63       0.0415
     67  CG         2.9000   27.3330    3.5130 C.3    63  GLU63       0.1163
     68  CD         3.7370   26.5200    2.5550 C.2    63  GLU63       0.3649
     69  OE1        3.2690   26.0250    1.4920 O.co2  63  GLU63      -0.2457
     70  OE2        4.9470   26.3230    2.9180 O.co2  63  GLU63      -0.2457
     71  N         -0.8940   25.4980    3.6180 N.3    69  GLN69      -0.1245
     72  CA        -2.0960   26.0180    2.9720 C.3    69  GLN69       0.1566
     73  C         -3.2860   25.1040    3.1940 C.2    69  GLN69       0.2260
     74  O         -3.1890   23.8820    2.9640 O.2    69  GLN69      -0.2867
     75  CB        -1.8130   26.1560    1.4720 C.3    69  GLN69       0.0367
     76  CG        -3.1030   26.5440    0.7020 C.3    69  GLN69       0.0905
     77  CD        -2.8200   27.0600   -0.6540 C.2    69  GLN69       0.2608
     78  OE1       -2.8500   26.3430   -1.6620 O.2    69  GLN69      -0.2717
     79  NE2       -2.4080   28.2620   -0.6990 N.am   69  GLN69      -0.0878
     80  N         -6.9640   24.5100    1.6220 N.3    71  TRP71      -0.1241
     81  CA        -7.9200   24.8660    0.5350 C.3    71  TRP71       0.1605
     82  C         -9.1370   24.0140    0.7510 C.2    71  TRP71       0.2264
     83  O         -9.2210   22.8370    0.3030 O.2    71  TRP71      -0.2867
     84  CB        -7.3020   24.6100   -0.8020 C.3    71  TRP71       0.0550
     85  CG        -8.1690   25.0720   -1.9610 C.ar   71  TRP71       0.0003
     86  CD1       -8.9980   24.2610   -2.7040 C.ar   71  TRP71       0.0946
     87  CD2       -8.2780   26.4040   -2.5210 C.ar   71  TRP71       0.0152
     88  NE1       -9.6410   25.0110   -3.6900 N.ar   71  TRP71      -0.2442
     89  CE2       -9.1810   26.2870   -3.6280 C.ar   71  TRP71       0.0810
     90  CE3       -7.6670   27.6530   -2.2620 C.ar   71  TRP71       0.0012
     91  CZ2       -9.4880   27.4210   -4.4480 C.ar   71  TRP71       0.0191
     92  CZ3       -7.9850   28.7260   -3.0680 C.ar   71  TRP71       0.0001
     93  CH2       -8.8960   28.6290   -4.0900 C.ar   71  TRP71       0.0015
     94  N        -12.3520   23.2290   -0.2430 N.3    73  GLN73      -0.1245
     95  CA       -13.3200   23.3280   -1.2840 C.3    73  GLN73       0.1566
     96  C        -14.4870   22.4240   -0.9510 C.2    73  GLN73       0.2260
     97  O        -14.2900   21.1660   -0.8780 O.2    73  GLN73      -0.2867
     98  CB       -12.6690   22.9050   -2.5480 C.3    73  GLN73       0.0367
     99  CG       -13.4500   23.0180   -3.7790 C.3    73  GLN73       0.0905
    100  CD       -12.6170   22.8230   -4.9600 C.2    73  GLN73       0.2608
    101  OE1      -11.5470   23.3520   -5.1790 O.2    73  GLN73      -0.2717
    102  NE2      -13.1810   22.0150   -5.8440 N.am   73  GLN73      -0.0878
    103  N         -9.3540   33.6530    3.2980 N.3   105  TYR105     -0.1241
    104  CA       -10.1500   33.7910    2.0540 C.3   105  TYR105      0.1605
    105  C        -11.4490   33.0080    2.1090 C.2   105  TYR105      0.2264
    106  O        -11.4200   31.8100    2.5530 O.2   105  TYR105     -0.2867
    107  CB        -9.2620   33.2450    0.8670 C.3   105  TYR105      0.0534
    108  CG        -9.9360   33.2400   -0.4510 C.ar  105  TYR105     -0.0201
    109  CD1      -10.0820   34.4080   -1.2020 C.ar  105  TYR105     -0.0009
    110  CD2      -10.4170   32.0530   -1.0040 C.ar  105  TYR105     -0.0009
    111  CE1      -10.6690   34.3960   -2.4100 C.ar  105  TYR105      0.0417
    112  CE2      -11.0090   32.0270   -2.2380 C.ar  105  TYR105      0.0417
    113  CZ       -11.1470   33.1870   -2.9480 C.ar  105  TYR105      0.1957
    114  OH       -11.7410   33.1400   -4.1830 O.3   105  TYR105     -0.2866
    115  N        -17.4590   29.9240   -6.0890 N.3   109  LYS109     -0.1245
    116  CA       -16.9150   29.7330   -7.4380 C.3   109  LYS109      0.1561
    117  C        -17.7200   28.7140   -8.2020 C.2   109  LYS109      0.2260
    118  O        -18.3500   27.7930   -7.6300 O.2   109  LYS109     -0.2867
    119  CB       -15.4940   29.1920   -7.3950 C.3   109  LYS109      0.0271
    120  CG       -14.4690   30.1390   -6.6970 C.3   109  LYS109      0.0035
    121  CD       -13.0380   29.5760   -6.9280 C.3   109  LYS109      0.0206
    122  CE       -11.9330   30.3320   -6.2460 C.3   109  LYS109      0.1093
    123  NZ       -11.7350   31.6340   -6.9670 N.3   109  LYS109     -0.1314
@<TRIPOS>BOND
     1    15    16    1
     2     1     2    1
     3     3     2    1
     4     3     4    2
     5    16    17    1
     6     2     5    1
     7    33    31   ar
     8     5     6    1
     9    32    31   ar
    10    31    30    1
    11     7     6   ar
    12     7     9   ar
    13    17    18    2
    14    17    19   am
    15     6     8   ar
    16     9    10   ar
    17    30    27    1
    18    19    20    1
    19    29    28    2
    20     8    10   ar
    21     8    11   ar
    22    10    12   ar
    23    26    27    1
    24    26    21   am
    25    28    27    1
    26    28    34   am
    27    11    13   ar
    28    20    21    1
    29    20    23    1
    30    21    22    2
    31    25    23    1
    32    12    14   ar
    33    34    35    1
    34    24    23    1
    35    35    36    1
    36    35    38    1
    37    13    14   ar
    38    36    37    2
    39    40    42   ar
    40    40    39   ar
    41    38    39    1
    42    42    43   ar
    43    39    41   ar
    44    43    41   ar
    45    43    45   ar
    46    41    44   ar
    47    45    47   ar
    48    44    46   ar
    49   117   118    2
    50   117   116    1
    51    47    46   ar
    52   116   119    1
    53   116   115    1
    54   119   120    1
    55   123   122    1
    56   121   120    1
    57   121   122    1
    58   102   100   am
    59   101   100    2
    60   100    99    1
    61    91    93   ar
    62    91    89   ar
    63   114   113    1
    64    93    92   ar
    65    99    98    1
    66    88    89   ar
    67    88    86   ar
    68    89    87   ar
    69    92    90   ar
    70   113   111   ar
    71   113   112   ar
    72    86    85   ar
    73    98    95    1
    74    87    90   ar
    75    87    85   ar
    76   111   109   ar
    77   112   110   ar
    78    85    84    1
    79    78    77    2
    80    95    96    1
    81    95    94    1
    82   109   108   ar
    83    61    60   ar
    84    61    59   ar
    85   110   108   ar
    86    96    97    2
    87    60    58   ar
    88    84    81    1
    89    79    77   am
    90    77    76    1
    91    59    57   ar
    92   108   107    1
    93    58    55   ar
    94    57    55   ar
    95    57    56   ar
    96    83    82    2
    97    81    82    1
    98    81    80    1
    99    55    53   ar
   100    76    75    1
   101   107   104    1
   102    56    54   ar
   103    75    72    1
   104    69    68   ar
   105    53    54   ar
   106    53    52    1
   107   104   105    1
   108   104   103    1
   109   105   106    2
   110    52    49    1
   111    68    70   ar
   112    68    67    1
   113    49    48    1
   114    49    50    1
   115    66    67    1
   116    66    63    1
   117    74    73    2
   118    72    73    1
   119    72    71    1
   120    62    50   am
   121    62    63    1
   122    50    51    2
   123    63    64    1
   124    65    64    2
