@<TRIPOS>MOLECULE
tmp/4afeA00.pdb
 168 161 0 0 0
SMALL
GASTEIGER

@<TRIPOS>ATOM
      1  N         -9.5110   -4.4900    9.1480 N.3    10  TYR10      -0.1241
      2  CA        -9.8080   -5.8770    9.4630 C.3    10  TYR10       0.1605
      3  C         -8.6840   -6.4990   10.2620 C.2    10  TYR10       0.2264
      4  O         -7.5930   -5.9460   10.4010 O.2    10  TYR10      -0.2867
      5  CB       -10.0640   -6.7180    8.2010 C.3    10  TYR10       0.0534
      6  CG        -8.9200   -6.7630    7.2170 C.ar   10  TYR10      -0.0201
      7  CD1       -8.7970   -5.8050    6.2220 C.ar   10  TYR10      -0.0009
      8  CD2       -7.9620   -7.7660    7.2810 C.ar   10  TYR10      -0.0009
      9  CE1       -7.7580   -5.8390    5.3190 C.ar   10  TYR10       0.0417
     10  CE2       -6.9020   -7.8060    6.3840 C.ar   10  TYR10       0.0417
     11  CZ        -6.8110   -6.8380    5.4030 C.ar   10  TYR10       0.1957
     12  OH        -5.7650   -6.8640    4.5040 O.3    10  TYR10      -0.2866
     13  N         -5.8710   -9.2760   11.1100 N.3    12  ILE12      -0.1231
     14  CA        -4.8840  -10.0960   10.4340 C.3    12  ILE12       0.1692
     15  C         -4.6240  -11.3760   11.2180 C.2    12  ILE12       0.2592
     16  O         -4.5840  -12.4570   10.6490 O.2    12  ILE12      -0.2718
     17  CB        -3.5490   -9.3640   10.3290 C.3    12  ILE12       0.0266
     18  CG1       -3.7100   -8.0230    9.6280 C.3    12  ILE12       0.0019
     19  CG2       -2.5450  -10.2280    9.5960 C.3    12  ILE12       0.0020
     20  CD1       -2.4090   -7.2570    9.5210 C.3    12  ILE12       0.0001
     21  N         -4.4280  -11.2440   12.5260 N.am   13  GLY13      -0.1957
     22  CA        -4.1690  -12.3890   13.3800 C.3    13  GLY13       0.1869
     23  C         -4.7730  -12.2540   14.7650 C.2    13  GLY13       0.2309
     24  O         -5.0240  -11.1490   15.2430 O.2    13  GLY13      -0.2863
     25  N         -1.7590  -13.5270   22.5430 N.3    17  TYR17      -0.1241
     26  CA        -1.4510  -12.1210   22.8400 C.3    17  TYR17       0.1605
     27  C         -2.6930  -11.2340   22.9330 C.2    17  TYR17       0.2264
     28  O         -2.8870  -10.5100   23.9100 O.2    17  TYR17      -0.2867
     29  CB        -0.5030  -11.5630   21.7700 C.3    17  TYR17       0.0534
     30  CG        -0.9780  -11.8060   20.3460 C.ar   17  TYR17      -0.0201
     31  CD1       -0.7270  -13.0190   19.7050 C.ar   17  TYR17      -0.0009
     32  CD2       -1.6770  -10.8240   19.6390 C.ar   17  TYR17      -0.0009
     33  CE1       -1.1650  -13.2510   18.4040 C.ar   17  TYR17       0.0417
     34  CE2       -2.1230  -11.0480   18.3380 C.ar   17  TYR17       0.0417
     35  CZ        -1.8620  -12.2640   17.7270 C.ar   17  TYR17       0.1957
     36  OH        -2.2870  -12.5100   16.4350 O.3    17  TYR17      -0.2866
     37  N         -4.3800   -8.6940   16.1190 N.3    20  CYS20      -0.1235
     38  CA        -3.5500   -7.9170   15.2250 C.3    20  CYS20       0.1677
     39  C         -4.3730   -7.4550   14.0190 C.2    20  CYS20       0.2270
     40  O         -4.8940   -8.2730   13.2610 O.2    20  CYS20      -0.2867
     41  CB        -2.3820   -8.7820   14.7870 C.3    20  CYS20       0.0956
     42  SG        -1.0340   -7.8640   14.0680 S.3    20  CYS20      -0.0801
     43  N         -0.5390   -1.2590   11.0060 N.3    33  VAL33      -0.1245
     44  CA        -1.2080   -2.3090   11.7490 C.3    33  VAL33       0.1561
     45  C         -1.0400   -1.9690   13.2270 C.2    33  VAL33       0.2260
     46  O         -0.1750   -1.1820   13.5890 O.2    33  VAL33      -0.2867
     47  CB        -0.7020   -3.7630   11.3860 C.3    33  VAL33       0.0252
     48  CG1       -0.0690   -3.7980   10.0250 C.3    33  VAL33       0.0019
     49  CG2        0.2670   -4.3000   12.4050 C.3    33  VAL33       0.0019
     50  N         -1.1880   -3.9880   17.2650 N.3    35  LYS35      -0.1245
     51  CA        -1.3860   -5.1540   18.1040 C.3    35  LYS35       0.1561
     52  C         -2.2460   -4.7670   19.3190 C.2    35  LYS35       0.2260
     53  O         -1.9180   -3.8400   20.0560 O.2    35  LYS35      -0.2867
     54  CB        -0.0270   -5.7070   18.5380 C.3    35  LYS35       0.0271
     55  CG        -0.0710   -6.8540   19.5200 C.3    35  LYS35       0.0035
     56  CD         1.2720   -7.5820   19.5690 C.3    35  LYS35       0.0206
     57  CE         2.4520   -6.6090   19.7660 C.3    35  LYS35       0.1093
     58  NZ         3.7900   -7.2630   19.5800 N.3    35  LYS35      -0.1314
     59  N         11.0850   -4.1580   12.2080 N.3    66  VAL66      -0.1245
     60  CA         9.6960   -3.6800   12.1400 C.3    66  VAL66       0.1561
     61  C          9.4970   -2.4070   12.9690 C.2    66  VAL66       0.2260
     62  O          9.6320   -2.4200   14.1860 O.2    66  VAL66      -0.2867
     63  CB         8.6630   -4.7710   12.5570 C.3    66  VAL66       0.0252
     64  CG1        7.2700   -4.1460   12.8090 C.3    66  VAL66       0.0019
     65  CG2        8.5960   -5.8590   11.5200 C.3    66  VAL66       0.0019
     66  N          2.3590   -0.2560   14.4440 N.3    84  MET84      -0.1230
     67  CA         3.5910   -0.4880   13.7120 C.3    84  MET84       0.1702
     68  C          3.3560   -0.3820   12.2140 C.2    84  MET84       0.2592
     69  O          2.2440   -0.1400   11.7710 O.2    84  MET84      -0.2718
     70  CB         4.1700   -1.8520   14.0830 C.3    84  MET84       0.0401
     71  CG         3.2710   -3.0040   13.7140 C.3    84  MET84       0.0596
     72  SD         3.7120   -4.5810   14.4740 S.3    84  MET84      -0.1393
     73  CE         3.6610   -4.1340   16.2050 C.3    84  MET84       0.0692
     74  N          4.4100   -0.5590   11.4310 N.am   85  GLU85      -0.1966
     75  CA         4.2890   -0.5100    9.9910 C.3    85  GLU85       0.1733
     76  C          3.6060   -1.7520    9.4680 C.2    85  GLU85       0.2616
     77  O          3.6990   -2.8290   10.0510 O.2    85  GLU85      -0.2715
     78  CB         5.6620   -0.3830    9.3430 C.3    85  GLU85       0.0429
     79  CG         6.6060   -1.5080    9.7220 C.3    85  GLU85       0.1163
     80  CD         7.9410   -1.4320    8.9790 C.2    85  GLU85       0.3649
     81  OE1        7.9200   -1.5070    7.7340 O.co2  85  GLU85      -0.2457
     82  OE2        9.0020   -1.2900    9.6290 O.co2  85  GLU85      -0.2457
     83  N          2.9080   -1.5900    8.3560 N.am   86  TYR86      -0.1960
     84  CA         2.3590   -2.7210    7.6290 C.3    86  TYR86       0.1771
     85  C          3.4250   -3.4310    6.8050 C.2    86  TYR86       0.2620
     86  O          4.1600   -2.8030    6.0400 O.2    86  TYR86      -0.2715
     87  CB         1.2760   -2.2410    6.6940 C.3    86  TYR86       0.0574
     88  CG         0.5420   -3.3430    5.9760 C.ar   86  TYR86      -0.0198
     89  CD1        0.0360   -4.4410    6.6760 C.ar   86  TYR86      -0.0009
     90  CD2        0.2970   -3.2600    4.6090 C.ar   86  TYR86      -0.0009
     91  CE1       -0.6660   -5.4310    6.0320 C.ar   86  TYR86       0.0417
     92  CE2       -0.4220   -4.2280    3.9630 C.ar   86  TYR86       0.0417
     93  CZ        -0.9040   -5.3210    4.6700 C.ar   86  TYR86       0.1957
     94  OH        -1.6100   -6.3090    3.9990 O.3    86  TYR86      -0.2866
     95  N          3.4830   -4.7450    6.9630 N.am   87  CYS87      -0.1954
     96  CA         4.3420   -5.5970    6.1810 C.3    87  CYS87       0.1843
     97  C          3.4890   -6.5080    5.3050 C.2    87  CYS87       0.2625
     98  O          3.1740   -7.6290    5.6950 O.2    87  CYS87      -0.2714
     99  CB         5.2120   -6.4170    7.1250 C.3    87  CYS87       0.0997
    100  SG         6.0890   -5.3830    8.3370 S.3    87  CYS87      -0.0797
    101  N          3.1250   -6.0300    4.1180 N.am   88  GLU88      -0.1977
    102  CA         2.1190   -6.7170    3.2990 C.3    88  GLU88       0.1602
    103  C          2.4760   -8.1480    2.8870 C.2    88  GLU88       0.2287
    104  O          1.5810   -8.9750    2.6640 O.2    88  GLU88      -0.2864
    105  CB         1.7550   -5.8990    2.0560 C.3    88  GLU88       0.0415
    106  CG         2.9050   -5.5710    1.1320 C.3    88  GLU88       0.1163
    107  CD         2.4240   -5.1450   -0.2660 C.2    88  GLU88       0.3649
    108  OE1        2.0070   -3.9690   -0.4220 O.co2  88  GLU88      -0.2457
    109  OE2        2.4550   -5.9870   -1.2030 O.co2  88  GLU88      -0.2457
    110  N          3.5860  -10.4020    4.6620 N.3    90  GLY90      -0.1210
    111  CA         3.4540  -11.3240    5.7780 C.3    90  GLY90       0.1956
    112  C          4.7940  -11.8350    6.3230 C.2    90  GLY90       0.2611
    113  O          5.8660  -11.2330    6.0850 O.2    90  GLY90      -0.2717
    114  N          4.7250  -12.9510    7.0530 N.am   91  ASP91      -0.1973
    115  CA         5.9020  -13.5970    7.6440 C.3    91  ASP91       0.1709
    116  C          6.5800  -14.6550    6.7540 C.2    91  ASP91       0.2293
    117  O          6.0090  -15.1260    5.7700 O.2    91  ASP91      -0.2864
    118  CB         5.5380  -14.2500    8.9820 C.3    91  ASP91       0.1436
    119  CG         4.4870  -15.3540    8.8240 C.2    91  ASP91       0.3671
    120  OD1        4.8570  -16.5030    8.4690 O.co2  91  ASP91      -0.2456
    121  OD2        3.2800  -15.0670    9.0290 O.co2  91  ASP91      -0.2456
    122  N          8.6860  -17.1380   11.8480 N.3   136  ALA136     -0.1231
    123  CA         7.4760  -16.4160   12.2090 C.3   136  ALA136      0.1694
    124  C          7.7680  -14.9710   12.6190 C.2   136  ALA136      0.2592
    125  O          6.8770  -14.1360   12.6250 O.2   136  ALA136     -0.2718
    126  CB         6.7270  -17.1460   13.3140 C.3   136  ALA136      0.0304
    127  N          9.0150  -14.6760   12.9640 N.am  137  ASN137     -0.1974
    128  CA         9.3540  -13.3340   13.4230 C.3   137  ASN137      0.1688
    129  C         10.0630  -12.5190   12.3640 C.2   137  ASN137      0.2292
    130  O         10.7810  -11.5860   12.6590 O.2   137  ASN137     -0.2864
    131  CB        10.1910  -13.3660   14.6990 C.3   137  ASN137      0.1181
    132  CG        10.1540  -12.0410   15.4330 C.2   137  ASN137      0.2629
    133  OD1        9.1390  -11.3440   15.3930 O.2   137  ASN137     -0.2716
    134  ND2       11.2610  -11.6650   16.0700 N.am  137  ASN137     -0.0877
    135  N          9.4150  -10.5060    8.6650 N.3   139  PHE139     -0.1241
    136  CA         8.3200   -9.9510    7.8990 C.3   139  PHE139      0.1605
    137  C          8.8070   -9.2620    6.6430 C.2   139  PHE139      0.2264
    138  O          9.9400   -8.7690    6.5750 O.2   139  PHE139     -0.2867
    139  CB         7.5230   -9.0030    8.7740 C.3   139  PHE139      0.0534
    140  CG         6.9940   -9.6620    9.9990 C.ar  139  PHE139     -0.0203
    141  CD1        5.7830  -10.3220    9.9690 C.ar  139  PHE139     -0.0042
    142  CD2        7.7390   -9.6770   11.1670 C.ar  139  PHE139     -0.0042
    143  CE1        5.3020  -10.9600   11.0740 C.ar  139  PHE139     -0.0003
    144  CE2        7.2720  -10.3180   12.2810 C.ar  139  PHE139     -0.0003
    145  CZ         6.0450  -10.9630   12.2380 C.ar  139  PHE139     -0.0000
    146  N         10.7990   -8.8530   13.5860 N.3   149  GLY149     -0.1210
    147  CA         9.7560   -8.5240   14.5320 C.3   149  GLY149      0.1956
    148  C         10.2530   -8.5420   15.9640 C.2   149  GLY149      0.2612
    149  O         11.4670   -8.5960   16.2090 O.2   149  GLY149     -0.2717
    150  N          9.3080   -8.5100   16.9040 N.am  150  ASP150     -0.1959
    151  CA         9.6150   -8.2920   18.3160 C.3   150  ASP150      0.1840
    152  C          9.5490   -9.5270   19.1930 C.2   150  ASP150      0.2622
    153  O          9.8610   -9.4380   20.3760 O.2   150  ASP150     -0.2715
    154  CB         8.7390   -7.1730   18.9200 C.3   150  ASP150      0.1450
    155  CG         7.2960   -7.6310   19.2890 C.2   150  ASP150      0.3671
    156  OD1        6.9710   -8.8460   19.3400 O.co2 150  ASP150     -0.2456
    157  OD2        6.4610   -6.7310   19.5460 O.co2 150  ASP150     -0.2456
    158  N          9.0900  -10.6490   18.6380 N.am  151  PHE151     -0.1974
    159  CA         9.0070  -11.8980   19.3980 C.3   151  PHE151      0.1639
    160  C         10.3070  -12.1560   20.1660 C.2   151  PHE151      0.2290
    161  O         11.4010  -11.9870   19.6220 O.2   151  PHE151     -0.2864
    162  CB         8.6990  -13.0810   18.4770 C.3   151  PHE151      0.0560
    163  CG         7.2880  -13.1080   17.9670 C.ar  151  PHE151     -0.0200
    164  CD1        6.2170  -12.8530   18.8180 C.ar  151  PHE151     -0.0042
    165  CD2        7.0260  -13.3840   16.6280 C.ar  151  PHE151     -0.0042
    166  CE1        4.8990  -12.8800   18.3430 C.ar  151  PHE151     -0.0003
    167  CE2        5.7170  -13.4070   16.1400 C.ar  151  PHE151     -0.0003
    168  CZ         4.6520  -13.1600   16.9990 C.ar  151  PHE151     -0.0000
@<TRIPOS>BOND
     1   109   107   ar
     2   108   107   ar
     3   107   106    1
     4   106   105    1
     5   105   102    1
     6   104   103    2
     7   103   102    1
     8   102   101    1
     9    92    90   ar
    10    92    93   ar
    11    94    93    1
    12   101    97   am
    13    12    11    1
    14    90    88   ar
    15   110   111    1
    16    93    91   ar
    17    97    98    2
    18    97    96    1
    19     9    11   ar
    20     9     7   ar
    21    11    10   ar
    22   117   116    2
    23   111   112    1
    24    88    89   ar
    25    88    87    1
    26    91    89   ar
    27    86    85    2
    28   113   112    2
    29    96    95    1
    30    96    99    1
    31     7     6   ar
    32   112   114   am
    33    10     8   ar
    34   138   137    2
    35   137   136    1
    36    87    84    1
    37   116   115    1
    38    85    95   am
    39    85    84    1
    40   114   115    1
    41    99   100    1
    42     6     8   ar
    43     6     5    1
    44    84    83    1
    45   115   118    1
    46    81    80   ar
    47   136   135    1
    48   136   139    1
    49     5     2    1
    50    83    76   am
    51   120   119   ar
    52   139   140    1
    53   119   118    1
    54   119   121   ar
    55    80    82   ar
    56    80    79    1
    57     1     2    1
    58    78    79    1
    59    78    75    1
    60     2     3    1
    61    76    75    1
    62    76    77    2
    63    20    18    1
    64    19    17    1
    65    18    17    1
    66   141   140   ar
    67   141   143   ar
    68    75    74    1
    69   140   142   ar
    70    48    47    1
    71     3     4    2
    72    17    14    1
    73    14    13    1
    74    14    15    1
    75    16    15    2
    76    43    44    1
    77   143   145   ar
    78   142   144   ar
    79    15    21   am
    80    47    44    1
    81    47    49    1
    82    74    68   am
    83    65    63    1
    84    44    45    1
    85    69    68    2
    86   122   123    1
    87    60    59    1
    88    60    63    1
    89    60    61    1
    90   123   124    1
    91   123   126    1
    92    68    67    1
    93   145   144   ar
    94   129   130    2
    95   129   128    1
    96    21    22    1
    97    63    64    1
    98   124   125    2
    99   124   127   am
   100   127   128    1
   101    61    62    2
   102    45    46    2
   103    40    39    2
   104    22    23    1
   105   128   131    1
   106   146   147    1
   107    67    70    1
   108    67    66    1
   109    71    70    1
   110    71    72    1
   111    39    38    1
   112    42    41    1
   113    72    73    1
   114   147   148    1
   115   131   132    1
   116    23    24    2
   117    41    38    1
   118    38    37    1
   119   133   132    2
   120   132   134   am
   121   148   149    2
   122   148   150   am
   123   167   165   ar
   124   167   168   ar
   125    36    35    1
   126   165   163   ar
   127   150   151    1
   128   168   166   ar
   129    50    51    1
   130    35    34   ar
   131    35    33   ar
   132   163   162    1
   133   163   164   ar
   134    51    54    1
   135    51    52    1
   136   151   154    1
   137   151   152    1
   138    34    32   ar
   139   166   164   ar
   140    33    31   ar
   141   162   159    1
   142    54    55    1
   143   158   152   am
   144   158   159    1
   145   154   155    1
   146   152   153    2
   147   155   156   ar
   148   155   157   ar
   149    52    53    2
   150   159   160    1
   151    55    56    1
   152    56    57    1
   153    58    57    1
   154   161   160    2
   155    32    30   ar
   156    31    30   ar
   157    30    29    1
   158    29    26    1
   159    25    26    1
   160    26    27    1
   161    27    28    2
