@<TRIPOS>MOLECULE
tmp/4affA01.pdb
 102 97 0 0 0
SMALL
GASTEIGER

@<TRIPOS>ATOM
      1  N          7.9280   23.0470   16.7660 N.3     9  ARG9       -0.1245
      2  CA         8.2110   22.9730   15.2980 C.3     9  ARG9        0.1563
      3  C          6.8840   22.9140   14.5670 C.2     9  ARG9        0.2260
      4  O          6.0200   22.1170   14.9230 O.2     9  ARG9       -0.2867
      5  CB         9.0260   21.7340   15.0040 C.3     9  ARG9        0.0307
      6  CG        10.4170   21.7680   15.5940 C.3     9  ARG9        0.0489
      7  CD        11.1000   20.4530   15.3440 C.3     9  ARG9        0.2205
      8  NE        12.4350   20.3780   15.9690 N.pl3   9  ARG9       -0.0865
      9  CZ        13.5330   20.9810   15.5310 C.cat   9  ARG9        0.5346
     10  NH1       13.5110   21.6990   14.4300 N.pl3   9  ARG9        0.1354
     11  NH2       14.6520   20.9010   16.2320 N.pl3   9  ARG9        0.1354
     12  N         13.9330   33.0190   18.2080 N.3    36  PHE36      -0.1227
     13  CA        15.2160   32.3890   18.4060 C.3    36  PHE36       0.1736
     14  C         15.3700   31.9740   19.8720 C.2    36  PHE36       0.2596
     15  O         14.6690   32.4850   20.7440 O.2    36  PHE36      -0.2718
     16  CB        16.3930   33.2500   17.8840 C.3    36  PHE36       0.0547
     17  CG        16.5880   34.5240   18.5760 C.ar   36  PHE36      -0.0202
     18  CD1       17.2330   34.6340   19.8030 C.ar   36  PHE36      -0.0042
     19  CD2       16.2430   35.7170   17.9700 C.ar   36  PHE36      -0.0042
     20  CE1       17.4150   35.8050   20.3920 C.ar   36  PHE36      -0.0003
     21  CE2       16.5300   36.8820   18.5380 C.ar   36  PHE36      -0.0003
     22  CZ        17.1270   36.9390   19.7380 C.ar   36  PHE36      -0.0000
     23  N         16.2960   31.1080   20.0830 N.am   37  GLY37      -0.1942
     24  CA        16.6550   30.5960   21.3750 C.3    37  GLY37       0.2014
     25  C         18.1750   30.8920   21.6270 C.2    37  GLY37       0.2639
     26  O         18.6560   32.0070   21.3470 O.2    37  GLY37      -0.2714
     27  N         18.9050   29.9510   22.1110 N.am   38  ARG38      -0.1963
     28  CA        20.3290   30.1720   22.4260 C.3    38  ARG38       0.1729
     29  C         21.3230   30.2540   21.2700 C.2    38  ARG38       0.2616
     30  O         22.4310   30.7820   21.4510 O.2    38  ARG38      -0.2715
     31  CB        20.8300   29.0090   23.2530 C.3    38  ARG38       0.0348
     32  CG        20.1730   29.1220   24.5810 C.3    38  ARG38       0.0492
     33  CD        20.8630   28.0970   25.5640 C.3    38  ARG38       0.2205
     34  NE        20.6550   26.7270   25.0830 N.pl3  38  ARG38      -0.0865
     35  CZ        20.7020   25.6220   25.8430 C.cat  38  ARG38       0.5346
     36  NH1       21.1010   25.7600   27.1730 N.pl3  38  ARG38       0.1354
     37  NH2       20.3210   24.4570   25.3570 N.pl3  38  ARG38       0.1354
     38  N         20.9640   29.8910   20.0780 N.am   39  GLN39      -0.1963
     39  CA        21.8060   30.0470   18.8650 C.3    39  GLN39       0.1733
     40  C         23.2160   29.4860   19.0900 C.2    39  GLN39       0.2616
     41  O         24.2520   30.2280   19.0070 O.2    39  GLN39      -0.2715
     42  CB        21.8310   31.4980   18.3750 C.3    39  GLN39       0.0408
     43  CG        20.4850   31.9690   17.8390 C.3    39  GLN39       0.0908
     44  CD        20.3780   33.4950   17.4910 C.2    39  GLN39       0.2608
     45  OE1       20.7670   34.4230   18.2510 O.2    39  GLN39      -0.2717
     46  NE2       19.8250   33.7420   16.3510 N.am   39  GLN39      -0.0878
     47  N         23.3420   28.1840   19.2830 N.am   40  LYS40      -0.1977
     48  CA        24.6880   27.6460   19.4980 C.3    40  LYS40       0.1596
     49  C         25.3680   27.2050   18.1700 C.2    40  LYS40       0.2287
     50  O         25.2230   27.8670   17.1220 O.2    40  LYS40      -0.2864
     51  CB        24.6460   26.5600   20.5720 C.3    40  LYS40       0.0298
     52  CG        24.2260   27.1360   21.9590 C.3    40  LYS40       0.0038
     53  CD        23.5830   26.1000   22.9600 C.3    40  LYS40       0.0206
     54  CE        23.6840   24.6420   22.4730 C.3    40  LYS40       0.1093
     55  NZ        23.1000   23.6790   23.4430 N.3    40  LYS40      -0.1314
     56  N         17.5590   35.5640   11.6570 N.3    48  GLU48      -0.1301
     57  CA        17.7770   34.6590   12.7890 C.3    48  GLU48       0.1252
     58  C         16.5230   34.1780   13.3930 C.3    48  GLU48       0.2009
     59  O         16.5550   33.1700   14.2030 O.3    48  GLU48      -0.2188
     60  CB        18.5810   35.2670   13.8570 C.3    48  GLU48       0.0335
     61  CG        20.0540   35.2560   13.5660 C.3    48  GLU48       0.1156
     62  CD        20.8300   36.2770   14.3630 C.2    48  GLU48       0.3649
     63  OE1       20.2290   37.0190   15.1870 O.co2  48  GLU48      -0.2457
     64  OE2       22.0570   36.3810   14.1260 O.co2  48  GLU48      -0.2457
     65  N         13.2970   32.0290   13.3630 N.3    50  LEU50      -0.1245
     66  CA        12.8300   30.7910   12.7410 C.3    50  LEU50       0.1561
     67  C         11.3610   30.6390   12.9340 C.2    50  LEU50       0.2260
     68  O         10.8230   30.9040   14.0340 O.2    50  LEU50      -0.2867
     69  CB        13.5750   29.6130   13.4060 C.3    50  LEU50       0.0270
     70  CG        15.0600   29.6780   13.2510 C.3    50  LEU50       0.0019
     71  CD1       15.7650   28.6870   14.1640 C.3    50  LEU50       0.0001
     72  CD2       15.4210   29.3250   11.8640 C.3    50  LEU50       0.0001
     73  N          7.9370   29.1330   13.9720 N.3    52  LYS52      -0.1245
     74  CA         7.4420   28.1700   14.9590 C.3    52  LYS52       0.1561
     75  C          5.9380   28.3220   15.0350 C.2    52  LYS52       0.2260
     76  O          5.3670   29.2760   14.4960 O.2    52  LYS52      -0.2867
     77  CB         8.1000   28.3690   16.3220 C.3    52  LYS52       0.0271
     78  CG         9.6090   28.3010   16.3170 C.3    52  LYS52       0.0035
     79  CD        10.1600   26.8960   16.1380 C.3    52  LYS52       0.0206
     80  CE        11.6210   26.9060   15.8780 C.3    52  LYS52       0.1093
     81  NZ        12.1900   25.5490   15.6000 N.3    52  LYS52      -0.1314
     82  N         16.9430   17.4230   18.2090 N.3    79  GLU79      -0.1231
     83  CA        17.7100   18.4800   17.5620 C.3    79  GLU79       0.1699
     84  C         17.3720   19.8260   18.2700 C.2    79  GLU79       0.2592
     85  O         16.2510   20.0910   18.6110 O.2    79  GLU79      -0.2718
     86  CB        17.3170   18.5340   16.0770 C.3    79  GLU79       0.0402
     87  CG        18.0970   19.5810   15.2770 C.3    79  GLU79       0.1161
     88  CD        17.7960   19.5870   13.7960 C.2    79  GLU79       0.3649
     89  OE1       17.0960   18.7010   13.2850 O.co2  79  GLU79      -0.2457
     90  OE2       18.3310   20.5270   13.1010 O.co2  79  GLU79      -0.2457
     91  N         18.3900   20.6580   18.3630 N.am   80  ASN80      -0.1960
     92  CA        18.1600   22.0560   18.8370 C.3    80  ASN80       0.1819
     93  C         17.0440   22.6680   18.0450 C.2    80  ASN80       0.2621
     94  O         16.9190   22.4570   16.8080 O.2    80  ASN80      -0.2715
     95  CB        19.4130   22.8760   18.6970 C.3    80  ASN80       0.1195
     96  CG        20.5450   22.2880   19.5300 C.2    80  ASN80       0.2630
     97  OD1       20.7380   22.6310   20.6950 O.2    80  ASN80      -0.2716
     98  ND2       21.2800   21.4240   18.9980 N.am   80  ASN80      -0.0877
     99  N         16.1650   23.4120   18.7120 N.am   81  GLY81      -0.1954
    100  CA        15.0300   24.0670   18.0880 C.3    81  GLY81       0.1869
    101  C         13.7140   23.3820   18.3570 C.2    81  GLY81       0.2309
    102  O         12.6770   23.7650   17.7860 O.2    81  GLY81      -0.2863
@<TRIPOS>BOND
     1    56    57    1
     2    72    70    1
     3    66    67    1
     4    66    65    1
     5    66    69    1
     6    57    58    1
     7    57    60    1
     8    67    68    2
     9    90    88   ar
    10    70    69    1
    11    70    71    1
    12    89    88   ar
    13    58    59    1
    14    61    60    1
    15    61    62    1
    16    88    87    1
    17    73    74    1
    18    64    62   ar
    19    62    63   ar
    20    10     9    1
    21    76    75    2
    22     3     4    2
    23     3     2    1
    24    74    75    1
    25    74    77    1
    26     5     2    1
    27     5     6    1
    28    87    86    1
    29     2     1    1
    30     7     6    1
    31     7     8    1
    32     9     8    2
    33     9    11    1
    34    81    80    1
    35    80    79    1
    36    86    83    1
    37    79    78    1
    38    78    77    1
    39    46    44   am
    40    94    93    2
    41    50    49    2
    42    44    43    1
    43    44    45    2
    44    83    82    1
    45    83    84    1
    46   102   101    2
    47    43    42    1
    48    16    13    1
    49    16    17    1
    50    19    21   ar
    51    19    17   ar
    52    93    99   am
    53    93    92    1
    54   100   101    1
    55   100    99    1
    56    49    48    1
    57    12    13    1
    58    84    91   am
    59    84    85    2
    60    91    92    1
    61    42    39    1
    62    13    14    1
    63    21    22   ar
    64    17    18   ar
    65    95    92    1
    66    95    96    1
    67    39    40    1
    68    39    38    1
    69    98    96   am
    70    41    40    2
    71    40    47   am
    72    47    48    1
    73    48    51    1
    74    96    97    2
    75    22    20   ar
    76    18    20   ar
    77    14    23   am
    78    14    15    2
    79    38    29   am
    80    23    24    1
    81    51    52    1
    82    29    30    2
    83    29    28    1
    84    26    25    2
    85    24    25    1
    86    25    27   am
    87    52    53    1
    88    27    28    1
    89    28    31    1
    90    54    53    1
    91    54    55    1
    92    31    32    1
    93    32    33    1
    94    34    33    1
    95    34    35    2
    96    37    35    1
    97    35    36    1
