@<TRIPOS>MOLECULE
tmp/4afhB02.pdb
 123 124 0 0 0
SMALL
GASTEIGER

@<TRIPOS>ATOM
      1  N        -33.8670   95.0070   11.7210 N.3   100  LYS100     -0.1245
      2  CA       -32.9050   95.4980   10.7560 C.3   100  LYS100      0.1561
      3  C        -33.4130   95.2500    9.3490 C.2   100  LYS100      0.2260
      4  O        -34.2700   94.3970    9.1310 O.2   100  LYS100     -0.2867
      5  CB       -31.5530   94.7850   10.9460 C.3   100  LYS100      0.0271
      6  CG       -30.9470   95.0330   12.3320 C.3   100  LYS100      0.0035
      7  CD       -29.5500   94.4780   12.4480 C.3   100  LYS100      0.0206
      8  CE       -28.7550   95.3040   13.4370 C.3   100  LYS100      0.1093
      9  NZ       -28.4400   96.6240   12.8210 N.3   100  LYS100     -0.1314
     10  N        -32.4280   93.5940    6.4150 N.3   102  PHE102     -0.1241
     11  CA       -31.5180   92.4810    6.1580 C.3   102  PHE102      0.1605
     12  C        -30.7720   92.6450    4.8300 C.2   102  PHE102      0.2264
     13  O        -29.5650   92.3780    4.7300 O.2   102  PHE102     -0.2867
     14  CB       -32.3750   91.2050    6.1570 C.3   102  PHE102      0.0534
     15  CG       -31.6210   89.9340    5.8570 C.ar  102  PHE102     -0.0203
     16  CD1      -30.4990   89.5740    6.5840 C.ar  102  PHE102     -0.0042
     17  CD2      -32.0760   89.0650    4.8760 C.ar  102  PHE102     -0.0042
     18  CE1      -29.8340   88.3950    6.3270 C.ar  102  PHE102     -0.0003
     19  CE2      -31.4050   87.8750    4.6170 C.ar  102  PHE102     -0.0003
     20  CZ       -30.2810   87.5450    5.3450 C.ar  102  PHE102     -0.0000
     21  N        -36.4810   93.6470    3.2690 N.3   149  GLN149     -0.1231
     22  CA       -36.7050   92.5480    4.2070 C.3   149  GLN149      0.1698
     23  C        -36.3620   92.9800    5.6230 C.2   149  GLN149      0.2592
     24  O        -35.1920   93.2810    5.9050 O.2   149  GLN149     -0.2718
     25  CB       -35.8420   91.3420    3.8450 C.3   149  GLN149      0.0381
     26  CG       -36.2330   90.6180    2.5700 C.3   149  GLN149      0.0905
     27  CD       -35.0930   89.7640    2.0470 C.2   149  GLN149      0.2608
     28  OE1      -34.2580   90.2360    1.2800 O.2   149  GLN149     -0.2717
     29  NE2      -35.0520   88.4980    2.4600 N.am  149  GLN149     -0.0878
     30  N        -37.3640   93.0120    6.5060 N.am  150  PHE150     -0.1962
     31  CA       -37.1680   93.4290    7.9040 C.3   150  PHE150      0.1771
     32  C        -37.3740   92.2480    8.8600 C.2   150  PHE150      0.2620
     33  O        -38.2290   91.3880    8.6370 O.2   150  PHE150     -0.2715
     34  CB       -38.1120   94.5870    8.3060 C.3   150  PHE150      0.0574
     35  CG       -38.0620   95.7930    7.3860 C.ar  150  PHE150     -0.0200
     36  CD1      -37.1400   96.8160    7.5990 C.ar  150  PHE150     -0.0042
     37  CD2      -38.9630   95.9200    6.3370 C.ar  150  PHE150     -0.0042
     38  CE1      -37.0990   97.9540    6.7670 C.ar  150  PHE150     -0.0003
     39  CE2      -38.9350   97.0390    5.4990 C.ar  150  PHE150     -0.0003
     40  CZ       -37.9980   98.0600    5.7160 C.ar  150  PHE150     -0.0000
     41  N        -36.5790   92.2030    9.9180 N.am  151  GLY151     -0.1940
     42  CA       -36.7540   91.1790   10.9430 C.3   151  GLY151      0.2014
     43  C        -35.8210   91.4310   12.1150 C.2   151  GLY151      0.2640
     44  O        -34.8350   92.1490   11.9660 O.2   151  GLY151     -0.2714
     45  N        -36.1530   90.8850   13.2790 N.am  152  SER152     -0.1935
     46  CA       -35.2400   90.9220   14.4220 C.3   152  SER152      0.2055
     47  C        -33.9560   90.2240   14.0360 C.2   152  SER152      0.2643
     48  O        -33.9780   89.1380   13.4450 O.2   152  SER152     -0.2714
     49  CB       -35.8400   90.2050   15.6300 C.3   152  SER152      0.2130
     50  OG       -34.8550   90.0340   16.6290 O.3   152  SER152     -0.2179
     51  N        -32.8270   90.8370   14.3780 N.am  153  TRP153     -0.1959
     52  CA       -31.5610   90.2030   14.0690 C.3   153  TRP153      0.1771
     53  C        -31.3270   88.9300   14.8660 C.2   153  TRP153      0.2619
     54  O        -31.0020   87.8930   14.2930 O.2   153  TRP153     -0.2715
     55  CB       -30.3750   91.1690   14.2470 C.3   153  TRP153      0.0590
     56  CG       -29.1940   90.6760   13.4490 C.ar  153  TRP153      0.0006
     57  CD1      -28.0820   90.0320   13.9220 C.ar  153  TRP153      0.0946
     58  CD2      -29.0510   90.7340   12.0240 C.ar  153  TRP153      0.0152
     59  NE1      -27.2360   89.7280   12.8780 N.ar  153  TRP153     -0.2442
     60  CE2      -27.8060   90.1460   11.7040 C.ar  153  TRP153      0.0810
     61  CE3      -29.8440   91.2510   10.9910 C.ar  153  TRP153      0.0012
     62  CZ2      -27.3490   90.0330   10.3910 C.ar  153  TRP153      0.0191
     63  CZ3      -29.3800   91.1470    9.6800 C.ar  153  TRP153      0.0001
     64  CH2      -28.1410   90.5430    9.3950 C.ar  153  TRP153      0.0015
     65  N        -31.5090   88.9900   16.1830 N.am  154  VAL154     -0.1977
     66  CA       -31.1600   87.8510   17.0280 C.3   154  VAL154      0.1596
     67  C        -32.3310   87.1180   17.6720 C.2   154  VAL154      0.2287
     68  O        -32.1560   86.0070   18.1510 O.2   154  VAL154     -0.2864
     69  CB       -30.1540   88.2360   18.1450 C.3   154  VAL154      0.0276
     70  CG1      -28.8890   88.8630   17.5360 C.3   154  VAL154      0.0022
     71  CG2      -30.8150   89.1560   19.1620 C.3   154  VAL154      0.0022
     72  N        -33.0510   79.8050    9.4520 N.3   194  TYR194     -0.1241
     73  CA       -31.6890   80.0110    8.9660 C.3   194  TYR194      0.1605
     74  C        -30.7500   78.9830    9.5920 C.2   194  TYR194      0.2264
     75  O        -31.0280   78.4880   10.6800 O.2   194  TYR194     -0.2867
     76  CB       -31.2160   81.4200    9.3240 C.3   194  TYR194      0.0534
     77  CG       -32.0070   82.5150    8.6550 C.ar  194  TYR194     -0.0201
     78  CD1      -31.6400   83.0030    7.4090 C.ar  194  TYR194     -0.0009
     79  CD2      -33.1260   83.0470    9.2600 C.ar  194  TYR194     -0.0009
     80  CE1      -32.3640   84.0070    6.7930 C.ar  194  TYR194      0.0417
     81  CE2      -33.8560   84.0470    8.6550 C.ar  194  TYR194      0.0417
     82  CZ       -33.4700   84.5240    7.4250 C.ar  194  TYR194      0.1957
     83  OH       -34.2030   85.5220    6.8310 O.3   194  TYR194     -0.2866
     84  N        -28.1490   79.0900   11.4110 N.3   196  CYS196     -0.1221
     85  CA       -27.6930   79.3210   12.7800 C.3   196  CYS196      0.1808
     86  C        -28.5330   78.6180   13.8390 C.2   196  CYS196      0.2601
     87  O        -28.0140   78.1740   14.8690 O.2   196  CYS196     -0.2717
     88  CB       -27.6900   80.8230   13.1070 C.3   196  CYS196      0.0970
     89  SG       -29.3360   81.5360   13.3670 S.3   196  CYS196     -0.0800
     90  N        -29.8370   78.5400   13.6000 N.am  197  CYS197     -0.1970
     91  CA       -30.7730   78.3070   14.6870 C.3   197  CYS197      0.1712
     92  C        -31.8950   77.4130   14.2720 C.2   197  CYS197      0.2296
     93  O        -32.2460   77.3460   13.0910 O.2   197  CYS197     -0.2864
     94  CB       -31.3850   79.6440   15.1130 C.3   197  CYS197      0.0983
     95  SG       -30.1830   80.9580   15.1520 S.3   197  CYS197     -0.0798
     96  N        -37.2640   82.7980   12.2360 N.3   201  TYR201     -0.1227
     97  CA       -37.2210   84.2450   12.4260 C.3   201  TYR201      0.1736
     98  C        -38.3130   84.8860   11.6060 C.2   201  TYR201      0.2595
     99  O        -38.5690   84.4500   10.4890 O.2   201  TYR201     -0.2718
    100  CB       -35.8520   84.7780   11.9870 C.3   201  TYR201      0.0548
    101  CG       -34.7870   84.4690   13.0020 C.ar  201  TYR201     -0.0200
    102  CD1      -34.1660   83.2170   13.0410 C.ar  201  TYR201     -0.0009
    103  CD2      -34.4220   85.4130   13.9390 C.ar  201  TYR201     -0.0009
    104  CE1      -33.2000   82.9340   13.9990 C.ar  201  TYR201      0.0417
    105  CE2      -33.4690   85.1480   14.8790 C.ar  201  TYR201      0.0417
    106  CZ       -32.8630   83.9110   14.9150 C.ar  201  TYR201      0.1957
    107  OH       -31.9100   83.6740   15.8790 O.3   201  TYR201     -0.2866
    108  N        -38.9530   85.9310   12.1270 N.am  202  VAL202     -0.1966
    109  CA       -40.0190   86.5690   11.3580 C.3   202  VAL202      0.1727
    110  C        -39.4670   87.5470   10.3240 C.2   202  VAL202      0.2616
    111  O        -38.7230   88.4630   10.6640 O.2   202  VAL202     -0.2715
    112  CB       -41.0650   87.2590   12.2460 C.3   202  VAL202      0.0290
    113  CG1      -42.1550   87.9150   11.3720 C.3   202  VAL202      0.0023
    114  CG2      -41.6890   86.2260   13.2150 C.3   202  VAL202      0.0023
    115  N        -39.8360   87.3340    9.0640 N.am  203  GLU203     -0.1977
    116  CA       -39.4520   88.2430    7.9850 C.3   203  GLU203      0.1602
    117  C        -40.6750   89.0170    7.4870 C.2   203  GLU203      0.2287
    118  O        -41.6880   88.4200    7.1060 O.2   203  GLU203     -0.2864
    119  CB       -38.8430   87.4350    6.8180 C.3   203  GLU203      0.0415
    120  CG       -38.6670   88.2370    5.5150 C.3   203  GLU203      0.1163
    121  CD       -38.4030   87.3390    4.3120 C.2   203  GLU203      0.3649
    122  OE1      -39.3490   86.6680    3.8140 O.co2 203  GLU203     -0.2457
    123  OE2      -37.2440   87.2990    3.8690 O.co2 203  GLU203     -0.2457
@<TRIPOS>BOND
     1    28    27    2
     2    27    29   am
     3    27    26    1
     4    26    25    1
     5    21    22    1
     6   122   121   ar
     7    25    22    1
     8   123   121   ar
     9    22    23    1
    10   121   120    1
    11    19    17   ar
    12    19    20   ar
    13    13    12    2
    14    12    11    1
    15    17    15   ar
    16    20    18   ar
    17    39    40   ar
    18    39    37   ar
    19   120   119    1
    20    23    24    2
    21    23    30   am
    22    40    38   ar
    23    15    14    1
    24    15    16   ar
    25    14    11    1
    26    11    10    1
    27    18    16   ar
    28    37    35   ar
    29    30    31    1
    30    38    36   ar
    31    80    78   ar
    32    80    82   ar
    33   119   116    1
    34    83    82    1
    35   118   117    2
    36    35    36   ar
    37    35    34    1
    38    78    77   ar
    39    82    81   ar
    40   117   116    1
    41    31    34    1
    42    31    32    1
    43   116   115    1
    44    33    32    2
    45    77    79   ar
    46    77    76    1
    47    81    79   ar
    48    32    41   am
    49    73    76    1
    50    73    72    1
    51    73    74    1
    52   115   110   am
    53     4     3    2
    54     3     2    1
    55    64    63   ar
    56    64    62   ar
    57    74    75    2
    58    63    61   ar
    59    41    42    1
    60   110   111    2
    61   110   109    1
    62    62    60   ar
    63    99    98    2
    64     2     5    1
    65     2     1    1
    66    42    43    1
    67     5     6    1
    68    61    58   ar
    69   109   108    1
    70   109   112    1
    71   113   112    1
    72    84    85    1
    73    98   108   am
    74    98    97    1
    75    60    58   ar
    76    60    59   ar
    77    44    43    2
    78   100    97    1
    79   100   101    1
    80    58    56   ar
    81    43    45   am
    82    96    97    1
    83   112   114    1
    84     6     7    1
    85     7     8    1
    86    85    88    1
    87    85    86    1
    88     9     8    1
    89    59    57   ar
    90   101   102   ar
    91   101   103   ar
    92   102   104   ar
    93    93    92    2
    94    88    89    1
    95    45    46    1
    96    89    95    1
    97    48    47    2
    98    56    57   ar
    99    56    55    1
   100    90    86   am
   101    90    91    1
   102    86    87    2
   103   103   105   ar
   104   104   106   ar
   105    47    51   am
   106    47    46    1
   107    52    55    1
   108    52    51    1
   109    52    53    1
   110    92    91    1
   111    54    53    2
   112    46    49    1
   113    91    94    1
   114    53    65   am
   115   105   106   ar
   116   106   107    1
   117    94    95    1
   118    49    50    1
   119    65    66    1
   120    66    67    1
   121    66    69    1
   122    70    69    1
   123    67    68    2
   124    69    71    1
