@<TRIPOS>MOLECULE
tmp/4afjB00.pdb
 155 146 0 0 0
SMALL
GASTEIGER

@<TRIPOS>ATOM
      1  N        109.9940   61.8590   52.9050 N.3    29  ILE29      -0.1245
      2  CA       110.4430   60.7790   52.0240 C.3    29  ILE29       0.1561
      3  C        111.0090   61.3150   50.6930 C.2    29  ILE29       0.2260
      4  O        111.6170   60.5640   49.9240 O.2    29  ILE29      -0.2867
      5  CB       109.3830   59.6510   51.8560 C.3    29  ILE29       0.0252
      6  CG1      108.0260   60.1980   51.3440 C.3    29  ILE29       0.0019
      7  CG2      109.2280   58.8430   53.1670 C.3    29  ILE29       0.0019
      8  CD1      107.1370   59.1810   50.6650 C.3    29  ILE29       0.0001
      9  N        110.2510   71.2700   43.5320 N.3    34  PHE34      -0.1241
     10  CA       108.7820   71.2180   43.5120 C.3    34  PHE34       0.1605
     11  C        108.1620   71.4670   44.8940 C.2    34  PHE34       0.2264
     12  O        107.0590   72.0150   44.9770 O.2    34  PHE34      -0.2867
     13  CB       108.2900   69.8520   42.9710 C.3    34  PHE34       0.0534
     14  CG       108.5430   68.6790   43.8930 C.ar   34  PHE34      -0.0203
     15  CD1      107.6320   68.3450   44.8890 C.ar   34  PHE34      -0.0042
     16  CD2      109.6890   67.9070   43.7620 C.ar   34  PHE34      -0.0042
     17  CE1      107.8980   67.3010   45.7780 C.ar   34  PHE34      -0.0003
     18  CE2      109.9370   66.8410   44.6340 C.ar   34  PHE34      -0.0003
     19  CZ       109.0530   66.5570   45.6430 C.ar   34  PHE34      -0.0000
     20  N        107.6930   65.8150   49.9970 N.3    37  VAL37      -0.1245
     21  CA       106.8010   64.6530   50.0270 C.3    37  VAL37       0.1561
     22  C        107.0040   63.9760   51.3750 C.2    37  VAL37       0.2260
     23  O        108.1460   63.7530   51.7920 O.2    37  VAL37      -0.2867
     24  CB       106.9280   63.6610   48.8350 C.3    37  VAL37       0.0252
     25  CG1      105.8250   62.5960   48.8860 C.3    37  VAL37       0.0019
     26  CG2      106.8740   64.3890   47.5030 C.3    37  VAL37       0.0019
     27  N        101.0590   59.1960   50.9740 N.3    50  ALA50      -0.1245
     28  CA       102.1350   60.1240   50.6560 C.3    50  ALA50       0.1562
     29  C        101.4840   61.4920   50.5950 C.2    50  ALA50       0.2260
     30  O        100.4100   61.6240   50.0120 O.2    50  ALA50      -0.2867
     31  CB       102.7940   59.7830   49.3200 C.3    50  ALA50       0.0290
     32  N        102.1570   65.1740   49.2850 N.3    52  LYS52      -0.1245
     33  CA       102.9790   66.0480   48.4500 C.3    52  LYS52       0.1561
     34  C        102.5660   67.4700   48.8040 C.2    52  LYS52       0.2260
     35  O        101.4020   67.8280   48.6250 O.2    52  LYS52      -0.2867
     36  CB       102.7650   65.7660   46.9520 C.3    52  LYS52       0.0271
     37  CG       103.6940   66.5740   46.0420 C.3    52  LYS52       0.0035
     38  CD       103.3710   66.3180   44.5620 C.3    52  LYS52       0.0206
     39  CE       104.2950   67.1120   43.6650 C.3    52  LYS52       0.1093
     40  NZ       104.0700   66.8100   42.2260 N.3    52  LYS52      -0.1314
     41  N         98.0970   70.6090   38.4600 N.3    60  GLU60      -0.1245
     42  CA        98.2680   69.2510   38.9470 C.3    60  GLU60       0.1567
     43  C         97.0260   68.7640   39.6590 C.2    60  GLU60       0.2260
     44  O         96.5660   67.6630   39.3750 O.2    60  GLU60      -0.2867
     45  CB        99.5450   69.1180   39.8050 C.3    60  GLU60       0.0388
     46  CG        99.7550   67.7530   40.4420 C.3    60  GLU60       0.1160
     47  CD       101.0840   67.5980   41.1690 C.2    60  GLU60       0.3649
     48  OE1      101.7250   68.6210   41.5040 O.co2  60  GLU60      -0.2457
     49  OE2      101.4690   66.4400   41.4380 O.co2  60  GLU60      -0.2457
     50  N         98.6510   56.5720   40.7740 N.3    73  VAL73      -0.1245
     51  CA        98.5790   56.9200   42.1900 C.3    73  VAL73       0.1561
     52  C         97.3220   57.7710   42.3940 C.2    73  VAL73       0.2260
     53  O         97.1560   58.7760   41.7300 O.2    73  VAL73      -0.2867
     54  CB        99.8750   57.6150   42.6880 C.3    73  VAL73       0.0252
     55  CG1       99.7290   58.0510   44.1420 C.3    73  VAL73       0.0019
     56  CG2      101.0550   56.6650   42.5590 C.3    73  VAL73       0.0019
     57  N         98.0410   61.3270   48.6760 N.3    95  LEU95      -0.1231
     58  CA        98.0950   60.2510   47.6840 C.3    95  LEU95       0.1693
     59  C         98.2450   58.9110   48.3280 C.2    95  LEU95       0.2592
     60  O         98.8060   58.8330   49.4150 O.2    95  LEU95      -0.2718
     61  CB        99.3190   60.4880   46.7780 C.3    95  LEU95       0.0284
     62  CG        99.3840   61.8650   46.0800 C.3    95  LEU95       0.0019
     63  CD1      100.7940   62.1800   45.6460 C.3    95  LEU95       0.0001
     64  CD2       98.3730   61.9820   44.9050 C.3    95  LEU95       0.0001
     65  N         97.8410   57.8330   47.6270 N.am   96  ASP96      -0.1960
     66  CA        98.1100   56.4780   48.1020 C.3    96  ASP96       0.1840
     67  C         99.6360   56.2910   48.1570 C.2    96  ASP96       0.2622
     68  O        100.3380   56.8030   47.2790 O.2    96  ASP96      -0.2715
     69  CB        97.4960   55.4310   47.1610 C.3    96  ASP96       0.1450
     70  CG        96.0150   55.1930   47.4080 C.2    96  ASP96       0.3671
     71  OD1       95.5770   55.3290   48.5680 O.co2  96  ASP96      -0.2456
     72  OD2       95.3050   54.8380   46.4490 O.co2  96  ASP96      -0.2456
     73  N        100.1460   55.6470   49.2310 N.am   97  TYR97      -0.1960
     74  CA       101.5710   55.4010   49.3830 C.3    97  TYR97       0.1771
     75  C        101.9510   54.1440   48.6000 C.2    97  TYR97       0.2619
     76  O        101.2140   53.1540   48.6180 O.2    97  TYR97      -0.2715
     77  CB       101.9540   55.2050   50.8660 C.3    97  TYR97       0.0574
     78  CG       103.4150   54.8640   51.0880 C.ar   97  TYR97      -0.0198
     79  CD1      104.3920   55.8550   51.0710 C.ar   97  TYR97      -0.0009
     80  CD2      103.8190   53.5500   51.3210 C.ar   97  TYR97      -0.0009
     81  CE1      105.7370   55.5490   51.2750 C.ar   97  TYR97       0.0417
     82  CE2      105.1650   53.2320   51.5320 C.ar   97  TYR97       0.0417
     83  CZ       106.1160   54.2390   51.5190 C.ar   97  TYR97       0.1957
     84  OH       107.4420   53.9600   51.7190 O.3    97  TYR97      -0.2866
     85  N        103.0810   54.2220   47.8770 N.am   98  VAL98      -0.1964
     86  CA       103.6620   53.1170   47.1070 C.3    98  VAL98       0.1712
     87  C        105.1360   53.0720   47.5600 C.2    98  VAL98       0.2458
     88  O        105.7960   54.1140   47.5440 O.2    98  VAL98      -0.2730
     89  CB       103.4870   53.2520   45.5740 C.3    98  VAL98       0.0289
     90  CG1      103.8310   51.9420   44.8700 C.3    98  VAL98       0.0023
     91  CG2      102.0610   53.6900   45.2000 C.3    98  VAL98       0.0023
     92  N        105.6380   51.9260   48.0730 N.am   99  PRO99      -0.2716
     93  CA       107.0020   51.9180   48.6470 C.3    99  PRO99       0.1536
     94  C        108.2150   52.0350   47.7230 C.2    99  PRO99       0.2598
     95  O        109.2530   52.5190   48.1720 O.2    99  PRO99      -0.2715
     96  CB       107.0350   50.6300   49.4760 C.3    99  PRO99       0.0310
     97  CG       106.0440   49.7570   48.8730 C.3    99  PRO99       0.0237
     98  CD       104.9750   50.6150   48.2440 C.3    99  PRO99       0.0939
     99  N        108.1070   51.5860   46.4730 N.am  100  GLU100     -0.1964
    100  CA       109.2460   51.5220   45.5570 C.3   100  GLU100      0.1733
    101  C        109.0770   52.2680   44.2560 C.2   100  GLU100      0.2617
    102  O        107.9900   52.7610   43.9640 O.2   100  GLU100     -0.2715
    103  CB       109.6230   50.0260   45.2870 C.3   100  GLU100      0.0429
    104  CG       110.4650   49.3980   46.3890 C.3   100  GLU100      0.1163
    105  CD       111.8430   50.0030   46.6020 C.2   100  GLU100      0.3649
    106  OE1      112.3640   50.6530   45.6640 O.co2 100  GLU100     -0.2457
    107  OE2      112.3850   49.8600   47.7230 O.co2 100  GLU100     -0.2457
    108  N        110.1660   52.3870   43.4820 N.am  101  THR101     -0.1951
    109  CA       110.1280   53.0390   42.1640 C.3   101  THR101      0.1897
    110  C        110.8020   52.1190   41.1420 C.2   101  THR101      0.2313
    111  O        111.5630   51.2370   41.5440 O.2   101  THR101     -0.2863
    112  CB       110.8180   54.4030   42.1530 C.3   101  THR101      0.1794
    113  OG1      112.1870   54.2190   42.4650 O.3   101  THR101     -0.2208
    114  CG2      110.1800   55.4280   43.0900 C.3   101  THR101      0.0378
    115  N        114.6790   52.7340   41.4550 N.3   104  ARG104     -0.1245
    116  CA       115.4060   52.0250   42.5320 C.3   104  ARG104      0.1563
    117  C        115.5780   50.5500   42.2030 C.2   104  ARG104      0.2260
    118  O        116.6550   50.0060   42.4120 O.2   104  ARG104     -0.2867
    119  CB       114.7090   52.2100   43.8880 C.3   104  ARG104      0.0307
    120  CG       114.8750   53.6200   44.4780 C.3   104  ARG104      0.0489
    121  CD       113.7010   54.0700   45.3440 C.3   104  ARG104      0.2205
    122  NE       113.4380   53.1580   46.4590 N.pl3 104  ARG104     -0.0865
    123  CZ       113.9020   53.3220   47.6910 C.cat 104  ARG104      0.5346
    124  NH1      114.6440   54.3800   47.9940 N.pl3 104  ARG104      0.1354
    125  NH2      113.6190   52.4340   48.6350 N.pl3 104  ARG104      0.1354
    126  N        109.2880   58.3090   38.3790 N.3   149  ASN149     -0.1240
    127  CA       107.8410   58.5760   38.4430 C.3   149  ASN149      0.1653
    128  C        106.9970   57.3410   38.2310 C.2   149  ASN149      0.2266
    129  O        105.7740   57.4350   38.0830 O.2   149  ASN149     -0.2867
    130  CB       107.4460   59.6970   37.4540 C.3   149  ASN149      0.1155
    131  CG       107.9890   61.0480   37.8870 C.2   149  ASN149      0.2627
    132  OD1      108.3360   61.2580   39.0470 O.2   149  ASN149     -0.2716
    133  ND2      108.1120   61.9750   36.9660 N.am  149  ASN149     -0.0877
    134  N        105.9440   54.2460   40.1780 N.3   151  LEU151     -0.1245
    135  CA       105.9670   53.6290   41.4870 C.3   151  LEU151      0.1561
    136  C        105.6250   52.1620   41.4280 C.2   151  LEU151      0.2260
    137  O        104.7560   51.7750   40.6480 O.2   151  LEU151     -0.2867
    138  CB       105.0340   54.3610   42.4340 C.3   151  LEU151      0.0270
    139  CG       105.2200   55.8760   42.5680 C.3   151  LEU151      0.0019
    140  CD1      104.2830   56.4020   43.5610 C.3   151  LEU151      0.0001
    141  CD2      106.6290   56.2340   42.9890 C.3   151  LEU151      0.0001
    142  N        103.0740   58.3300   38.8400 N.3   162  CYS162     -0.1221
    143  CA       102.9160   59.4370   39.7910 C.3   162  CYS162      0.1808
    144  C        103.4900   60.7480   39.2440 C.2   162  CYS162      0.2601
    145  O        104.0780   60.7830   38.1550 O.2   162  CYS162     -0.2717
    146  CB       103.5310   59.0880   41.1410 C.3   162  CYS162      0.0970
    147  SG       105.3430   59.2280   41.1930 S.3   162  CYS162     -0.0800
    148  N        103.3540   61.8060   40.0680 N.am  163  ASP163     -0.1973
    149  CA       103.8620   63.1540   39.8590 C.3   163  ASP163      0.1709
    150  C        103.3550   63.7790   38.5840 C.2   163  ASP163      0.2293
    151  O        104.0430   63.7560   37.5600 O.2   163  ASP163     -0.2864
    152  CB       105.4130   63.2110   39.9530 C.3   163  ASP163      0.1436
    153  CG       105.9390   64.6430   39.8510 C.2   163  ASP163      0.3671
    154  OD1      105.1250   65.5890   39.9760 O.co2 163  ASP163     -0.2456
    155  OD2      107.1290   64.8130   39.5560 O.co2 163  ASP163     -0.2456
@<TRIPOS>BOND
     1   133   131   am
     2   130   131    1
     3   130   127    1
     4   151   150    2
     5   131   132    2
     6   129   128    2
     7   145   144    2
     8   128   127    1
     9   126   127    1
    10    41    42    1
    11   150   149    1
    12   142   143    1
    13    42    43    1
    14    42    45    1
    15   144   143    1
    16   144   148   am
    17    44    43    2
    18   155   153   ar
    19   143   146    1
    20    45    46    1
    21   153   152    1
    22   153   154   ar
    23   149   152    1
    24   149   148    1
    25   134   135    1
    26    46    47    1
    27   137   136    2
    28    50    51    1
    29   146   147    1
    30   110   111    2
    31   110   109    1
    32    47    49   ar
    33    47    48   ar
    34   136   135    1
    35   115   116    1
    36   135   138    1
    37    53    52    2
    38   112   109    1
    39   112   113    1
    40   112   114    1
    41   109   108    1
    42    51    52    1
    43    51    54    1
    44   117   118    2
    45   117   116    1
    46    40    39    1
    47   138   139    1
    48   116   119    1
    49    56    54    1
    50   139   141    1
    51   139   140    1
    52    54    55    1
    53    13    10    1
    54    13    14    1
    55   108   101   am
    56    10     9    1
    57    10    11    1
    58    39    38    1
    59    16    14   ar
    60    16    18   ar
    61   119   120    1
    62    14    15   ar
    63   102   101    2
    64   101   100    1
    65   120   121    1
    66    38    37    1
    67    18    19   ar
    68    90    89    1
    69    15    17   ar
    70    11    12    2
    71    64    62    1
    72    91    89    1
    73   103   100    1
    74   103   104    1
    75   121   122    1
    76   100    99    1
    77    89    86    1
    78    19    17   ar
    79    63    62    1
    80   106   105   ar
    81    37    36    1
    82    62    61    1
    83   104   105    1
    84    72    70   ar
    85   122   123    2
    86    99    94   am
    87   105   107   ar
    88    61    58    1
    89    36    33    1
    90    86    87    1
    91    86    85    1
    92    69    70    1
    93    69    66    1
    94    68    67    2
    95    70    71   ar
    96    26    24    1
    97    88    87    2
    98    87    92   am
    99    65    66    1
   100    65    59   am
   101    58    59    1
   102    58    57    1
   103   123   124    1
   104   123   125    1
   105    94    95    2
   106    94    93    1
   107    85    75   am
   108    92    98    1
   109    92    93    1
   110    66    67    1
   111    67    73   am
   112    98    97    1
   113    59    60    2
   114    33    34    1
   115    33    32    1
   116    75    76    2
   117    75    74    1
   118    35    34    2
   119    93    96    1
   120    24    25    1
   121    24    21    1
   122    97    96    1
   123    73    74    1
   124    31    28    1
   125    74    77    1
   126     4     3    2
   127    20    21    1
   128    30    29    2
   129    21    22    1
   130    29    28    1
   131    28    27    1
   132     8     6    1
   133     3     2    1
   134    77    78    1
   135    79    78   ar
   136    79    81   ar
   137    78    80   ar
   138    81    83   ar
   139    80    82   ar
   140     6     5    1
   141    22    23    2
   142    83    82   ar
   143    83    84    1
   144     5     2    1
   145     5     7    1
   146     2     1    1
