@<TRIPOS>MOLECULE
tmp/4afkA07.pdb
 95 90 0 0 0
SMALL
GASTEIGER

@<TRIPOS>ATOM
      1  N         25.4020  -26.1170   47.1050 N.3    94  LEU94      -0.1245
      2  CA        26.8220  -26.3260   46.7290 C.3    94  LEU94       0.1561
      3  C         27.7790  -25.7880   47.8130 C.2    94  LEU94       0.2260
      4  O         28.7850  -26.4090   48.1230 O.2    94  LEU94      -0.2867
      5  CB        27.1450  -25.6850   45.3640 C.3    94  LEU94       0.0270
      6  CG        26.3630  -26.2980   44.1940 C.3    94  LEU94       0.0019
      7  CD1       26.5190  -25.5160   42.8890 C.3    94  LEU94       0.0001
      8  CD2       26.7870  -27.7350   43.9940 C.3    94  LEU94       0.0001
      9  N         22.3210  -21.9960   42.5870 N.3   102  LEU102     -0.1245
     10  CA        22.3140  -22.3410   41.1800 C.3   102  LEU102      0.1561
     11  C         20.8720  -22.4260   40.7350 C.2   102  LEU102      0.2260
     12  O         20.0630  -23.1540   41.3520 O.2   102  LEU102     -0.2867
     13  CB        23.0040  -23.7020   40.9970 C.3   102  LEU102      0.0270
     14  CG        23.1110  -24.2700   39.5870 C.3   102  LEU102      0.0019
     15  CD1       23.8640  -23.3200   38.6600 C.3   102  LEU102      0.0001
     16  CD2       23.7660  -25.6630   39.6260 C.3   102  LEU102      0.0001
     17  N         24.6280  -19.6090   37.7340 N.3   126  TRP126     -0.1241
     18  CA        25.2170  -19.7020   39.0610 C.3   126  TRP126      0.1605
     19  C         25.5240  -18.3140   39.6510 C.2   126  TRP126      0.2264
     20  O         26.1730  -17.4850   39.0100 O.2   126  TRP126     -0.2867
     21  CB        26.4800  -20.5680   39.0220 C.3   126  TRP126      0.0550
     22  CG        27.0420  -20.7950   40.4250 C.ar  126  TRP126      0.0003
     23  CD1       26.4680  -21.5170   41.4480 C.ar  126  TRP126      0.0946
     24  CD2       28.2730  -20.2770   40.9430 C.ar  126  TRP126      0.0152
     25  NE1       27.2730  -21.4670   42.5700 N.ar  126  TRP126     -0.2442
     26  CE2       28.3890  -20.7220   42.2800 C.ar  126  TRP126      0.0810
     27  CE3       29.2910  -19.4800   40.4040 C.ar  126  TRP126      0.0012
     28  CZ2       29.4880  -20.3900   43.0870 C.ar  126  TRP126      0.0191
     29  CZ3       30.3770  -19.1480   41.2110 C.ar  126  TRP126      0.0001
     30  CH2       30.4670  -19.6110   42.5340 C.ar  126  TRP126      0.0015
     31  N         28.0890  -16.9910   36.7260 N.3   137  ALA137     -0.1231
     32  CA        28.3880  -17.6680   35.4650 C.3   137  ALA137      0.1694
     33  C         27.1160  -18.3500   35.0090 C.2   137  ALA137      0.2592
     34  O         26.4260  -18.9840   35.8070 O.2   137  ALA137     -0.2718
     35  CB        29.4880  -18.7150   35.6540 C.3   137  ALA137      0.0304
     36  N         26.8410  -18.2890   33.7150 N.am  138  GLY138     -0.1957
     37  CA        25.6330  -18.9030   33.2100 C.3   138  GLY138      0.1869
     38  C         25.6210  -19.0670   31.7060 C.2   138  GLY138      0.2309
     39  O         26.5110  -18.5830   30.9890 O.2   138  GLY138     -0.2863
     40  N         26.6490  -17.2480   26.6870 N.3   163  VAL163     -0.1231
     41  CA        27.4230  -17.6890   27.8470 C.3   163  VAL163      0.1692
     42  C         28.0220  -16.4440   28.4900 C.2   163  VAL163      0.2592
     43  O         28.3990  -15.5050   27.7910 O.2   163  VAL163     -0.2718
     44  CB        28.5400  -18.6910   27.4420 C.3   163  VAL163      0.0266
     45  CG1       29.3380  -19.1390   28.6540 C.3   163  VAL163      0.0020
     46  CG2       27.9450  -19.8950   26.7110 C.3   163  VAL163      0.0020
     47  N         28.0960  -16.4020   29.8160 N.am  164  PHE164     -0.1962
     48  CA        28.5230  -15.1660   30.4500 C.3   164  PHE164      0.1771
     49  C         29.0060  -15.3980   31.8670 C.2   164  PHE164      0.2620
     50  O         28.7140  -16.4310   32.4870 O.2   164  PHE164     -0.2715
     51  CB        27.3380  -14.1840   30.4590 C.3   164  PHE164      0.0574
     52  CG        26.0330  -14.8670   30.7890 C.ar  164  PHE164     -0.0200
     53  CD1       25.6800  -15.1260   32.0980 C.ar  164  PHE164     -0.0042
     54  CD2       25.2150  -15.3420   29.7680 C.ar  164  PHE164     -0.0042
     55  CE1       24.4870  -15.7980   32.3860 C.ar  164  PHE164     -0.0003
     56  CE2       24.0510  -16.0160   30.0480 C.ar  164  PHE164     -0.0003
     57  CZ        23.6880  -16.2350   31.3670 C.ar  164  PHE164     -0.0000
     58  N         29.7500  -14.4240   32.3790 N.am  165  GLY165     -0.1954
     59  CA        30.2820  -14.5440   33.7200 C.3   165  GLY165      0.1869
     60  C         30.7730  -13.2050   34.2120 C.2   165  GLY165      0.2309
     61  O         30.9740  -12.2740   33.4350 O.2   165  GLY165     -0.2863
     62  N         32.1860  -10.7970   31.3610 N.3   181  ILE181     -0.1245
     63  CA        32.3000  -11.3120   30.0110 C.3   181  ILE181      0.1561
     64  C         30.9580  -11.8360   29.5140 C.2   181  ILE181      0.2260
     65  O         30.1380  -12.3400   30.3020 O.2   181  ILE181     -0.2867
     66  CB        33.3890  -12.3940   29.9260 C.3   181  ILE181      0.0252
     67  CG1       33.6510  -12.7760   28.4630 C.3   181  ILE181      0.0019
     68  CG2       32.9870  -13.6270   30.7560 C.3   181  ILE181      0.0019
     69  CD1       34.9290  -13.5420   28.2800 C.3   181  ILE181      0.0001
     70  N         29.3710  -13.9240   25.8370 N.3   183  HIS183     -0.1241
     71  CA        29.6170  -14.4240   24.4750 C.3   183  HIS183      0.1621
     72  C         28.3120  -14.8700   23.8520 C.2   183  HIS183      0.2264
     73  O         27.5540  -15.5900   24.4730 O.2   183  HIS183     -0.2867
     74  CB        30.5960  -15.5990   24.4970 C.3   183  HIS183      0.0745
     75  CG        30.9240  -16.1410   23.1340 C.ar  183  HIS183      0.0817
     76  ND1       31.7880  -15.5020   22.2670 N.ar  183  HIS183     -0.2268
     77  CD2       30.5040  -17.2560   22.4920 C.ar  183  HIS183      0.1154
     78  CE1       31.8850  -16.2020   21.1500 C.ar  183  HIS183      0.1986
     79  NE2       31.1150  -17.2690   21.2600 N.ar  183  HIS183     -0.2212
     80  N         29.4910  -14.4840   15.9730 N.3   207  GLN207     -0.1245
     81  CA        30.1000  -15.0050   17.1870 C.3   207  GLN207      0.1566
     82  C         30.7740  -13.8180   17.8520 C.2   207  GLN207      0.2260
     83  O         31.7500  -13.2620   17.3320 O.2   207  GLN207     -0.2867
     84  CB        31.0790  -16.1760   16.9230 C.3   207  GLN207      0.0367
     85  CG        32.3590  -15.8550   16.1650 C.3   207  GLN207      0.0905
     86  CD        33.5470  -15.4460   17.0700 C.2   207  GLN207      0.2608
     87  OE1       33.4790  -15.5440   18.3020 O.2   207  GLN207     -0.2717
     88  NE2       34.6390  -14.9810   16.4420 N.am  207  GLN207     -0.0878
     89  N         31.9790  -11.4810   21.4230 N.3   209  THR209     -0.1218
     90  CA        32.4530  -11.5220   22.8100 C.3   209  THR209      0.1862
     91  C         32.6010  -10.1070   23.3230 C.2   209  THR209      0.2287
     92  O         33.2740   -9.2750   22.7050 O.2   209  THR209     -0.2866
     93  CB        33.8070  -12.2280   22.9080 C.3   209  THR209      0.1770
     94  OG1       33.6840  -13.5360   22.3330 O.3   209  THR209     -0.2211
     95  CG2       34.2990  -12.3440   24.3900 C.3   209  THR209      0.0375
@<TRIPOS>BOND
     1    80    81    1
     2    85    84    1
     3    85    86    1
     4    88    86   am
     5    84    81    1
     6    86    87    2
     7    81    82    1
     8    83    82    2
     9    78    79   ar
    10    78    76   ar
    11    79    77   ar
    12    89    90    1
    13    76    75   ar
    14    94    93    1
    15    77    75   ar
    16    92    91    2
    17    90    93    1
    18    90    91    1
    19    93    95    1
    20    75    74    1
    21    72    73    2
    22    72    71    1
    23    71    74    1
    24    71    70    1
    25    40    41    1
    26    46    44    1
    27    44    41    1
    28    44    45    1
    29    43    42    2
    30    41    42    1
    31    69    67    1
    32    67    66    1
    33    42    47   am
    34    64    63    1
    35    64    65    2
    36    54    56   ar
    37    54    52   ar
    38    47    48    1
    39    66    63    1
    40    66    68    1
    41    63    62    1
    42    56    57   ar
    43    48    51    1
    44    48    49    1
    45    51    52    1
    46    52    53   ar
    47    39    38    2
    48    57    55   ar
    49    38    37    1
    50    49    58   am
    51    49    50    2
    52    53    55   ar
    53    58    59    1
    54    37    36    1
    55    61    60    2
    56    36    33   am
    57    59    60    1
    58    33    32    1
    59    33    34    2
    60    32    35    1
    61    32    31    1
    62    17    18    1
    63    15    14    1
    64    20    19    2
    65    21    18    1
    66    21    22    1
    67    18    19    1
    68    14    16    1
    69    14    13    1
    70    27    24   ar
    71    27    29   ar
    72    22    24   ar
    73    22    23   ar
    74    11    10    1
    75    11    12    2
    76    24    26   ar
    77    13    10    1
    78    10     9    1
    79    29    30   ar
    80    23    25   ar
    81    26    25   ar
    82    26    28   ar
    83    30    28   ar
    84     7     6    1
    85     8     6    1
    86     6     5    1
    87     5     2    1
    88     2     1    1
    89     2     3    1
    90     3     4    2
