@<TRIPOS>MOLECULE
tmp/4afkA12.pdb
 104 101 0 0 0
SMALL
GASTEIGER

@<TRIPOS>ATOM
      1  N         22.6940   -3.1410   31.4040 N.3   115  GLN115     -0.1231
      2  CA        23.2530   -2.9920   30.0560 C.3   115  GLN115      0.1698
      3  C         23.7980   -4.2780   29.4390 C.2   115  GLN115      0.2592
      4  O         24.1680   -4.3040   28.2660 O.2   115  GLN115     -0.2718
      5  CB        24.3120   -1.8960   30.0260 C.3   115  GLN115      0.0381
      6  CG        23.6960   -0.5360   30.3280 C.3   115  GLN115      0.0905
      7  CD        24.7380    0.5750   30.4590 C.2   115  GLN115      0.2608
      8  OE1       25.9340    0.3420   30.3130 O.2   115  GLN115     -0.2717
      9  NE2       24.2770    1.7830   30.7450 N.am  115  GLN115     -0.0878
     10  N         23.8180   -5.3430   30.2220 N.am  116  TRP116     -0.1976
     11  CA        24.3340   -6.6320   29.7340 C.3   116  TRP116      0.1640
     12  C         23.2420   -7.6740   29.7520 C.2   116  TRP116      0.2290
     13  O         23.0690   -8.4360   28.7940 O.2   116  TRP116     -0.2864
     14  CB        25.4340   -7.1550   30.6490 C.3   116  TRP116      0.0576
     15  CG        26.7080   -6.3670   30.6160 C.ar  116  TRP116      0.0006
     16  CD1       26.9160   -5.1060   31.1150 C.ar  116  TRP116      0.0946
     17  CD2       27.9530   -6.7930   30.0510 C.ar  116  TRP116      0.0152
     18  NE1       28.2260   -4.7340   30.9100 N.ar  116  TRP116     -0.2442
     19  CE2       28.8830   -5.7500   30.2600 C.ar  116  TRP116      0.0810
     20  CE3       28.3820   -7.9810   29.4190 C.ar  116  TRP116      0.0012
     21  CZ2       30.2180   -5.8370   29.8460 C.ar  116  TRP116      0.0191
     22  CZ3       29.7070   -8.0760   29.0150 C.ar  116  TRP116      0.0001
     23  CH2       30.6130   -6.9970   29.2290 C.ar  116  TRP116      0.0015
     24  N         31.9480   -9.8400   24.4450 N.3   210  TRP210     -0.1241
     25  CA        32.0690   -8.5710   25.1540 C.3   210  TRP210      0.1605
     26  C         32.9530   -8.7990   26.3810 C.2   210  TRP210      0.2264
     27  O         32.7330   -9.7450   27.1730 O.2   210  TRP210     -0.2867
     28  CB        30.6900   -8.0750   25.6410 C.3   210  TRP210      0.0550
     29  CG        29.7250   -7.6540   24.5760 C.ar  210  TRP210      0.0003
     30  CD1       29.4570   -6.3550   24.1760 C.ar  210  TRP210      0.0946
     31  CD2       28.8760   -8.4990   23.7740 C.ar  210  TRP210      0.0152
     32  NE1       28.5050   -6.3570   23.1650 N.ar  210  TRP210     -0.2442
     33  CE2       28.1300   -7.6500   22.9070 C.ar  210  TRP210      0.0810
     34  CE3       28.6700   -9.8810   23.7010 C.ar  210  TRP210      0.0012
     35  CZ2       27.2160   -8.1510   21.9770 C.ar  210  TRP210      0.0191
     36  CZ3       27.7690  -10.3780   22.7900 C.ar  210  TRP210      0.0001
     37  CH2       27.0460   -9.5150   21.9290 C.ar  210  TRP210      0.0015
     38  N         32.4510    2.3800   33.2080 N.3   233  SER233     -0.1217
     39  CA        32.6630    1.0870   32.6030 C.3   233  SER233      0.1889
     40  C         33.1880    1.2290   31.1880 C.2   233  SER233      0.2288
     41  O         32.8830    2.2020   30.4850 O.2   233  SER233     -0.2866
     42  CB        31.3850    0.2700   32.6530 C.3   233  SER233      0.2089
     43  OG        30.4160    0.8610   31.8410 O.3   233  SER233     -0.2183
     44  N         33.9470   -1.3320   27.7460 N.3   235  THR235     -0.1218
     45  CA        33.6200   -2.6620   27.2350 C.3   235  THR235      0.1862
     46  C         34.1470   -2.8000   25.8240 C.2   235  THR235      0.2287
     47  O         33.9060   -1.9320   24.9920 O.2   235  THR235     -0.2866
     48  CB        32.1140   -2.8950   27.2350 C.3   235  THR235      0.1770
     49  OG1       31.6150   -2.7070   28.5680 O.3   235  THR235     -0.2211
     50  CG2       31.7600   -4.3380   26.6930 C.3   235  THR235      0.0375
     51  N         32.7110    0.3980   23.9030 N.3   267  GLY267     -0.1210
     52  CA        31.6570    1.1530   24.5550 C.3   267  GLY267      0.1956
     53  C         32.0930    1.6620   25.9170 C.2   267  GLY267      0.2612
     54  O         32.8930    1.0190   26.6040 O.2   267  GLY267     -0.2717
     55  N         31.5710    2.8190   26.3070 N.am  268  VAL268     -0.1965
     56  CA        31.9120    3.3980   27.6030 C.3   268  VAL268      0.1727
     57  C         30.6700    4.0810   28.1730 C.2   268  VAL268      0.2616
     58  O         29.8440    4.6110   27.4350 O.2   268  VAL268     -0.2715
     59  CB        33.0840    4.4120   27.4930 C.3   268  VAL268      0.0290
     60  CG1       32.7020    5.5890   26.6020 C.3   268  VAL268      0.0023
     61  CG2       33.4790    4.9480   28.8860 C.3   268  VAL268      0.0023
     62  N         30.5390    4.0540   29.4930 N.am  269  ASP269     -0.1971
     63  CA        29.4320    4.7030   30.1720 C.3   269  ASP269      0.1709
     64  C         29.9830    5.2360   31.5020 C.2   269  ASP269      0.2293
     65  O         30.6060    4.4880   32.2760 O.2   269  ASP269     -0.2864
     66  CB        28.3040    3.6940   30.4010 C.3   269  ASP269      0.1436
     67  CG        27.1180    4.2850   31.1760 C.2   269  ASP269      0.3671
     68  OD1       26.9600    5.5300   31.2490 O.co2 269  ASP269     -0.2456
     69  OD2       26.3550    3.4810   31.7340 O.co2 269  ASP269     -0.2456
     70  N         29.6840   -0.9650   17.6200 N.3   300  PHE300     -0.1241
     71  CA        29.3380   -1.5730   18.8850 C.3   300  PHE300      0.1605
     72  C         27.8660   -2.0010   18.8330 C.2   300  PHE300      0.2264
     73  O         27.0440   -1.3720   18.1510 O.2   300  PHE300     -0.2867
     74  CB        29.5790   -0.5710   20.0220 C.3   300  PHE300      0.0534
     75  CG        29.6290   -1.1980   21.3950 C.ar  300  PHE300     -0.0203
     76  CD1       30.7760   -1.8540   21.8450 C.ar  300  PHE300     -0.0042
     77  CD2       28.5300   -1.1100   22.2370 C.ar  300  PHE300     -0.0042
     78  CE1       30.8150   -2.4310   23.1450 C.ar  300  PHE300     -0.0003
     79  CE2       28.5460   -1.6870   23.5330 C.ar  300  PHE300     -0.0003
     80  CZ        29.6880   -2.3620   23.9760 C.ar  300  PHE300     -0.0000
     81  N         24.8730   -4.1030   21.7400 N.3   302  GLN302     -0.1231
     82  CA        24.7380   -4.7540   23.0360 C.3   302  GLN302      0.1698
     83  C         24.3570   -6.2230   22.8770 C.2   302  GLN302      0.2592
     84  O         24.1540   -6.6950   21.7580 O.2   302  GLN302     -0.2718
     85  CB        23.7560   -3.9640   23.9140 C.3   302  GLN302      0.0381
     86  CG        24.2980   -2.5660   24.2410 C.3   302  GLN302      0.0905
     87  CD        23.3570   -1.7570   25.1230 C.2   302  GLN302      0.2608
     88  OE1       22.6740   -0.8410   24.6400 O.2   302  GLN302     -0.2717
     89  NE2       23.3210   -2.0810   26.4270 N.am  302  GLN302     -0.0878
     90  N         24.2570   -6.9500   23.9940 N.am  303  THR303     -0.1953
     91  CA        24.1250   -8.3990   23.9490 C.3   303  THR303      0.1897
     92  C         22.7970   -8.8710   23.3740 C.2   303  THR303      0.2313
     93  O         22.6990  -10.0080   22.9000 O.2   303  THR303     -0.2863
     94  CB        24.1730   -8.9960   25.3690 C.3   303  THR303      0.1794
     95  OG1       23.0930   -8.4190   26.1250 O.3   303  THR303     -0.2208
     96  CG2       25.5260   -8.6760   26.0620 C.3   303  THR303      0.0378
     97  N         23.1090    1.2500   22.9490 N.3   330  LEU330     -0.1245
     98  CA        24.4270    1.8720   22.8590 C.3   330  LEU330      0.1561
     99  C         25.1510    1.3390   21.6120 C.2   330  LEU330      0.2260
    100  O         25.8510    0.3350   21.6600 O.2   330  LEU330     -0.2867
    101  CB        25.2290    1.6180   24.1500 C.3   330  LEU330      0.0270
    102  CG        26.3920    2.5830   24.4250 C.3   330  LEU330      0.0019
    103  CD1       25.9480    4.0350   24.4290 C.3   330  LEU330      0.0001
    104  CD2       27.0910    2.2600   25.7340 C.3   330  LEU330      0.0001
@<TRIPOS>BOND
     1    70    71    1
     2    73    72    2
     3    72    71    1
     4    71    74    1
     5    74    75    1
     6    75    76   ar
     7    75    77   ar
     8    99   100    2
     9    99    98    1
    10    81    82    1
    11    84    83    2
    12    76    78   ar
    13    37    35   ar
    14    37    36   ar
    15    35    33   ar
    16    77    79   ar
    17    36    34   ar
    18    98    97    1
    19    98   101    1
    20    83    82    1
    21    83    90   am
    22    93    92    2
    23    33    32   ar
    24    33    31   ar
    25    82    85    1
    26    78    80   ar
    27    32    30   ar
    28    92    91    1
    29    79    80   ar
    30    34    31   ar
    31    31    29   ar
    32    51    52    1
    33    85    86    1
    34    91    90    1
    35    91    94    1
    36   101   102    1
    37    30    29   ar
    38    86    87    1
    39   102   103    1
    40   102   104    1
    41    24    25    1
    42    52    53    1
    43    29    28    1
    44    88    87    2
    45    47    46    2
    46    87    89   am
    47    25    28    1
    48    25    26    1
    49    94    96    1
    50    94    95    1
    51    46    45    1
    52    53    55   am
    53    53    54    2
    54    55    56    1
    55    26    27    2
    56    60    59    1
    57    50    48    1
    58    48    45    1
    59    48    49    1
    60    45    44    1
    61    58    57    2
    62    59    56    1
    63    59    61    1
    64    56    57    1
    65    57    62   am
    66     4     3    2
    67    13    12    2
    68    22    23   ar
    69    22    20   ar
    70    23    21   ar
    71    20    17   ar
    72     3     2    1
    73     3    10   am
    74    62    63    1
    75    11    12    1
    76    11    10    1
    77    11    14    1
    78    21    19   ar
    79     5     2    1
    80     5     6    1
    81    17    19   ar
    82    17    15   ar
    83     2     1    1
    84    63    66    1
    85    63    64    1
    86    19    18   ar
    87     8     7    2
    88     6     7    1
    89    66    67    1
    90     7     9   am
    91    41    40    2
    92    15    14    1
    93    15    16   ar
    94    18    16   ar
    95    67    68   ar
    96    67    69   ar
    97    40    39    1
    98    64    65    2
    99    43    42    1
   100    39    42    1
   101    39    38    1
