@<TRIPOS>MOLECULE
tmp/4afkA04.pdb
 99 96 0 0 0
SMALL
GASTEIGER

@<TRIPOS>ATOM
      1  N          9.7520  -19.9690   35.2400 N.3    87  PHE87      -0.1241
      2  CA         9.5690  -21.3080   35.7830 C.3    87  PHE87       0.1605
      3  C         10.9580  -21.8660   36.0330 C.2    87  PHE87       0.2264
      4  O         11.7400  -22.0750   35.1110 O.2    87  PHE87      -0.2867
      5  CB         8.7160  -22.2050   34.8760 C.3    87  PHE87       0.0534
      6  CG         8.9900  -22.0520   33.3970 C.ar   87  PHE87      -0.0203
      7  CD1        8.3240  -21.0860   32.6420 C.ar   87  PHE87      -0.0042
      8  CD2        9.8620  -22.9150   32.7560 C.ar   87  PHE87      -0.0042
      9  CE1        8.5250  -20.9540   31.2520 C.ar   87  PHE87      -0.0003
     10  CE2       10.0940  -22.7900   31.3690 C.ar   87  PHE87      -0.0003
     11  CZ         9.4160  -21.8020   30.6150 C.ar   87  PHE87      -0.0000
     12  N         18.0160  -23.0130   37.5760 N.3   104  PHE104     -0.1227
     13  CA        17.7510  -23.6550   36.2760 C.3   104  PHE104      0.1736
     14  C         16.2940  -23.4660   35.7950 C.2   104  PHE104      0.2596
     15  O         15.3490  -23.9060   36.4550 O.2   104  PHE104     -0.2718
     16  CB        18.0550  -25.1500   36.4070 C.3   104  PHE104      0.0547
     17  CG        17.9210  -25.9110   35.1240 C.ar  104  PHE104     -0.0202
     18  CD1       18.6770  -25.5660   34.0160 C.ar  104  PHE104     -0.0042
     19  CD2       17.0380  -26.9740   35.0280 C.ar  104  PHE104     -0.0042
     20  CE1       18.5600  -26.2800   32.8230 C.ar  104  PHE104     -0.0003
     21  CE2       16.9090  -27.6870   33.8490 C.ar  104  PHE104     -0.0003
     22  CZ        17.6780  -27.3350   32.7360 C.ar  104  PHE104     -0.0000
     23  N         16.1030  -22.8440   34.6310 N.am  105  GLY105     -0.1957
     24  CA        14.7510  -22.6750   34.0890 C.3   105  GLY105      0.1869
     25  C         14.5910  -21.2990   33.4780 C.2   105  GLY105      0.2309
     26  O         15.5810  -20.5780   33.3170 O.2   105  GLY105     -0.2863
     27  N         15.2710  -18.6320   29.4580 N.3   122  GLU122     -0.1231
     28  CA        15.7070  -19.9830   29.8440 C.3   122  GLU122      0.1699
     29  C         17.2290  -19.9900   30.0560 C.2   122  GLU122      0.2592
     30  O         17.9930  -19.6200   29.1500 O.2   122  GLU122     -0.2718
     31  CB        15.3150  -21.0080   28.7670 C.3   122  GLU122      0.0402
     32  CG        13.8200  -20.9530   28.3380 C.3   122  GLU122      0.1161
     33  CD        13.5770  -20.0670   27.1150 C.2   122  GLU122      0.3649
     34  OE1       13.7980  -18.8350   27.2130 O.co2 122  GLU122     -0.2457
     35  OE2       13.1600  -20.6080   26.0650 O.co2 122  GLU122     -0.2457
     36  N         17.6750  -20.3810   31.2510 N.am  123  ALA123     -0.1966
     37  CA        19.0890  -20.3030   31.5750 C.3   123  ALA123      0.1728
     38  C         19.4590  -21.3060   32.6490 C.2   123  ALA123      0.2616
     39  O         18.6080  -21.8020   33.3700 O.2   123  ALA123     -0.2715
     40  CB        19.4630  -18.8750   32.0850 C.3   123  ALA123      0.0334
     41  N         20.7480  -21.5700   32.7470 N.am  124  LEU124     -0.1977
     42  CA        21.3280  -22.1840   33.9250 C.3   124  LEU124      0.1596
     43  C         22.3100  -21.1340   34.4100 C.2   124  LEU124      0.2287
     44  O         23.2350  -20.7730   33.6920 O.2   124  LEU124     -0.2864
     45  CB        22.0450  -23.4860   33.5640 C.3   124  LEU124      0.0297
     46  CG        22.8860  -24.1000   34.6920 C.3   124  LEU124      0.0022
     47  CD1       21.9840  -24.5240   35.8490 C.3   124  LEU124      0.0001
     48  CD2       23.6740  -25.3050   34.1500 C.3   124  LEU124      0.0001
     49  N         24.6050  -19.7820   31.2580 N.3   139  VAL139     -0.1231
     50  CA        24.3170  -19.9790   29.8430 C.3   139  VAL139      0.1692
     51  C         22.8220  -19.7790   29.6370 C.2   139  VAL139      0.2592
     52  O         22.0240  -20.1010   30.5440 O.2   139  VAL139     -0.2718
     53  CB        24.7600  -21.4110   29.3980 C.3   139  VAL139      0.0266
     54  CG1       24.0480  -22.4830   30.2250 C.3   139  VAL139      0.0020
     55  CG2       24.5070  -21.6310   27.9030 C.3   139  VAL139      0.0020
     56  N         22.4290  -19.2390   28.4700 N.am  140  ALA140     -0.1966
     57  CA        21.0240  -18.9820   28.2050 C.3   140  ALA140      0.1728
     58  C         20.7260  -19.0650   26.7210 C.2   140  ALA140      0.2616
     59  O         21.5960  -18.7510   25.8780 O.2   140  ALA140     -0.2715
     60  CB        20.6240  -17.5930   28.7280 C.3   140  ALA140      0.0334
     61  N         19.4850  -19.4400   26.4070 N.am  141  GLN141     -0.1977
     62  CA        19.0340  -19.4420   25.0160 C.3   141  GLN141      0.1601
     63  C         17.5190  -19.3440   24.9870 C.2   141  GLN141      0.2287
     64  O         16.8490  -19.9070   25.8560 O.2   141  GLN141     -0.2864
     65  CB        19.5130  -20.7240   24.2980 C.3   141  GLN141      0.0394
     66  CG        18.9320  -20.8440   22.8390 C.3   141  GLN141      0.0908
     67  CD        19.6670  -21.9000   22.0510 C.2   141  GLN141      0.2608
     68  OE1       20.6570  -22.4470   22.5260 O.2   141  GLN141     -0.2717
     69  NE2       19.2020  -22.1810   20.8420 N.am  141  GLN141     -0.0878
     70  N         14.0250  -20.5420   23.4820 N.3   143  PHE143     -0.1241
     71  CA        13.4400  -21.6500   22.7300 C.3   143  PHE143      0.1605
     72  C         11.9950  -21.3340   22.3510 C.2   143  PHE143      0.2264
     73  O         11.4570  -21.9110   21.4150 O.2   143  PHE143     -0.2867
     74  CB        13.5340  -22.9810   23.5120 C.3   143  PHE143      0.0534
     75  CG        14.9570  -23.3720   23.8520 C.ar  143  PHE143     -0.0203
     76  CD1       15.7780  -23.9620   22.8840 C.ar  143  PHE143     -0.0042
     77  CD2       15.4800  -23.1130   25.1030 C.ar  143  PHE143     -0.0042
     78  CE1       17.0870  -24.3010   23.1670 C.ar  143  PHE143     -0.0003
     79  CE2       16.7980  -23.4740   25.4190 C.ar  143  PHE143     -0.0003
     80  CZ        17.6060  -24.0590   24.4430 C.ar  143  PHE143     -0.0000
     81  N          6.8120  -18.4720   24.9430 N.3   146  TYR146     -0.1241
     82  CA         5.8220  -18.9530   25.9230 C.3   146  TYR146      0.1605
     83  C          4.6210  -18.0170   26.0210 C.2   146  TYR146      0.2264
     84  O          4.1440  -17.7040   27.1200 O.2   146  TYR146     -0.2867
     85  CB         6.4650  -19.1840   27.3210 C.3   146  TYR146      0.0534
     86  CG         7.6860  -20.0190   27.2020 C.ar  146  TYR146     -0.0201
     87  CD1        7.5880  -21.4120   27.1320 C.ar  146  TYR146     -0.0009
     88  CD2        8.9320  -19.4270   27.0540 C.ar  146  TYR146     -0.0009
     89  CE1        8.7130  -22.1970   26.9640 C.ar  146  TYR146      0.0417
     90  CE2       10.0830  -20.2030   26.8850 C.ar  146  TYR146      0.0417
     91  CZ         9.9620  -21.5900   26.8400 C.ar  146  TYR146      0.1957
     92  OH        11.0690  -22.3890   26.6660 O.3   146  TYR146     -0.2866
     93  N         22.9550  -18.7610   21.3090 N.3   161  THR161     -0.1218
     94  CA        23.3000  -19.1700   22.6760 C.3   161  THR161      0.1862
     95  C         24.1770  -18.1280   23.3550 C.2   161  THR161      0.2287
     96  O         25.1250  -17.6010   22.7560 O.2   161  THR161     -0.2866
     97  CB        24.0230  -20.5370   22.6850 C.3   161  THR161      0.1770
     98  OG1       23.2370  -21.4760   21.9440 O.3   161  THR161     -0.2211
     99  CG2       24.2010  -21.0780   24.1220 C.3   161  THR161      0.0375
@<TRIPOS>BOND
     1    69    67   am
     2    93    94    1
     3    73    72    2
     4    98    97    1
     5    67    68    2
     6    67    66    1
     7    72    71    1
     8    94    97    1
     9    94    95    1
    10    97    99    1
    11    71    70    1
    12    71    74    1
    13    96    95    2
    14    66    65    1
    15    76    78   ar
    16    76    75   ar
    17    78    80   ar
    18    74    75    1
    19    75    77   ar
    20    65    62    1
    21    80    79   ar
    22    81    82    1
    23    63    62    1
    24    63    64    2
    25    62    61    1
    26    77    79   ar
    27    59    58    2
    28    82    83    1
    29    82    85    1
    30    83    84    2
    31    35    33   ar
    32    61    58   am
    33    92    91    1
    34    58    57    1
    35    91    90   ar
    36    91    89   ar
    37    90    88   ar
    38    89    87   ar
    39    88    86   ar
    40    33    34   ar
    41    33    32    1
    42    87    86   ar
    43    86    85    1
    44    55    53    1
    45    57    56    1
    46    57    60    1
    47    32    31    1
    48    56    51   am
    49    31    28    1
    50    30    29    2
    51    53    50    1
    52    53    54    1
    53    27    28    1
    54    51    50    1
    55    51    52    2
    56    50    49    1
    57    28    29    1
    58    29    36   am
    59    11     9   ar
    60    11    10   ar
    61    36    37    1
    62     9     7   ar
    63    10     8   ar
    64    37    40    1
    65    37    38    1
    66     7     6   ar
    67    38    41   am
    68    38    39    2
    69    22    20   ar
    70    22    21   ar
    71    41    42    1
    72     8     6   ar
    73    20    18   ar
    74    26    25    2
    75     6     5    1
    76    25    24    1
    77    45    42    1
    78    45    46    1
    79    44    43    2
    80    21    19   ar
    81    42    43    1
    82    18    17   ar
    83    24    23    1
    84    48    46    1
    85    23    14   am
    86    46    47    1
    87     5     2    1
    88    19    17   ar
    89     4     3    2
    90    17    16    1
    91     1     2    1
    92     2     3    1
    93    14    13    1
    94    14    15    2
    95    13    16    1
    96    13    12    1
