@<TRIPOS>MOLECULE
tmp/4afkA15.pdb
 73 68 0 0 0
SMALL
GASTEIGER

@<TRIPOS>ATOM
      1  N         -1.9140    2.3900   31.5320 N.3    14  GLY14      -0.1210
      2  CA        -2.2890    3.1490   30.3500 C.3    14  GLY14       0.1956
      3  C         -1.0510    3.5680   29.5740 C.2    14  GLY14       0.2612
      4  O         -0.0320    3.9280   30.1770 O.2    14  GLY14      -0.2717
      5  N         -1.1190    3.5380   28.2460 N.am   15  GLU15      -0.1965
      6  CA         0.0250    3.9960   27.4480 C.3    15  GLU15       0.1733
      7  C         -0.4210    5.0140   26.4170 C.2    15  GLU15       0.2617
      8  O         -1.3840    4.7900   25.6880 O.2    15  GLU15      -0.2715
      9  CB         0.7140    2.8200   26.7310 C.3    15  GLU15       0.0429
     10  CG         1.9100    3.2720   25.8510 C.3    15  GLU15       0.1163
     11  CD         2.6660    2.1310   25.1280 C.2    15  GLU15       0.3649
     12  OE1        2.2790    0.9490   25.2280 O.co2  15  GLU15      -0.2457
     13  OE2        3.6730    2.4410   24.4470 O.co2  15  GLU15      -0.2457
     14  N          0.3010    6.1230   26.3450 N.am   16  SER16      -0.1950
     15  CA         0.1210    7.0830   25.2600 C.3    16  SER16       0.1924
     16  C          1.4240    7.1930   24.4690 C.2    16  SER16       0.2314
     17  O          2.4740    7.5290   25.0180 O.2    16  SER16      -0.2863
     18  CB        -0.3210    8.4510   25.8070 C.3    16  SER16       0.2116
     19  OG        -0.3020    9.4560   24.8020 O.3    16  SER16      -0.2180
     20  N         -3.1590    5.0990   22.4590 N.3    31  ASN31      -0.1225
     21  CA        -3.7810    5.7890   23.5670 C.3    31  ASN31       0.1785
     22  C         -4.7320    4.7770   24.1980 C.2    31  ASN31       0.2597
     23  O         -5.9260    4.7500   23.8700 O.2    31  ASN31      -0.2718
     24  CB        -4.5050    7.0380   23.0680 C.3    31  ASN31       0.1169
     25  CG        -4.8260    8.0030   24.1840 C.2    31  ASN31       0.2627
     26  OD1       -5.8910    7.9260   24.7940 O.2    31  ASN31      -0.2716
     27  ND2       -3.9000    8.9250   24.4600 N.am   31  ASN31      -0.0877
     28  N         -4.2030    3.9300   25.0870 N.am   32  ASP32      -0.1960
     29  CA        -4.9170    2.7090   25.4030 C.3    32  ASP32       0.1840
     30  C         -4.6460    2.2370   26.8050 C.2    32  ASP32       0.2621
     31  O         -3.7440    2.7420   27.4520 O.2    32  ASP32      -0.2715
     32  CB        -4.5610    1.6390   24.3730 C.3    32  ASP32       0.1450
     33  CG        -5.1350    1.9700   22.9870 C.2    32  ASP32       0.3671
     34  OD1       -6.2990    1.5790   22.7370 O.co2  32  ASP32      -0.2456
     35  OD2       -4.4420    2.6470   22.1730 O.co2  32  ASP32      -0.2456
     36  N         -5.4350    1.2700   27.2610 N.am   33  ILE33      -0.1977
     37  CA        -5.3820    0.8460   28.6530 C.3    33  ILE33       0.1596
     38  C         -5.4850   -0.6540   28.7230 C.2    33  ILE33       0.2287
     39  O         -6.0970   -1.2760   27.8480 O.2    33  ILE33      -0.2864
     40  CB        -6.5190    1.4990   29.4890 C.3    33  ILE33       0.0276
     41  CG1       -6.3260    1.2130   30.9850 C.3    33  ILE33       0.0022
     42  CG2       -7.9180    1.0230   28.9990 C.3    33  ILE33       0.0022
     43  CD1       -7.1170    2.1720   31.8930 C.3    33  ILE33       0.0001
     44  N         -6.9280   -2.6850   25.3410 N.3    60  THR60      -0.1218
     45  CA        -7.6760   -2.0840   24.2390 C.3    60  THR60       0.1862
     46  C         -6.8510   -2.0110   22.9530 C.2    60  THR60       0.2287
     47  O         -7.3830   -1.8380   21.8830 O.2    60  THR60      -0.2866
     48  CB        -8.2340   -0.6950   24.6390 C.3    60  THR60       0.1770
     49  OG1       -7.1490    0.1770   24.9770 O.3    60  THR60      -0.2211
     50  CG2       -9.1340   -0.8270   25.8630 C.3    60  THR60       0.0375
     51  N          3.9530    7.4070   37.1700 N.3   400  PHE400     -0.1241
     52  CA         3.9590    8.0050   35.8340 C.3   400  PHE400      0.1605
     53  C          5.3790    7.9040   35.2740 C.2   400  PHE400      0.2264
     54  O          6.3450    8.2390   35.9740 O.2   400  PHE400     -0.2867
     55  CB         3.5530    9.4960   35.8990 C.3   400  PHE400      0.0534
     56  CG         3.7150   10.2200   34.5760 C.ar  400  PHE400     -0.0203
     57  CD1        2.6860   10.2280   33.6380 C.ar  400  PHE400     -0.0042
     58  CD2        4.9240   10.8350   34.2410 C.ar  400  PHE400     -0.0042
     59  CE1        2.8540   10.8740   32.3990 C.ar  400  PHE400     -0.0003
     60  CE2        5.0940   11.4660   33.0100 C.ar  400  PHE400     -0.0003
     61  CZ         4.0440   11.4780   32.0840 C.ar  400  PHE400     -0.0000
     62  N          4.3710    7.8020   26.9960 N.3   422  ALA422     -0.1245
     63  CA         4.1380    7.9320   28.4390 C.3   422  ALA422      0.1562
     64  C          3.2620    6.8090   28.9570 C.2   422  ALA422      0.2260
     65  O          2.4100    6.3030   28.2430 O.2   422  ALA422     -0.2867
     66  CB         3.5040    9.2910   28.7920 C.3   422  ALA422      0.0290
     67  N          1.1240    5.3200   32.6010 N.3   424  VAL424     -0.1245
     68  CA         0.7840    5.2600   34.0200 C.3   424  VAL424      0.1561
     69  C          0.5840    3.8110   34.3740 C.2   424  VAL424      0.2260
     70  O         -0.1180    3.0800   33.6470 O.2   424  VAL424     -0.2867
     71  CB        -0.5000    6.0200   34.3360 C.3   424  VAL424      0.0252
     72  CG1       -0.8350    5.8510   35.8380 C.3   424  VAL424      0.0019
     73  CG2       -0.3070    7.4930   34.0040 C.3   424  VAL424      0.0019
@<TRIPOS>BOND
     1    47    46    2
     2    35    33   ar
     3    20    21    1
     4    34    33   ar
     5    46    45    1
     6    33    32    1
     7    24    21    1
     8    24    25    1
     9    21    22    1
    10    23    22    2
    11    25    27   am
    12    25    26    2
    13    22    28   am
    14    45    48    1
    15    45    44    1
    16    32    29    1
    17    13    11   ar
    18    16    17    2
    19    16    15    1
    20    48    49    1
    21    48    50    1
    22    19    18    1
    23    28    29    1
    24    11    12   ar
    25    11    10    1
    26    15    18    1
    27    15    14    1
    28    29    30    1
    29     8     7    2
    30    10     9    1
    31    14     7   am
    32     7     6    1
    33     9     6    1
    34    30    36   am
    35    30    31    2
    36    62    63    1
    37    36    37    1
    38     6     5    1
    39    39    38    2
    40    65    64    2
    41     5     3   am
    42    63    66    1
    43    63    64    1
    44    37    38    1
    45    37    40    1
    46    42    40    1
    47    40    41    1
    48     3     4    2
    49     3     2    1
    50     2     1    1
    51    41    43    1
    52    61    59   ar
    53    61    60   ar
    54    59    57   ar
    55    67    68    1
    56    60    58   ar
    57    57    56   ar
    58    70    69    2
    59    73    71    1
    60    68    71    1
    61    68    69    1
    62    58    56   ar
    63    71    72    1
    64    56    55    1
    65    53    52    1
    66    53    54    2
    67    52    55    1
    68    52    51    1
