@<TRIPOS>MOLECULE
tmp/4afkA11.pdb
 98 92 0 0 0
SMALL
GASTEIGER

@<TRIPOS>ATOM
      1  N         30.9570  -11.2530   12.3510 N.3   241  ARG241     -0.1245
      2  CA        29.5810  -11.3160   11.8880 C.3   241  ARG241      0.1563
      3  C         29.6290  -11.7080   10.4160 C.2   241  ARG241      0.2260
      4  O         30.5770  -11.3120    9.7100 O.2   241  ARG241     -0.2867
      5  CB        28.9340   -9.9280   11.9950 C.3   241  ARG241      0.0307
      6  CG        28.4330   -9.5660   13.3940 C.3   241  ARG241      0.0489
      7  CD        27.8090   -8.1490   13.4360 C.3   241  ARG241      0.2205
      8  NE        26.8010   -7.9180   12.3860 N.pl3 241  ARG241     -0.0865
      9  CZ        25.5940   -7.3840   12.6050 C.cat 241  ARG241      0.5346
     10  NH1       25.2190   -7.0400   13.8350 N.pl3 241  ARG241      0.1354
     11  NH2       24.7670   -7.1780   11.5940 N.pl3 241  ARG241      0.1354
     12  N         27.2030  -10.9390    7.4270 N.3   243  ASN243     -0.1225
     13  CA        26.0390  -10.0880    7.1840 C.3   243  ASN243      0.1785
     14  C         25.3520  -10.4970    5.8970 C.2   243  ASN243      0.2597
     15  O         26.0230  -10.6890    4.8850 O.2   243  ASN243     -0.2718
     16  CB        26.4360   -8.6110    7.1070 C.3   243  ASN243      0.1169
     17  CG        26.8910   -8.0470    8.4540 C.2   243  ASN243      0.2627
     18  OD1       26.4660   -8.5060    9.5190 O.2   243  ASN243     -0.2716
     19  ND2       27.7460   -7.0430    8.4060 N.am  243  ASN243     -0.0877
     20  N         24.0290  -10.6540    5.9520 N.am  244  LEU244     -0.1966
     21  CA        23.2400  -10.9870    4.7610 C.3   244  LEU244      0.1728
     22  C         23.1500   -9.7680    3.8360 C.2   244  LEU244      0.2616
     23  O         22.8980   -8.6420    4.2770 O.2   244  LEU244     -0.2715
     24  CB        21.8340  -11.4560    5.1530 C.3   244  LEU244      0.0311
     25  CG        20.8980  -11.8810    4.0070 C.3   244  LEU244      0.0022
     26  CD1       21.2920  -13.2440    3.4510 C.3   244  LEU244      0.0001
     27  CD2       19.4580  -11.9270    4.4930 C.3   244  LEU244      0.0001
     28  N         23.3650   -9.9710    2.5490 N.am  245  THR245     -0.1951
     29  CA        23.0940   -8.8810    1.6330 C.3   245  THR245      0.1897
     30  C         21.8340   -9.2340    0.8640 C.2   245  THR245      0.2313
     31  O         21.5630  -10.4040    0.6520 O.2   245  THR245     -0.2863
     32  CB        24.2720   -8.6040    0.6790 C.3   245  THR245      0.1794
     33  OG1       24.5700   -9.7850   -0.0760 O.3   245  THR245     -0.2208
     34  CG2       25.5060   -8.1540    1.4830 C.3   245  THR245      0.0378
     35  N         28.5960  -11.2670    3.6140 N.3   259  GLN259     -0.1231
     36  CA        29.9450  -10.7780    3.8010 C.3   259  GLN259      0.1698
     37  C         30.2890  -10.8810    5.2670 C.2   259  GLN259      0.2593
     38  O         29.5600  -10.3360    6.1080 O.2   259  GLN259     -0.2718
     39  CB        30.0460   -9.3030    3.4280 C.3   259  GLN259      0.0381
     40  CG        29.8660   -8.9790    1.9560 C.3   259  GLN259      0.0905
     41  CD        30.0720   -7.5040    1.6950 C.2   259  GLN259      0.2608
     42  OE1       31.0240   -6.8960    2.1840 O.2   259  GLN259     -0.2717
     43  NE2       29.1730   -6.9190    0.9390 N.am  259  GLN259     -0.0878
     44  N         31.4070  -11.5440    5.5520 N.am  260  SER260     -0.1938
     45  CA        31.9400  -11.6610    6.9050 C.3   260  SER260      0.2055
     46  C         32.9070  -10.5360    7.1870 C.2   260  SER260      0.2644
     47  O         33.5930  -10.0360    6.2880 O.2   260  SER260     -0.2714
     48  CB        32.7030  -12.9740    7.0780 C.3   260  SER260      0.2130
     49  OG        31.8560  -14.0890    6.8940 O.3   260  SER260     -0.2179
     50  N         33.0030  -10.1550    8.4540 N.am  261  GLY261     -0.1939
     51  CA        34.0020   -9.1900    8.8470 C.3   261  GLY261      0.2014
     52  C         34.1900   -9.3090   10.3410 C.2   261  GLY261      0.2639
     53  O         33.2390   -9.7040   11.0310 O.2   261  GLY261     -0.2714
     54  N         35.4050   -9.0230   10.8070 N.am  262  ASP262     -0.1957
     55  CA        35.6970   -8.9630   12.2480 C.3   262  ASP262      0.1840
     56  C         35.0250   -7.7370   12.8690 C.2   262  ASP262      0.2621
     57  O         34.7820   -6.7310   12.1980 O.2   262  ASP262     -0.2715
     58  CB        37.2020   -8.8660   12.5040 C.3   262  ASP262      0.1450
     59  CG        37.9310  -10.1760   12.2640 C.2   262  ASP262      0.3671
     60  OD1       37.2760  -11.2080   11.9830 O.co2 262  ASP262     -0.2456
     61  OD2       39.1750  -10.1740   12.3820 O.co2 262  ASP262     -0.2456
     62  N         34.6990   -7.8380   14.1500 N.am  263  VAL263     -0.1977
     63  CA        34.1890   -6.7040   14.9060 C.3   263  VAL263      0.1596
     64  C         35.2760   -6.3200   15.9110 C.2   263  VAL263      0.2287
     65  O         35.9150   -7.1720   16.4840 O.2   263  VAL263     -0.2864
     66  CB        32.8860   -7.0830   15.6270 C.3   263  VAL263      0.0276
     67  CG1       32.4000   -5.9450   16.5100 C.3   263  VAL263      0.0022
     68  CG2       31.8320   -7.4660   14.5880 C.3   263  VAL263      0.0022
     69  N         34.8160   -1.3530    7.1040 N.3   295  ASP295     -0.1225
     70  CA        33.8230   -2.4330    6.9460 C.3   295  ASP295      0.1805
     71  C         32.9590   -2.6850    8.1950 C.2   295  ASP295      0.2598
     72  O         32.6800   -3.8350    8.5630 O.2   295  ASP295     -0.2718
     73  CB        34.5040   -3.7340    6.5060 C.3   295  ASP295      0.1424
     74  CG        35.0930   -3.6350    5.0980 C.2   295  ASP295      0.3668
     75  OD1       34.3360   -3.3020    4.1610 O.co2 295  ASP295     -0.2456
     76  OD2       36.3130   -3.8670    4.9390 O.co2 295  ASP295     -0.2456
     77  N         32.5190   -1.6150    8.8410 N.am  296  GLY296     -0.1957
     78  CA        31.5880   -1.7500    9.9560 C.3   296  GLY296      0.1869
     79  C         32.1800   -2.4040   11.1930 C.2   296  GLY296      0.2309
     80  O         31.4480   -2.7640   12.1300 O.2   296  GLY296     -0.2863
     81  N         31.2870   -1.0230   14.7930 N.3   299  GLN299     -0.1245
     82  CA        29.9000   -0.8790   15.1990 C.3   299  GLN299      0.1566
     83  C         29.6710   -1.6700   16.5040 C.2   299  GLN299      0.2260
     84  O         29.5440   -2.8750   16.5020 O.2   299  GLN299     -0.2867
     85  CB        28.9410   -1.3390   14.0950 C.3   299  GLN299      0.0367
     86  CG        27.4630   -0.9490   14.3400 C.3   299  GLN299      0.0905
     87  CD        27.0960    0.4470   13.8290 C.2   299  GLN299      0.2608
     88  OE1       27.9480    1.2180   13.3840 O.2   299  GLN299     -0.2717
     89  NE2       25.8110    0.7680   13.8960 N.am  299  GLN299     -0.0878
     90  N         27.5310   -3.0750   19.5440 N.3   301  GLN301     -0.1245
     91  CA        26.1310   -3.4090   19.7790 C.3   301  GLN301      0.1566
     92  C         26.0680   -4.0160   21.1670 C.2   301  GLN301      0.2260
     93  O         27.0920   -4.3900   21.7160 O.2   301  GLN301     -0.2867
     94  CB        25.5910   -4.3980   18.7410 C.3   301  GLN301      0.0367
     95  CG        26.1880   -5.8180   18.8260 C.3   301  GLN301      0.0905
     96  CD        25.8850   -6.6880   17.5880 C.2   301  GLN301      0.2608
     97  OE1       26.4470   -6.4770   16.5190 O.2   301  GLN301     -0.2717
     98  NE2       25.0050   -7.6610   17.7440 N.am  301  GLN301     -0.0878
@<TRIPOS>BOND
     1    33    32    1
     2    31    30    2
     3    32    34    1
     4    32    29    1
     5    30    29    1
     6    43    41   am
     7    29    28    1
     8    41    40    1
     9    41    42    2
    10    40    39    1
    11    28    22   am
    12    39    36    1
    13    26    25    1
    14    35    36    1
    15    36    37    1
    16    22    23    2
    17    22    21    1
    18    25    27    1
    19    25    24    1
    20    75    74   ar
    21    21    24    1
    22    21    20    1
    23    15    14    2
    24    76    74   ar
    25    74    73    1
    26    37    44   am
    27    37    38    2
    28    44    45    1
    29    14    20   am
    30    14    13    1
    31    47    46    2
    32    73    70    1
    33    49    48    1
    34    45    48    1
    35    45    46    1
    36    70    69    1
    37    70    71    1
    38    16    13    1
    39    16    17    1
    40    13    12    1
    41    46    50   am
    42    71    72    2
    43    71    77   am
    44    19    17   am
    45    17    18    2
    46    50    51    1
    47    77    78    1
    48    51    52    1
    49     4     3    2
    50    78    79    1
    51    52    54   am
    52    52    53    2
    53     3     2    1
    54    54    55    1
    55    79    80    2
    56    11     9    1
    57     2     5    1
    58     2     1    1
    59    60    59   ar
    60     5     6    1
    61    57    56    2
    62    55    58    1
    63    55    56    1
    64    59    61   ar
    65    59    58    1
    66     8     9    2
    67     8     7    1
    68     9    10    1
    69    56    62   am
    70    88    87    2
    71     6     7    1
    72    87    89   am
    73    87    86    1
    74    85    86    1
    75    85    82    1
    76    62    63    1
    77    68    66    1
    78    81    82    1
    79    63    66    1
    80    63    64    1
    81    82    83    1
    82    66    67    1
    83    64    65    2
    84    84    83    2
    85    97    96    2
    86    96    98   am
    87    96    95    1
    88    94    95    1
    89    94    91    1
    90    90    91    1
    91    91    92    1
    92    92    93    2
