@<TRIPOS>MOLECULE
tmp/4afkA18.pdb
 106 102 0 0 0
SMALL
GASTEIGER

@<TRIPOS>ATOM
      1  N         -0.0760  -14.2250   38.4840 N.3    39  PRO39      -0.2116
      2  CA        -0.0800  -15.1970   39.5920 C.3    39  PRO39       0.1372
      3  C          1.2940  -15.8380   39.7050 C.2    39  PRO39       0.2244
      4  O          1.9420  -16.0800   38.6700 O.2    39  PRO39      -0.2868
      5  CB        -1.1280  -16.2300   39.1600 C.3    39  PRO39       0.0268
      6  CG        -1.0400  -16.2270   37.6430 C.3    39  PRO39       0.0207
      7  CD        -0.7140  -14.7500   37.2680 C.3    39  PRO39       0.0892
      8  N          7.2310  -20.4010   39.8520 N.3    52  PHE52      -0.1241
      9  CA         6.4740  -20.1760   38.6030 C.3    52  PHE52       0.1605
     10  C          5.8150  -18.8180   38.7050 C.2    52  PHE52       0.2264
     11  O          5.2490  -18.4620   39.7600 O.2    52  PHE52      -0.2867
     12  CB         5.3900  -21.2360   38.4260 C.3    52  PHE52       0.0534
     13  CG         4.5070  -20.9860   37.2330 C.ar   52  PHE52      -0.0203
     14  CD1        4.9120  -21.3740   35.9670 C.ar   52  PHE52      -0.0042
     15  CD2        3.2990  -20.3210   37.3800 C.ar   52  PHE52      -0.0042
     16  CE1        4.1050  -21.1010   34.8320 C.ar   52  PHE52      -0.0003
     17  CE2        2.4810  -20.0670   36.2540 C.ar   52  PHE52      -0.0003
     18  CZ         2.8960  -20.4550   34.9900 C.ar   52  PHE52      -0.0000
     19  N          3.1220  -16.7270   36.0180 N.3    54  GLY54      -0.1210
     20  CA         2.4120  -16.6160   34.7510 C.3    54  GLY54       0.1956
     21  C          1.9460  -15.1950   34.5180 C.2    54  GLY54       0.2612
     22  O          2.2450  -14.3040   35.3070 O.2    54  GLY54      -0.2717
     23  N          1.1820  -14.9920   33.4500 N.am   55  GLN55      -0.1965
     24  CA         0.7710  -13.6560   33.0310 C.3    55  GLN55       0.1733
     25  C         -0.4760  -13.7640   32.1640 C.2    55  GLN55       0.2616
     26  O         -0.5610  -14.6140   31.2740 O.2    55  GLN55      -0.2715
     27  CB         1.8890  -13.0010   32.2430 C.3    55  GLN55       0.0408
     28  CG         1.5980  -11.6040   31.7670 C.3    55  GLN55       0.0908
     29  CD         2.7600  -11.0260   30.9960 C.2    55  GLN55       0.2608
     30  OE1        3.6570  -11.7580   30.5580 O.2    55  GLN55      -0.2717
     31  NE2        2.7630   -9.7050   30.8330 N.am   55  GLN55      -0.0878
     32  N         -1.4650  -12.9430   32.4710 N.am   56  ALA56      -0.1977
     33  CA        -2.6250  -12.8280   31.6050 C.3    56  ALA56       0.1597
     34  C         -2.8490  -11.3650   31.3320 C.2    56  ALA56       0.2287
     35  O         -2.8640  -10.5490   32.2580 O.2    56  ALA56      -0.2864
     36  CB        -3.8710  -13.4380   32.2770 C.3    56  ALA56       0.0319
     37  N         -2.0120  -15.0240   27.0490 N.3    82  LEU82      -0.1231
     38  CA        -1.5000  -15.6150   28.2820 C.3    82  LEU82       0.1693
     39  C         -0.0360  -15.8950   28.0650 C.2    82  LEU82       0.2592
     40  O          0.3920  -16.0980   26.9250 O.2    82  LEU82      -0.2718
     41  CB        -2.2310  -16.9260   28.5930 C.3    82  LEU82       0.0284
     42  CG        -3.7470  -16.8200   28.6720 C.3    82  LEU82       0.0019
     43  CD1       -4.3310  -18.2250   28.8250 C.3    82  LEU82       0.0001
     44  CD2       -4.1460  -15.9120   29.8640 C.3    82  LEU82       0.0001
     45  N          0.7460  -15.9200   29.1440 N.am   83  ALA83      -0.1966
     46  CA         2.1540  -16.2590   29.0120 C.3    83  ALA83       0.1728
     47  C          2.7020  -16.9270   30.2540 C.2    83  ALA83       0.2616
     48  O          2.1340  -16.7940   31.3440 O.2    83  ALA83      -0.2715
     49  CB         2.9870  -15.0100   28.6580 C.3    83  ALA83       0.0334
     50  N          3.7980  -17.6670   30.0800 N.am   84  ALA84      -0.1977
     51  CA         4.5370  -18.1880   31.2260 C.3    84  ALA84       0.1597
     52  C          5.7960  -17.3310   31.3360 C.2    84  ALA84       0.2287
     53  O          6.6100  -17.3050   30.4120 O.2    84  ALA84      -0.2864
     54  CB         4.8840  -19.6630   31.0120 C.3    84  ALA84       0.0319
     55  N         11.3760  -20.3940   23.0560 N.3   144  SER144     -0.1217
     56  CA         9.9930  -19.9870   22.7560 C.3   144  SER144      0.1889
     57  C          9.7410  -18.6480   23.4520 C.2   144  SER144      0.2288
     58  O         10.5130  -18.2600   24.3280 O.2   144  SER144     -0.2866
     59  CB         9.0220  -21.0500   23.2980 C.3   144  SER144      0.2089
     60  OG         7.6670  -20.6670   23.1880 O.3   144  SER144     -0.2183
     61  N          6.8120  -18.4720   24.9430 N.3   146  TYR146     -0.1227
     62  CA         5.8220  -18.9530   25.9230 C.3   146  TYR146      0.1736
     63  C          4.6210  -18.0170   26.0210 C.2   146  TYR146      0.2595
     64  O          4.1440  -17.7040   27.1200 O.2   146  TYR146     -0.2718
     65  CB         6.4650  -19.1840   27.3210 C.3   146  TYR146      0.0548
     66  CG         7.6860  -20.0190   27.2020 C.ar  146  TYR146     -0.0200
     67  CD1        7.5880  -21.4120   27.1320 C.ar  146  TYR146     -0.0009
     68  CD2        8.9320  -19.4270   27.0540 C.ar  146  TYR146     -0.0009
     69  CE1        8.7130  -22.1970   26.9640 C.ar  146  TYR146      0.0417
     70  CE2       10.0830  -20.2030   26.8850 C.ar  146  TYR146      0.0417
     71  CZ         9.9620  -21.5900   26.8400 C.ar  146  TYR146      0.1957
     72  OH        11.0690  -22.3890   26.6660 O.3   146  TYR146     -0.2866
     73  N          4.1240  -17.5970   24.8590 N.am  147  ARG147     -0.1966
     74  CA         3.0130  -16.6810   24.7790 C.3   147  ARG147      0.1729
     75  C          1.9680  -17.2560   23.8070 C.2   147  ARG147      0.2616
     76  O          2.3050  -17.8700   22.7980 O.2   147  ARG147     -0.2715
     77  CB         3.4970  -15.3140   24.2780 C.3   147  ARG147      0.0348
     78  CG         3.8440  -14.3300   25.3650 C.3   147  ARG147      0.0492
     79  CD         4.4130  -13.0360   24.8050 C.3   147  ARG147      0.2205
     80  NE         3.4160  -12.2360   24.0930 N.pl3 147  ARG147     -0.0865
     81  CZ         3.5080  -10.9200   23.9170 C.cat 147  ARG147      0.5346
     82  NH1        4.5630  -10.2540   24.4000 N.pl3 147  ARG147      0.1354
     83  NH2        2.5570  -10.2720   23.2540 N.pl3 147  ARG147      0.1354
     84  N          0.7020  -17.0620   24.1180 N.am  148  THR148     -0.1951
     85  CA        -0.3550  -17.5910   23.2560 C.3   148  THR148      0.1897
     86  C         -0.4560  -16.8610   21.9040 C.2   148  THR148      0.2313
     87  O         -0.9830  -17.4120   20.9400 O.2   148  THR148     -0.2863
     88  CB        -1.7220  -17.5810   23.9880 C.3   148  THR148      0.1794
     89  OG1       -1.9890  -16.2670   24.4740 O.3   148  THR148     -0.2208
     90  CG2       -1.7000  -18.5410   25.1880 C.3   148  THR148      0.0378
     91  N          2.2880  -15.2410   20.1590 N.3   150  LEU150     -0.1231
     92  CA         3.4910  -15.2120   19.3300 C.3   150  LEU150      0.1693
     93  C          3.9470  -16.6360   19.0460 C.2   150  LEU150      0.2592
     94  O          4.2590  -17.3930   19.9580 O.2   150  LEU150     -0.2718
     95  CB         4.6000  -14.4480   20.0280 C.3   150  LEU150      0.0284
     96  CG         4.2920  -12.9940   20.3800 C.3   150  LEU150      0.0019
     97  CD1        5.4980  -12.3720   21.1060 C.3   150  LEU150      0.0001
     98  CD2        3.9300  -12.2160   19.1220 C.3   150  LEU150      0.0001
     99  N          3.9750  -17.0020   17.7770 N.am  151  ASP151     -0.1974
    100  CA         4.2380  -18.3890   17.3920 C.3   151  ASP151      0.1709
    101  C          5.7130  -18.6540   17.1320 C.2   151  ASP151      0.2293
    102  O          6.1300  -19.8040   17.1040 O.2   151  ASP151     -0.2864
    103  CB         3.4610  -18.7560   16.1180 C.3   151  ASP151      0.1436
    104  CG         2.0030  -18.3210   16.1680 C.2   151  ASP151      0.3671
    105  OD1        1.3130  -18.6370   17.1630 O.co2 151  ASP151     -0.2456
    106  OD2        1.5510  -17.6560   15.2070 O.co2 151  ASP151     -0.2456
@<TRIPOS>BOND
     1   106   104   ar
     2   103   104    1
     3   103   100    1
     4   104   105   ar
     5   102   101    2
     6   101   100    1
     7   100    99    1
     8    99    93   am
     9    93    92    1
    10    93    94    2
    11    98    96    1
    12    92    95    1
    13    92    91    1
    14    95    96    1
    15    96    97    1
    16    87    86    2
    17    86    85    1
    18    56    55    1
    19    56    59    1
    20    56    57    1
    21    76    75    2
    22    60    59    1
    23    83    81    1
    24    85    88    1
    25    85    84    1
    26    57    58    2
    27    75    84   am
    28    75    74    1
    29    81    80    2
    30    81    82    1
    31    88    89    1
    32    88    90    1
    33    80    79    1
    34    77    74    1
    35    77    78    1
    36    74    73    1
    37    79    78    1
    38    73    63   am
    39    61    62    1
    40    62    63    1
    41    62    65    1
    42    63    64    2
    43    72    71    1
    44    71    70   ar
    45    71    69   ar
    46    70    68   ar
    47    40    39    2
    48    69    67   ar
    49    37    38    1
    50    68    66   ar
    51    67    66   ar
    52    66    65    1
    53    39    38    1
    54    39    45   am
    55    38    41    1
    56    41    42    1
    57    49    46    1
    58    42    43    1
    59    42    44    1
    60    46    45    1
    61    46    47    1
    62    50    47   am
    63    50    51    1
    64    47    48    2
    65    53    52    2
    66    30    29    2
    67    31    29   am
    68    29    28    1
    69    54    51    1
    70    51    52    1
    71    26    25    2
    72    34    33    1
    73    34    35    2
    74    33    36    1
    75    33    32    1
    76    28    27    1
    77    25    32   am
    78    25    24    1
    79    27    24    1
    80    24    23    1
    81    23    21   am
    82    21    20    1
    83    21    22    2
    84    20    19    1
    85    16    18   ar
    86    16    14   ar
    87    18    17   ar
    88    14    13   ar
    89    17    15   ar
    90    13    15   ar
    91    13    12    1
    92     7     6    1
    93     7     1    1
    94     6     5    1
    95    12     9    1
    96     1     2    1
    97     9    10    1
    98     9     8    1
    99     4     3    2
   100    10    11    2
   101     5     2    1
   102     2     3    1
