@<TRIPOS>MOLECULE
tmp/4afkA09.pdb
 107 105 0 0 0
SMALL
GASTEIGER

@<TRIPOS>ATOM
      1  N         14.2990   13.2680   43.3920 N.3   342  TRP342     -0.1241
      2  CA        13.7910   13.5770   44.7170 C.3   342  TRP342      0.1605
      3  C         13.1610   12.3130   45.2580 C.2   342  TRP342      0.2264
      4  O         12.5260   11.5370   44.5160 O.2   342  TRP342     -0.2867
      5  CB        12.7540   14.6910   44.6410 C.3   342  TRP342      0.0550
      6  CG        12.1140   15.0310   45.9580 C.ar  342  TRP342      0.0003
      7  CD1       12.6110   15.8540   46.9180 C.ar  342  TRP342      0.0946
      8  CD2       10.8580   14.5530   46.4480 C.ar  342  TRP342      0.0152
      9  NE1       11.7390   15.9230   47.9760 N.ar  342  TRP342     -0.2442
     10  CE2       10.6600   15.1260   47.7140 C.ar  342  TRP342      0.0810
     11  CE3        9.8860   13.6900   45.9370 C.ar  342  TRP342      0.0012
     12  CZ2        9.5280   14.8660   48.4840 C.ar  342  TRP342      0.0191
     13  CZ3        8.7620   13.4460   46.6930 C.ar  342  TRP342      0.0001
     14  CH2        8.5970   14.0230   47.9540 C.ar  342  TRP342      0.0015
     15  N         11.3390   10.7140   49.1690 N.3   344  LEU344     -0.1245
     16  CA        10.9750   10.8900   50.5460 C.3   344  LEU344      0.1561
     17  C         10.7870    9.4960   51.1280 C.2   344  LEU344      0.2260
     18  O          9.8530    8.7660   50.7650 O.2   344  LEU344     -0.2867
     19  CB         9.7030   11.7370   50.6580 C.3   344  LEU344      0.0270
     20  CG         9.2050   11.9320   52.0920 C.3   344  LEU344      0.0019
     21  CD1       10.2100   12.7650   52.8820 C.3   344  LEU344      0.0001
     22  CD2        7.8250   12.5770   52.0830 C.3   344  LEU344      0.0001
     23  N          7.7890    8.1110   48.2420 N.3   348  TYR348     -0.1227
     24  CA         7.6750    8.7880   46.9290 C.3   348  TYR348      0.1736
     25  C          9.0480    8.8890   46.3160 C.2   348  TYR348      0.2595
     26  O         10.0480    8.9440   47.0440 O.2   348  TYR348     -0.2718
     27  CB         7.1780   10.2310   47.0760 C.3   348  TYR348      0.0548
     28  CG         5.8510   10.4050   47.7580 C.ar  348  TYR348     -0.0200
     29  CD1        4.6470   10.3330   47.0380 C.ar  348  TYR348     -0.0009
     30  CD2        5.7890   10.6740   49.1200 C.ar  348  TYR348     -0.0009
     31  CE1        3.4280   10.4900   47.6810 C.ar  348  TYR348      0.0417
     32  CE2        4.5760   10.8360   49.7580 C.ar  348  TYR348      0.0417
     33  CZ         3.3980   10.7450   49.0390 C.ar  348  TYR348      0.1957
     34  OH         2.1870   10.9090   49.7000 O.3   348  TYR348     -0.2866
     35  N          9.1050    8.9350   44.9830 N.am  349  ASP349     -0.1960
     36  CA        10.3120    9.3620   44.2940 C.3   349  ASP349      0.1840
     37  C          9.9440   10.0290   42.9710 C.2   349  ASP349      0.2621
     38  O          8.7940    9.9430   42.5260 O.2   349  ASP349     -0.2715
     39  CB        11.3250    8.2110   44.1220 C.3   349  ASP349      0.1450
     40  CG        10.8550    7.1130   43.1670 C.2   349  ASP349      0.3671
     41  OD1       10.2250    7.4020   42.1250 O.co2 349  ASP349     -0.2456
     42  OD2       11.1640    5.9410   43.4630 O.co2 349  ASP349     -0.2456
     43  N         10.8960   10.7400   42.3770 N.am  350  ALA350     -0.1977
     44  CA        10.6740   11.4070   41.1030 C.3   350  ALA350      0.1597
     45  C         12.0440   11.6950   40.5070 C.2   350  ALA350      0.2287
     46  O         13.0110   11.9050   41.2380 O.2   350  ALA350     -0.2864
     47  CB         9.8790   12.7230   41.3020 C.3   350  ALA350      0.0319
     48  N          7.5230    9.6960   38.1330 N.3   390  VAL390     -0.1231
     49  CA         7.0360   10.0680   39.4680 C.3   390  VAL390      0.1692
     50  C          6.2700    8.8890   40.0310 C.2   390  VAL390      0.2593
     51  O          5.4330    8.3010   39.3290 O.2   390  VAL390     -0.2718
     52  CB         6.0900   11.2810   39.4370 C.3   390  VAL390      0.0266
     53  CG1        5.7770   11.7210   40.8810 C.3   390  VAL390      0.0020
     54  CG2        6.7230   12.4380   38.7020 C.3   390  VAL390      0.0020
     55  N          6.5700    8.5290   41.2780 N.am  391  THR391     -0.1939
     56  CA         6.0390    7.3090   41.8780 C.3   391  THR391      0.2028
     57  C          5.5690    7.5730   43.2990 C.2   391  THR391      0.2642
     58  O          6.2400    8.2850   44.0660 O.2   391  THR391     -0.2714
     59  CB         7.1290    6.1920   41.9650 C.3   391  THR391      0.1808
     60  OG1        7.8760    6.1070   40.7330 O.3   391  THR391     -0.2208
     61  CG2        6.4820    4.8440   42.2810 C.3   391  THR391      0.0379
     62  N          4.4300    6.9840   43.6450 N.am  392  LYS392     -0.1977
     63  CA         4.0130    6.8720   45.0310 C.3   392  LYS392      0.1596
     64  C          3.9680    5.3990   45.3520 C.2   392  LYS392      0.2287
     65  O          3.3940    4.6020   44.6000 O.2   392  LYS392     -0.2864
     66  CB         2.6310    7.4700   45.2720 C.3   392  LYS392      0.0298
     67  CG         2.0900    7.1200   46.6780 C.3   392  LYS392      0.0038
     68  CD         0.7080    7.6890   46.9060 C.3   392  LYS392      0.0206
     69  CE         0.1880    7.2650   48.2810 C.3   392  LYS392      0.1093
     70  NZ         0.1520    8.3950   49.2070 N.3   392  LYS392     -0.1314
     71  N          1.8030    3.5570   42.3380 N.3   398  ILE398     -0.1231
     72  CA         1.2940    4.1960   41.1390 C.3   398  ILE398      0.1692
     73  C          2.4140    5.0570   40.5890 C.2   398  ILE398      0.2592
     74  O          3.0110    5.8600   41.3120 O.2   398  ILE398     -0.2718
     75  CB         0.0760    5.0670   41.4350 C.3   398  ILE398      0.0266
     76  CG1        0.4110    6.0780   42.5250 C.3   398  ILE398      0.0019
     77  CG2       -1.0880    4.2120   41.8710 C.3   398  ILE398      0.0020
     78  CD1       -0.7680    6.8580   42.9690 C.3   398  ILE398      0.0001
     79  N          2.7150    4.8780   39.3120 N.am  399  ARG399     -0.1966
     80  CA         3.8680    5.5330   38.7280 C.3   399  ARG399      0.1729
     81  C          3.5230    6.1640   37.3850 C.2   399  ARG399      0.2616
     82  O          2.8550    5.5400   36.5650 O.2   399  ARG399     -0.2715
     83  CB         4.9890    4.4850   38.5540 C.3   399  ARG399      0.0348
     84  CG         6.2840    5.0440   37.9260 C.3   399  ARG399      0.0492
     85  CD         7.3870    3.9960   37.8580 C.3   399  ARG399      0.2205
     86  NE         8.0080    3.6670   39.1440 N.pl3 399  ARG399     -0.0865
     87  CZ         8.0890    2.4310   39.6200 C.cat 399  ARG399      0.5346
     88  NH1        7.5430    1.4190   38.9450 N.pl3 399  ARG399      0.1354
     89  NH2        8.6780    2.2130   40.7810 N.pl3 399  ARG399      0.1354
     90  N          3.9530    7.4070   37.1700 N.am  400  PHE400     -0.1974
     91  CA         3.9590    8.0050   35.8340 C.3   400  PHE400      0.1639
     92  C          5.3790    7.9040   35.2740 C.2   400  PHE400      0.2290
     93  O          6.3450    8.2390   35.9740 O.2   400  PHE400     -0.2864
     94  CB         3.5530    9.4960   35.8990 C.3   400  PHE400      0.0560
     95  CG         3.7150   10.2200   34.5760 C.ar  400  PHE400     -0.0200
     96  CD1        2.6860   10.2280   33.6380 C.ar  400  PHE400     -0.0042
     97  CD2        4.9240   10.8350   34.2410 C.ar  400  PHE400     -0.0042
     98  CE1        2.8540   10.8740   32.3990 C.ar  400  PHE400     -0.0003
     99  CE2        5.0940   11.4660   33.0100 C.ar  400  PHE400     -0.0003
    100  CZ         4.0440   11.4780   32.0840 C.ar  400  PHE400     -0.0000
    101  N          1.1240    5.3200   32.6010 N.3   424  VAL424     -0.1245
    102  CA         0.7840    5.2600   34.0200 C.3   424  VAL424      0.1561
    103  C          0.5840    3.8110   34.3740 C.2   424  VAL424      0.2260
    104  O         -0.1180    3.0800   33.6470 O.2   424  VAL424     -0.2867
    105  CB        -0.5000    6.0200   34.3360 C.3   424  VAL424      0.0252
    106  CG1       -0.8350    5.8510   35.8380 C.3   424  VAL424      0.0019
    107  CG2       -0.3070    7.4930   34.0040 C.3   424  VAL424      0.0019
@<TRIPOS>BOND
     1   100    98   ar
     2   100    99   ar
     3    98    96   ar
     4   101   102    1
     5    99    97   ar
     6    96    95   ar
     7   104   103    2
     8   107   105    1
     9   102   105    1
    10   102   103    1
    11    97    95   ar
    12   105   106    1
    13    95    94    1
    14    92    91    1
    15    92    93    2
    16    91    94    1
    17    91    90    1
    18    82    81    2
    19    90    81   am
    20    81    80    1
    21    85    84    1
    22    85    86    1
    23    84    83    1
    24    48    49    1
    25    83    80    1
    26    54    52    1
    27    80    79    1
    28    88    87    1
    29    86    87    2
    30    79    73   am
    31    51    50    2
    32    52    49    1
    33    52    53    1
    34    49    50    1
    35    87    89    1
    36    50    55   am
    37    45    44    1
    38    45    46    2
    39    73    72    1
    40    73    74    2
    41    60    59    1
    42    44    47    1
    43    44    43    1
    44    72    75    1
    45    72    71    1
    46    55    56    1
    47    75    77    1
    48    75    76    1
    49    56    59    1
    50    56    57    1
    51    59    61    1
    52    41    40   ar
    53    43    37   am
    54    76    78    1
    55    38    37    2
    56    37    36    1
    57    40    42   ar
    58    40    39    1
    59    57    62   am
    60    57    58    2
    61     1     2    1
    62    62    63    1
    63    39    36    1
    64    36    35    1
    65     4     3    2
    66    65    64    2
    67     5     2    1
    68     5     6    1
    69     2     3    1
    70    35    25   am
    71    63    66    1
    72    63    64    1
    73    66    67    1
    74    11     8   ar
    75    11    13   ar
    76     6     8   ar
    77     6     7   ar
    78    25    24    1
    79    25    26    2
    80     8    10   ar
    81    67    68    1
    82    13    14   ar
    83    68    69    1
    84     7     9   ar
    85    24    27    1
    86    24    23    1
    87    29    31   ar
    88    29    28   ar
    89    27    28    1
    90    31    33   ar
    91    10     9   ar
    92    10    12   ar
    93    28    30   ar
    94    14    12   ar
    95    69    70    1
    96    33    34    1
    97    33    32   ar
    98    30    32   ar
    99    15    16    1
   100    16    19    1
   101    16    17    1
   102    19    20    1
   103    18    17    2
   104    22    20    1
   105    20    21    1
