@<TRIPOS>MOLECULE
tmp/4afkA13.pdb
 95 87 0 0 0
SMALL
GASTEIGER

@<TRIPOS>ATOM
      1  N         -1.7450   -5.3820   37.6940 N.3    11  LYS11      -0.1245
      2  CA        -1.3200   -4.0960   37.1630 C.3    11  LYS11       0.1561
      3  C         -2.3420   -3.5720   36.1710 C.2    11  LYS11       0.2260
      4  O         -2.8080   -4.3060   35.2890 O.2    11  LYS11      -0.2867
      5  CB         0.0350   -4.2240   36.4730 C.3    11  LYS11       0.0271
      6  CG         0.4730   -2.9690   35.7650 C.3    11  LYS11       0.0035
      7  CD         1.9920   -2.9190   35.6120 C.3    11  LYS11       0.0206
      8  CE         2.4750   -3.8270   34.5130 C.3    11  LYS11       0.1093
      9  NZ         3.9620   -3.6860   34.3700 N.3    11  LYS11      -0.1314
     10  N         -0.4210  -11.3570   37.1420 N.3    38  ARG38      -0.1245
     11  CA         0.7140  -12.2680   37.2520 C.3    38  ARG38       0.1563
     12  C          0.6100  -13.0770   38.5440 C.2    38  ARG38       0.2260
     13  O          1.1290  -12.6720   39.5650 O.2    38  ARG38      -0.2867
     14  CB         2.0490  -11.5020   37.2180 C.3    38  ARG38       0.0307
     15  CG         2.2740  -10.7870   35.8830 C.3    38  ARG38       0.0489
     16  CD         3.5190   -9.9120   35.9080 C.3    38  ARG38       0.2205
     17  NE         3.5210   -9.0500   34.7290 N.pl3  38  ARG38      -0.0865
     18  CZ         4.4480   -8.1310   34.4850 C.cat  38  ARG38       0.5346
     19  NH1        5.4750   -7.9780   35.3160 N.pl3  38  ARG38       0.1354
     20  NH2        4.3410   -7.3810   33.4060 N.pl3  38  ARG38       0.1354
     21  N          4.8830   -4.7820   29.9800 N.3    66  ASP66      -0.1225
     22  CA         6.0730   -5.4180   30.5280 C.3    66  ASP66       0.1805
     23  C          7.2660   -4.7600   29.8590 C.2    66  ASP66       0.2598
     24  O          7.4740   -4.9290   28.6560 O.2    66  ASP66      -0.2718
     25  CB         6.0370   -6.9320   30.2360 C.3    66  ASP66       0.1424
     26  CG         7.3400   -7.6640   30.6160 C.2    66  ASP66       0.3668
     27  OD1        8.1650   -7.1150   31.3850 O.co2  66  ASP66      -0.2456
     28  OD2        7.5440   -8.8070   30.1240 O.co2  66  ASP66      -0.2456
     29  N          8.0450   -4.0050   30.6200 N.am   67  THR67      -0.1939
     30  CA         9.2360   -3.3560   30.0530 C.3    67  THR67       0.2028
     31  C         10.2150   -4.3850   29.4580 C.2    67  THR67       0.2642
     32  O         11.0350   -4.0420   28.6150 O.2    67  THR67      -0.2714
     33  CB        10.0120   -2.5230   31.0800 C.3    67  THR67       0.1808
     34  OG1       10.3550   -3.3580   32.1860 O.3    67  THR67      -0.2208
     35  CG2        9.2040   -1.2780   31.5730 C.3    67  THR67       0.0379
     36  N         10.1190   -5.6410   29.8930 N.am   68  LEU68      -0.1977
     37  CA        11.0240   -6.6870   29.4090 C.3    68  LEU68       0.1596
     38  C         10.4560   -7.5000   28.2350 C.2    68  LEU68       0.2287
     39  O         11.0170   -8.5290   27.8630 O.2    68  LEU68      -0.2864
     40  CB        11.4020   -7.6560   30.5500 C.3    68  LEU68       0.0297
     41  CG        11.8500   -7.0830   31.8910 C.3    68  LEU68       0.0022
     42  CD1       11.9450   -8.2080   32.9400 C.3    68  LEU68       0.0001
     43  CD2       13.1580   -6.2820   31.8090 C.3    68  LEU68       0.0001
     44  N          5.9270  -16.5780   32.4300 N.3    85  ARG85      -0.1245
     45  CA         7.0510  -15.6570   32.5630 C.3    85  ARG85       0.1563
     46  C          8.3130  -16.3330   33.1050 C.2    85  ARG85       0.2260
     47  O          9.4030  -16.2050   32.5290 O.2    85  ARG85      -0.2867
     48  CB         6.6880  -14.4740   33.4590 C.3    85  ARG85       0.0307
     49  CG         5.6720  -13.5260   32.8640 C.3    85  ARG85       0.0489
     50  CD         5.4360  -12.3100   33.7950 C.3    85  ARG85       0.2205
     51  NE         6.6130  -11.4460   33.9480 N.pl3  85  ARG85      -0.0865
     52  CZ         6.9780  -10.5410   33.0410 C.cat  85  ARG85       0.5346
     53  NH1        6.2780  -10.4250   31.9210 N.pl3  85  ARG85       0.1354
     54  NH2        8.0290   -9.7530   33.2460 N.pl3  85  ARG85       0.1354
     55  N         14.6490  -14.6650   35.7370 N.3   108  ARG108     -0.1245
     56  CA        15.1060  -13.3010   35.6050 C.3   108  ARG108      0.1563
     57  C         16.6380  -13.2600   35.7260 C.2   108  ARG108      0.2260
     58  O         17.2040  -13.6340   36.7540 O.2   108  ARG108     -0.2867
     59  CB        14.4460  -12.4230   36.6810 C.3   108  ARG108      0.0307
     60  CG        14.8480  -10.9610   36.6420 C.3   108  ARG108      0.0489
     61  CD        14.5470  -10.3440   35.2700 C.3   108  ARG108      0.2205
     62  NE        14.6450   -8.8840   35.2720 N.pl3 108  ARG108     -0.0865
     63  CZ        13.7670   -8.0630   35.8480 C.cat 108  ARG108      0.5346
     64  NH1       12.7120   -8.5440   36.5100 N.pl3 108  ARG108      0.1354
     65  NH2       13.9460   -6.7490   35.7730 N.pl3 108  ARG108      0.1354
     66  N         13.4510    2.3520   38.6730 N.3   318  ARG318     -0.1245
     67  CA        14.4080    2.2250   37.5870 C.3   318  ARG318      0.1563
     68  C         13.9890    3.1120   36.4170 C.2   318  ARG318      0.2260
     69  O         12.7960    3.3080   36.1560 O.2   318  ARG318     -0.2867
     70  CB        14.5480    0.7580   37.1590 C.3   318  ARG318      0.0307
     71  CG        15.2960   -0.1220   38.1930 C.3   318  ARG318      0.0489
     72  CD        15.3550   -1.6080   37.7490 C.3   318  ARG318      0.2205
     73  NE        15.6080   -2.4870   38.8900 N.pl3 318  ARG318     -0.0865
     74  CZ        15.2310   -3.7620   38.9880 C.cat 318  ARG318      0.5346
     75  NH1       14.5710   -4.3580   38.0010 N.pl3 318  ARG318      0.1354
     76  NH2       15.5210   -4.4510   40.0930 N.pl3 318  ARG318      0.1354
     77  N          2.7150    4.8780   39.3120 N.3   399  ARG399     -0.1245
     78  CA         3.8680    5.5330   38.7280 C.3   399  ARG399      0.1563
     79  C          3.5230    6.1640   37.3850 C.2   399  ARG399      0.2260
     80  O          2.8550    5.5400   36.5650 O.2   399  ARG399     -0.2867
     81  CB         4.9890    4.4850   38.5540 C.3   399  ARG399      0.0307
     82  CG         6.2840    5.0440   37.9260 C.3   399  ARG399      0.0489
     83  CD         7.3870    3.9960   37.8580 C.3   399  ARG399      0.2205
     84  NE         8.0080    3.6670   39.1440 N.pl3 399  ARG399     -0.0865
     85  CZ         8.0890    2.4310   39.6200 C.cat 399  ARG399      0.5346
     86  NH1        7.5430    1.4190   38.9450 N.pl3 399  ARG399      0.1354
     87  NH2        8.6780    2.2130   40.7810 N.pl3 399  ARG399      0.1354
     88  N         -0.1310   -0.5770   40.4040 N.3   427  ILE427     -0.1245
     89  CA         0.2230   -1.9610   40.6800 C.3   427  ILE427      0.1561
     90  C         -0.1440   -2.3230   42.1020 C.2   427  ILE427      0.2260
     91  O          0.1930   -1.6020   43.0330 O.2   427  ILE427     -0.2867
     92  CB         1.7440   -2.2000   40.5480 C.3   427  ILE427      0.0252
     93  CG1        2.2420   -1.8330   39.1410 C.3   427  ILE427      0.0019
     94  CG2        2.1040   -3.6570   40.9460 C.3   427  ILE427      0.0019
     95  CD1        3.7530   -2.0510   38.9700 C.3   427  ILE427      0.0001
@<TRIPOS>BOND
     1    39    38    2
     2    38    37    1
     3    32    31    2
     4    24    23    2
     5    37    36    1
     6    37    40    1
     7    31    36   am
     8    31    30    1
     9    23    22    1
    10    23    29   am
    11    21    22    1
    12    30    29    1
    13    30    33    1
    14    28    26   ar
    15    25    22    1
    16    25    26    1
    17    40    41    1
    18    26    27   ar
    19    33    35    1
    20    33    34    1
    21    43    41    1
    22    41    42    1
    23    53    52    1
    24    44    45    1
    25    47    46    2
    26    45    46    1
    27    45    48    1
    28    49    48    1
    29    49    50    1
    30    52    54    1
    31    52    51    2
    32    20    18    1
    33    50    51    1
    34     9     8    1
    35    18    17    2
    36    18    19    1
    37     8     7    1
    38    17    16    1
    39    61    62    1
    40    61    60    1
    41    62    63    2
    42     4     3    2
    43    56    57    1
    44    56    55    1
    45    56    59    1
    46     7     6    1
    47    57    58    2
    48     6     5    1
    49    65    63    1
    50    63    64    1
    51    15    16    1
    52    15    14    1
    53    69    68    2
    54     3     2    1
    55    68    67    1
    56     5     2    1
    57    80    79    2
    58    60    59    1
    59    10    11    1
    60    70    67    1
    61    70    71    1
    62     2     1    1
    63    14    11    1
    64    11    12    1
    65    79    78    1
    66    67    66    1
    67    72    71    1
    68    72    73    1
    69    83    82    1
    70    83    84    1
    71    82    81    1
    72    75    74    1
    73    12    13    2
    74    81    78    1
    75    78    77    1
    76    73    74    2
    77    86    85    1
    78    95    93    1
    79    74    76    1
    80    93    92    1
    81    84    85    2
    82    85    87    1
    83    88    89    1
    84    92    89    1
    85    92    94    1
    86    89    90    1
    87    90    91    2
