@<TRIPOS>MOLECULE
tmp/4afkA19.pdb
 88 86 0 0 0
SMALL
GASTEIGER

@<TRIPOS>ATOM
      1  N         24.6280  -19.6090   37.7340 N.3   126  TRP126     -0.1241
      2  CA        25.2170  -19.7020   39.0610 C.3   126  TRP126      0.1605
      3  C         25.5240  -18.3140   39.6510 C.2   126  TRP126      0.2264
      4  O         26.1730  -17.4850   39.0100 O.2   126  TRP126     -0.2867
      5  CB        26.4800  -20.5680   39.0220 C.3   126  TRP126      0.0550
      6  CG        27.0420  -20.7950   40.4250 C.ar  126  TRP126      0.0003
      7  CD1       26.4680  -21.5170   41.4480 C.ar  126  TRP126      0.0946
      8  CD2       28.2730  -20.2770   40.9430 C.ar  126  TRP126      0.0152
      9  NE1       27.2730  -21.4670   42.5700 N.ar  126  TRP126     -0.2442
     10  CE2       28.3890  -20.7220   42.2800 C.ar  126  TRP126      0.0810
     11  CE3       29.2910  -19.4800   40.4040 C.ar  126  TRP126      0.0012
     12  CZ2       29.4880  -20.3900   43.0870 C.ar  126  TRP126      0.0191
     13  CZ3       30.3770  -19.1480   41.2110 C.ar  126  TRP126      0.0001
     14  CH2       30.4670  -19.6110   42.5340 C.ar  126  TRP126      0.0015
     15  N         30.4510  -13.1860   42.1850 N.3   135  ALA135     -0.1231
     16  CA        30.7620  -13.8600   40.9340 C.3   135  ALA135      0.1694
     17  C         29.5030  -14.5030   40.3730 C.2   135  ALA135      0.2592
     18  O         28.6300  -14.9150   41.1270 O.2   135  ALA135     -0.2718
     19  CB        31.8620  -14.8930   41.1180 C.3   135  ALA135      0.0304
     20  N         29.4040  -14.5630   39.0500 N.am  136  HIS136     -0.1962
     21  CA        28.2890  -15.2690   38.4120 C.3   136  HIS136      0.1787
     22  C         28.7870  -15.9440   37.1450 C.2   136  HIS136      0.2620
     23  O         29.7750  -15.5210   36.5670 O.2   136  HIS136     -0.2715
     24  CB        27.1460  -14.3150   38.0310 C.3   136  HIS136      0.0785
     25  CG        26.6530  -13.4700   39.1620 C.ar  136  HIS136      0.0821
     26  ND1       27.3070  -12.3320   39.5780 N.ar  136  HIS136     -0.2267
     27  CD2       25.5610  -13.5900   39.9560 C.ar  136  HIS136      0.1154
     28  CE1       26.6580  -11.8040   40.6040 C.ar  136  HIS136      0.1986
     29  NE2       25.5920  -12.5490   40.8500 N.ar  136  HIS136     -0.2212
     30  N         28.0890  -16.9910   36.7260 N.am  137  ALA137     -0.1977
     31  CA        28.3880  -17.6680   35.4650 C.3   137  ALA137      0.1597
     32  C         27.1160  -18.3500   35.0090 C.2   137  ALA137      0.2287
     33  O         26.4260  -18.9840   35.8070 O.2   137  ALA137     -0.2864
     34  CB        29.4880  -18.7150   35.6540 C.3   137  ALA137      0.0319
     35  N         29.7500  -14.4240   32.3790 N.3   165  GLY165     -0.1210
     36  CA        30.2820  -14.5440   33.7200 C.3   165  GLY165      0.1956
     37  C         30.7730  -13.2050   34.2120 C.2   165  GLY165      0.2612
     38  O         30.9740  -12.2740   33.4350 O.2   165  GLY165     -0.2717
     39  N         30.9630  -13.0860   35.5140 N.am  166  ASP166     -0.1959
     40  CA        31.5250  -11.8550   36.0130 C.3   166  ASP166      0.1840
     41  C         32.1650  -12.1610   37.3330 C.2   166  ASP166      0.2621
     42  O         31.9040  -13.2110   37.9460 O.2   166  ASP166     -0.2715
     43  CB        30.4490  -10.7640   36.1690 C.3   166  ASP166      0.1450
     44  CG        29.3210  -11.1860   37.1050 C.2   166  ASP166      0.3671
     45  OD1       29.4750  -11.0420   38.3450 O.co2 166  ASP166     -0.2456
     46  OD2       28.2900  -11.6750   36.5930 O.co2 166  ASP166     -0.2456
     47  N         33.0000  -11.2460   37.7870 N.am  167  ILE167     -0.1977
     48  CA        33.6050  -11.3920   39.1000 C.3   167  ILE167      0.1596
     49  C         34.0580  -10.0160   39.5500 C.2   167  ILE167      0.2287
     50  O         34.5970   -9.2440   38.7540 O.2   167  ILE167     -0.2864
     51  CB        34.7670  -12.3890   39.0700 C.3   167  ILE167      0.0276
     52  CG1       35.2450  -12.6920   40.4900 C.3   167  ILE167      0.0022
     53  CG2       35.8910  -11.8780   38.1770 C.3   167  ILE167      0.0022
     54  CD1       36.2000  -13.8430   40.5600 C.3   167  ILE167      0.0001
     55  N         35.1830   -7.3080   36.5660 N.3   179  VAL179     -0.1231
     56  CA        35.2780   -7.6270   35.1370 C.3   179  VAL179      0.1692
     57  C         34.0580   -8.4560   34.7620 C.2   179  VAL179      0.2592
     58  O         33.4280   -9.1100   35.6170 O.2   179  VAL179     -0.2718
     59  CB        36.5570   -8.4360   34.7990 C.3   179  VAL179      0.0266
     60  CG1       37.7900   -7.5490   34.8930 C.3   179  VAL179      0.0020
     61  CG2       36.6830   -9.6350   35.7220 C.3   179  VAL179      0.0020
     62  N         33.7260   -8.4410   33.4810 N.am  180  ARG180     -0.1966
     63  CA        32.5040   -9.0820   33.0390 C.3   180  ARG180      0.1729
     64  C         32.7040   -9.6120   31.6320 C.2   180  ARG180      0.2616
     65  O         33.3130   -8.9480   30.7990 O.2   180  ARG180     -0.2715
     66  CB        31.3650   -8.0710   33.1030 C.3   180  ARG180      0.0348
     67  CG        29.9960   -8.6330   32.6620 C.3   180  ARG180      0.0492
     68  CD        28.8530   -7.6440   32.9820 C.3   180  ARG180      0.2205
     69  NE        28.5770   -7.5130   34.4200 N.pl3 180  ARG180     -0.0865
     70  CZ        27.8530   -8.3830   35.1390 C.cat 180  ARG180      0.5346
     71  NH1       27.3330   -9.4670   34.5750 N.pl3 180  ARG180      0.1354
     72  NH2       27.6690   -8.1750   36.4400 N.pl3 180  ARG180      0.1354
     73  N         32.1860  -10.7970   31.3610 N.am  181  ILE181     -0.1977
     74  CA        32.3000  -11.3120   30.0110 C.3   181  ILE181      0.1596
     75  C         30.9580  -11.8360   29.5140 C.2   181  ILE181      0.2287
     76  O         30.1380  -12.3400   30.3020 O.2   181  ILE181     -0.2864
     77  CB        33.3890  -12.3940   29.9260 C.3   181  ILE181      0.0276
     78  CG1       33.6510  -12.7760   28.4630 C.3   181  ILE181      0.0022
     79  CG2       32.9870  -13.6270   30.7560 C.3   181  ILE181      0.0022
     80  CD1       34.9290  -13.5420   28.2800 C.3   181  ILE181      0.0001
     81  N         33.9410   -7.9380   26.5420 N.3   211  LEU211     -0.1245
     82  CA        34.8280   -8.0150   27.7120 C.3   211  LEU211      0.1561
     83  C         34.8240   -6.6690   28.3850 C.2   211  LEU211      0.2260
     84  O         35.1780   -5.6600   27.7760 O.2   211  LEU211     -0.2867
     85  CB        36.2470   -8.4150   27.2940 C.3   211  LEU211      0.0270
     86  CG        37.2610   -8.7560   28.3770 C.3   211  LEU211      0.0019
     87  CD1       36.6430   -9.7260   29.3870 C.3   211  LEU211      0.0001
     88  CD2       38.5160   -9.3910   27.7290 C.3   211  LEU211      0.0001
@<TRIPOS>BOND
     1    81    82    1
     2    85    82    1
     3    85    86    1
     4    82    83    1
     5    88    86    1
     6    84    83    2
     7    80    78    1
     8    86    87    1
     9    78    77    1
    10    75    74    1
    11    75    76    2
    12    77    74    1
    13    77    79    1
    14    74    73    1
    15    65    64    2
    16    73    64   am
    17    64    63    1
    18    35    36    1
    19    67    68    1
    20    67    66    1
    21    68    69    1
    22    63    66    1
    23    63    62    1
    24    38    37    2
    25    62    57   am
    26    36    37    1
    27    37    39   am
    28    69    70    2
    29    71    70    1
    30    57    56    1
    31    57    58    2
    32    59    60    1
    33    59    56    1
    34    59    61    1
    35    32    31    1
    36    32    33    2
    37    56    55    1
    38    70    72    1
    39    31    34    1
    40    31    30    1
    41    39    40    1
    42    40    43    1
    43    40    41    1
    44    43    44    1
    45    23    22    2
    46    46    44   ar
    47    30    22   am
    48    44    45   ar
    49    22    21    1
    50    41    47   am
    51    41    42    2
    52     1     2    1
    53    47    48    1
    54    24    21    1
    55    24    25    1
    56    53    51    1
    57    21    20    1
    58    50    49    2
    59     4     3    2
    60     5     2    1
    61     5     6    1
    62    20    17   am
    63     2     3    1
    64    51    48    1
    65    51    52    1
    66    48    49    1
    67    25    26   ar
    68    25    27   ar
    69    26    28   ar
    70    27    29   ar
    71    17    16    1
    72    17    18    2
    73    11     8   ar
    74    11    13   ar
    75     6     8   ar
    76     6     7   ar
    77    52    54    1
    78    28    29   ar
    79    16    19    1
    80    16    15    1
    81     8    10   ar
    82    13    14   ar
    83     7     9   ar
    84    10     9   ar
    85    10    12   ar
    86    14    12   ar
