@<TRIPOS>MOLECULE
tmp/4afnA00.pdb
 81 77 0 0 0
SMALL
GASTEIGER

@<TRIPOS>ATOM
      1  N         53.3480   11.1180   22.2880 N.3     7  MET7       -0.1230
      2  CA        52.3690   11.9440   21.5820 C.3     7  MET7        0.1702
      3  C         51.1650   12.2010   22.4680 C.2     7  MET7        0.2593
      4  O         51.1040   11.6820   23.5770 O.2     7  MET7       -0.2718
      5  CB        52.0000   11.2780   20.2770 C.3     7  MET7        0.0401
      6  CG        53.2340   10.9720   19.4000 C.3     7  MET7        0.0596
      7  SD        53.6800   12.3610   18.3080 S.3     7  MET7       -0.1393
      8  CE        52.2980   12.3690   17.1530 C.3     7  MET7        0.0692
      9  N         50.2280   13.0060   21.9780 N.am    8  SER8       -0.1938
     10  CA        49.0990   13.4710   22.7530 C.3     8  SER8        0.2055
     11  C         48.2670   12.3890   23.4100 C.2     8  SER8        0.2643
     12  O         47.8390   12.5540   24.5770 O.2     8  SER8       -0.2714
     13  CB        48.2080   14.4160   21.9490 C.3     8  SER8        0.2130
     14  OG        48.1380   14.0870   20.5530 O.3     8  SER8       -0.2179
     15  N         48.0630   11.2680   22.7170 N.am    9  LEU9       -0.1963
     16  CA        47.2840   10.1400   23.2980 C.3     9  LEU9        0.1728
     17  C         48.1110    8.9150   23.7340 C.2     9  LEU9        0.2616
     18  O         47.5590    7.8120   23.9660 O.2     9  LEU9       -0.2715
     19  CB        46.0900    9.7380   22.4240 C.3     9  LEU9        0.0311
     20  CG        45.5320   10.8510   21.5730 C.3     9  LEU9        0.0022
     21  CD1       44.5160   10.3500   20.6100 C.3     9  LEU9        0.0001
     22  CD2       44.9000   11.8230   22.4510 C.3     9  LEU9        0.0001
     23  N         49.4200    9.1310   23.9030 N.am   10  GLN10      -0.1977
     24  CA        50.3470    8.0550   24.2790 C.3    10  GLN10       0.1601
     25  C         49.7800    7.1540   25.3560 C.2    10  GLN10       0.2287
     26  O         49.4220    7.6430   26.4010 O.2    10  GLN10      -0.2864
     27  CB        51.6730    8.6290   24.7800 C.3    10  GLN10       0.0394
     28  CG        52.8080    7.6210   24.6190 C.3    10  GLN10       0.0908
     29  CD        53.0340    7.2760   23.1810 C.2    10  GLN10       0.2608
     30  OE1       53.0810    8.1670   22.2960 O.2    10  GLN10      -0.2717
     31  NE2       53.1530    5.9760   22.9030 N.am   10  GLN10      -0.0878
     32  N         46.8480    5.7870   26.0560 N.3    12  LYS12      -0.1245
     33  CA        45.3660    5.6560   26.0950 C.3    12  LYS12       0.1561
     34  C         44.8180    4.5040   25.2160 C.2    12  LYS12       0.2260
     35  O         45.2200    4.3570   24.0870 O.2    12  LYS12      -0.2867
     36  CB        44.7030    6.9540   25.6340 C.3    12  LYS12       0.0271
     37  CG        45.1390    8.2040   26.3260 C.3    12  LYS12       0.0035
     38  CD        44.6580    8.1680   27.7790 C.3    12  LYS12       0.0206
     39  CE        45.0610    9.4450   28.4520 C.3    12  LYS12       0.1093
     40  NZ        45.6010    9.1530   29.8420 N.3    12  LYS12      -0.1314
     41  N         39.4850    4.4560   27.0200 N.3    90  LEU90      -0.1245
     42  CA        39.3110    5.7550   27.6350 C.3    90  LEU90       0.1561
     43  C         38.8860    6.7530   26.5820 C.2    90  LEU90       0.2260
     44  O         38.4720    7.8380   26.9010 O.2    90  LEU90      -0.2867
     45  CB        40.5900    6.1950   28.3520 C.3    90  LEU90       0.0270
     46  CG        40.8660    5.4590   29.6680 C.3    90  LEU90       0.0019
     47  CD1       42.0140    6.1170   30.4480 C.3    90  LEU90       0.0001
     48  CD2       39.6250    5.3470   30.5050 C.3    90  LEU90       0.0001
     49  N         38.9020    6.0620   36.1820 N.3   137  ALA137     -0.1245
     50  CA        40.0920    6.7910   35.7400 C.3   137  ALA137      0.1562
     51  C         40.0090    8.2960   36.0480 C.2   137  ALA137      0.2260
     52  O         41.0350    8.9650   36.1350 O.2   137  ALA137     -0.2867
     53  CB        40.3400    6.5540   34.2060 C.3   137  ALA137      0.0290
     54  N         38.7830   10.3340   33.8790 N.3   139  TRP139     -0.1241
     55  CA        39.1590   10.8990   32.5860 C.3   139  TRP139      0.1605
     56  C         38.4300   10.1590   31.4750 C.2   139  TRP139      0.2264
     57  O         38.2220    8.9490   31.5640 O.2   139  TRP139     -0.2867
     58  CB        40.6720   10.7760   32.3650 C.3   139  TRP139      0.0550
     59  CG        41.1400   11.6290   31.2480 C.ar  139  TRP139      0.0003
     60  CD1       41.5400   12.9230   31.3300 C.ar  139  TRP139      0.0946
     61  CD2       41.2430   11.2630   29.8700 C.ar  139  TRP139      0.0152
     62  NE1       41.8700   13.4000   30.0880 N.ar  139  TRP139     -0.2442
     63  CE2       41.7080   12.3960   29.1720 C.ar  139  TRP139      0.0810
     64  CE3       40.9850   10.0970   29.1620 C.ar  139  TRP139      0.0012
     65  CZ2       41.9290   12.3930   27.7920 C.ar  139  TRP139      0.0191
     66  CZ3       41.1780   10.0980   27.7900 C.ar  139  TRP139      0.0001
     67  CH2       41.6600   11.2300   27.1180 C.ar  139  TRP139      0.0015
     68  N         42.3690   14.9180   22.4870 N.3   233  SER233     -0.1202
     69  CA        43.5730   15.4010   23.1820 C.3   233  SER233      0.2020
     70  C         43.2200   16.2340   24.4010 C.2   233  SER233      0.2618
     71  O         42.0550   16.6040   24.5640 O.2   233  SER233     -0.2717
     72  CB        44.3880   16.2650   22.2680 C.3   233  SER233      0.2103
     73  OG        43.7210   17.4990   22.2690 O.3   233  SER233     -0.2182
     74  N         44.2340   16.5730   25.2130 N.am  234  ASP234     -0.1973
     75  CA        44.0510   17.3710   26.4490 C.3   234  ASP234      0.1709
     76  C         43.6870   18.7950   26.0630 C.2   234  ASP234      0.2293
     77  O         43.0390   19.5180   26.8200 O.2   234  ASP234     -0.2864
     78  CB        45.3300   17.4380   27.3180 C.3   234  ASP234      0.1436
     79  CG        45.7780   16.0610   27.8570 C.2   234  ASP234      0.3671
     80  OD1       44.9020   15.2990   28.3480 O.co2 234  ASP234     -0.2456
     81  OD2       47.0060   15.7440   27.7990 O.co2 234  ASP234     -0.2456
@<TRIPOS>BOND
     1     8     7    1
     2     7     6    1
     3     6     5    1
     4     5     2    1
     5    14    13    1
     6    21    20    1
     7    20    19    1
     8    20    22    1
     9     2     1    1
    10     2     3    1
    11    13    10    1
    12     9     3   am
    13     9    10    1
    14    72    73    1
    15    72    69    1
    16    30    29    2
    17    19    16    1
    18     3     4    2
    19    68    69    1
    20    15    16    1
    21    15    11   am
    22    10    11    1
    23    31    29   am
    24    29    28    1
    25    69    70    1
    26    16    17    1
    27    11    12    2
    28    17    23   am
    29    17    18    2
    30    23    24    1
    31    35    34    2
    32    24    27    1
    33    24    25    1
    34    70    71    2
    35    70    74   am
    36    28    27    1
    37    74    75    1
    38    34    33    1
    39    25    26    2
    40    36    33    1
    41    36    37    1
    42    32    33    1
    43    76    75    1
    44    76    77    2
    45    37    38    1
    46    75    78    1
    47    43    44    2
    48    43    42    1
    49    41    42    1
    50    67    66   ar
    51    67    65   ar
    52    78    79    1
    53    42    45    1
    54    38    39    1
    55    66    64   ar
    56    65    63   ar
    57    81    79   ar
    58    79    80   ar
    59    45    46    1
    60    39    40    1
    61    64    61   ar
    62    63    61   ar
    63    63    62   ar
    64    46    47    1
    65    46    48    1
    66    61    59   ar
    67    62    60   ar
    68    59    60   ar
    69    59    58    1
    70    56    57    2
    71    56    55    1
    72    58    55    1
    73    55    54    1
    74    53    50    1
    75    50    51    1
    76    50    49    1
    77    51    52    2
