@<TRIPOS>MOLECULE
tmp/4afyB00.pdb
 212 200 0 0 0
SMALL
GASTEIGER

@<TRIPOS>ATOM
      1  N         -4.9260  -29.7620   30.9040 N.3    25  GLN25      -0.1245
      2  CA        -6.0080  -29.5920   29.9410 C.3    25  GLN25       0.1566
      3  C         -6.8930  -30.7890   30.0290 C.2    25  GLN25       0.2260
      4  O         -6.4760  -31.9110   29.7110 O.2    25  GLN25      -0.2867
      5  CB        -5.5220  -29.4150   28.4770 C.3    25  GLN25       0.0367
      6  CG        -6.6960  -28.9190   27.6050 C.3    25  GLN25       0.0905
      7  CD        -6.2880  -28.4930   26.2340 C.2    25  GLN25       0.2608
      8  OE1       -5.1450  -28.7140   25.8170 O.2    25  GLN25      -0.2717
      9  NE2       -7.2310  -27.9080   25.4910 N.am   25  GLN25      -0.0878
     10  N         -4.7480  -33.8820   30.7090 N.3    39  GLU39      -0.1245
     11  CA        -3.4300  -33.9540   30.1310 C.3    39  GLU39       0.1567
     12  C         -2.5100  -32.9940   30.8390 C.2    39  GLU39       0.2260
     13  O         -2.8860  -31.8470   31.0720 O.2    39  GLU39      -0.2867
     14  CB        -3.4790  -33.6020   28.6430 C.3    39  GLU39       0.0388
     15  CG        -2.1960  -33.9110   27.9490 C.3    39  GLU39       0.1160
     16  CD        -2.1900  -33.5000   26.4980 C.2    39  GLU39       0.3649
     17  OE1       -3.1640  -32.8550   26.0250 O.co2  39  GLU39      -0.2457
     18  OE2       -1.2020  -33.8670   25.8350 O.co2  39  GLU39      -0.2457
     19  N          0.7710  -30.6740   30.7880 N.3    41  LEU41      -0.1245
     20  CA         1.5660  -29.9260   29.8430 C.3    41  LEU41       0.1561
     21  C          2.5960  -29.1450   30.6280 C.2    41  LEU41       0.2260
     22  O          2.3330  -28.6710   31.7260 O.2    41  LEU41      -0.2867
     23  CB         0.6890  -28.9500   29.0680 C.3    41  LEU41       0.0270
     24  CG        -0.4930  -29.5990   28.3320 C.3    41  LEU41       0.0019
     25  CD1       -1.4450  -28.5020   27.7670 C.3    41  LEU41       0.0001
     26  CD2        0.0080  -30.4900   27.2380 C.3    41  LEU41       0.0001
     27  N         11.5720  -27.5790   24.3970 N.3    58  LEU58      -0.1245
     28  CA        11.5470  -29.0070   24.1170 C.3    58  LEU58       0.1561
     29  C         12.7240  -29.3810   23.2180 C.2    58  LEU58       0.2260
     30  O         13.3560  -30.4150   23.4420 O.2    58  LEU58      -0.2867
     31  CB        10.2000  -29.4340   23.5130 C.3    58  LEU58       0.0270
     32  CG         9.0640  -29.1810   24.5550 C.3    58  LEU58       0.0019
     33  CD1        7.6860  -29.3510   23.9330 C.3    58  LEU58       0.0001
     34  CD2        9.2430  -30.0740   25.8110 C.3    58  LEU58       0.0001
     35  N         16.3340  -31.6750   24.0240 N.3    62  LYS62      -0.1245
     36  CA        16.9290  -32.6970   23.2170 C.3    62  LYS62       0.1561
     37  C         18.3410  -32.3410   22.8700 C.2    62  LYS62       0.2260
     38  O         19.1690  -33.2260   22.7600 O.2    62  LYS62      -0.2867
     39  CB        16.1160  -32.9630   21.9600 C.3    62  LYS62       0.0271
     40  CG        14.7980  -33.5810   22.3040 C.3    62  LYS62       0.0035
     41  CD        13.8790  -33.6370   21.1110 C.3    62  LYS62       0.0206
     42  CE        12.5030  -34.0880   21.5580 C.3    62  LYS62       0.1093
     43  NZ        12.6610  -35.2100   22.5290 N.3    62  LYS62      -0.1314
     44  N         16.0730  -34.6560   28.0010 N.3    67  ALA67      -0.1245
     45  CA        14.6480  -35.0070   27.8250 C.3    67  ALA67       0.1562
     46  C         14.1550  -35.9420   28.9270 C.2    67  ALA67       0.2260
     47  O         13.1210  -35.7020   29.5230 O.2    67  ALA67      -0.2867
     48  CB        14.3930  -35.6220   26.4390 C.3    67  ALA67       0.0290
     49  N         11.1710  -35.3840   31.8390 N.3    71  ASP71      -0.1239
     50  CA        10.0650  -36.3090   32.0420 C.3    71  ASP71       0.1674
     51  C          9.9890  -36.7600   33.4810 C.2    71  ASP71       0.2266
     52  O          8.8950  -36.8880   34.0210 O.2    71  ASP71      -0.2867
     53  CB        10.1850  -37.5520   31.1650 C.3    71  ASP71       0.1410
     54  CG         9.9490  -37.2600   29.6890 C.2    71  ASP71       0.3668
     55  OD1        9.4490  -36.1590   29.3590 O.co2  71  ASP71      -0.2456
     56  OD2       10.2910  -38.1310   28.8770 O.co2  71  ASP71      -0.2456
     57  N          3.3000  -37.0700   29.2770 N.3    97  HIS97      -0.1226
     58  CA         4.0310  -37.3620   28.0630 C.3    97  HIS97       0.1752
     59  C          5.3530  -38.0430   28.4130 C.2    97  HIS97       0.2596
     60  O          5.9800  -37.6540   29.3890 O.2    97  HIS97      -0.2718
     61  CB         4.3720  -36.0870   27.3280 C.3    97  HIS97       0.0759
     62  CG         3.1820  -35.2960   26.8820 C.ar   97  HIS97       0.0818
     63  ND1        3.2920  -34.2230   26.0240 N.ar   97  HIS97      -0.2268
     64  CD2        1.8610  -35.4080   27.1740 C.ar   97  HIS97       0.1154
     65  CE1        2.0950  -33.7110   25.8040 C.ar   97  HIS97       0.1986
     66  NE2        1.2130  -34.4010   26.5010 N.ar   97  HIS97      -0.2212
     67  N          5.7810  -39.0050   27.5910 N.am   98  LEU98      -0.1966
     68  CA         7.1170  -39.5940   27.6820 C.3    98  LEU98       0.1728
     69  C          7.8230  -39.3540   26.3970 C.2    98  LEU98       0.2617
     70  O          7.2670  -39.6260   25.3160 O.2    98  LEU98      -0.2715
     71  CB         7.0510  -41.1020   27.9050 C.3    98  LEU98       0.0311
     72  CG         6.6670  -41.6270   29.2750 C.3    98  LEU98       0.0022
     73  CD1        6.6580  -43.1210   29.2350 C.3    98  LEU98       0.0001
     74  CD2        7.6320  -41.1200   30.3510 C.3    98  LEU98       0.0001
     75  N          9.0410  -38.8250   26.5040 N.am   99  SER99      -0.1936
     76  CA         9.8900  -38.5630   25.3410 C.3    99  SER99       0.2055
     77  C         10.4890  -39.8580   24.8160 C.2    99  SER99       0.2643
     78  O         10.4490  -40.8760   25.4920 O.2    99  SER99      -0.2714
     79  CB        11.0390  -37.6380   25.7360 C.3    99  SER99       0.2130
     80  OG        11.8370  -38.2670   26.7370 O.3    99  SER99      -0.2179
     81  N         11.0540  -39.8230   23.6050 N.am  100  SER100     -0.1949
     82  CA        11.6760  -41.0030   23.0490 C.3   100  SER100      0.1924
     83  C         12.9080  -41.3910   23.8890 C.2   100  SER100      0.2314
     84  O         13.2570  -42.5490   23.9460 O.2   100  SER100     -0.2863
     85  CB        12.0850  -40.8080   21.5830 C.3   100  SER100      0.2116
     86  OG        13.0740  -39.8110   21.4660 O.3   100  SER100     -0.2180
     87  N          1.7930  -41.2890   27.8820 N.3   129  GLN129     -0.1231
     88  CA         1.4100  -40.9920   26.5250 C.3   129  GLN129      0.1698
     89  C          2.6740  -40.9100   25.6810 C.2   129  GLN129      0.2592
     90  O          3.5430  -40.0640   25.8860 O.2   129  GLN129     -0.2718
     91  CB         0.6770  -39.6510   26.5270 C.3   129  GLN129      0.0381
     92  CG         0.0560  -39.2500   25.2260 C.3   129  GLN129      0.0905
     93  CD        -0.8920  -38.0730   25.4180 C.2   129  GLN129      0.2608
     94  OE1       -1.9260  -38.1810   26.0690 O.2   129  GLN129     -0.2717
     95  NE2       -0.5030  -36.9380   24.8950 N.am  129  GLN129     -0.0878
     96  N          2.7330  -41.7960   24.7120 N.am  130  ILE130     -0.1966
     97  CA         3.8130  -41.8760   23.7810 C.3   130  ILE130      0.1727
     98  C          3.3260  -41.5400   22.3790 C.2   130  ILE130      0.2616
     99  O          2.2660  -41.9930   21.9610 O.2   130  ILE130     -0.2715
    100  CB         4.3260  -43.3210   23.7710 C.3   130  ILE130      0.0290
    101  CG1        4.5630  -43.7880   25.2300 C.3   130  ILE130      0.0022
    102  CG2        5.5370  -43.3990   22.9640 C.3   130  ILE130      0.0023
    103  CD1        4.8360  -45.2860   25.3740 C.3   130  ILE130      0.0001
    104  N          4.0920  -40.7650   21.6310 N.am  131  SER131     -0.1950
    105  CA         3.6670  -40.4420   20.2790 C.3   131  SER131      0.1924
    106  C          3.7260  -41.6720   19.3870 C.2   131  SER131      0.2314
    107  O          4.5350  -42.5750   19.6040 O.2   131  SER131     -0.2863
    108  CB         4.5160  -39.3110   19.6930 C.3   131  SER131      0.2116
    109  OG         5.8310  -39.7680   19.4150 O.3   131  SER131     -0.2180
    110  N          4.9280  -41.8620   16.4400 N.3   133  ALA133     -0.1231
    111  CA         6.2150  -41.9370   15.7590 C.3   133  ALA133      0.1694
    112  C          7.2320  -42.6030   16.6890 C.2   133  ALA133      0.2592
    113  O          7.9790  -43.5030   16.2800 O.2   133  ALA133     -0.2718
    114  CB         6.6870  -40.5420   15.3600 C.3   133  ALA133      0.0304
    115  N          7.2530  -42.1750   17.9530 N.am  134  ASP134     -0.1974
    116  CA         8.1850  -42.7850   18.9110 C.3   134  ASP134      0.1709
    117  C          7.8940  -44.2760   19.0970 C.2   134  ASP134      0.2293
    118  O          8.8130  -45.0910   18.9920 O.2   134  ASP134     -0.2864
    119  CB         8.1920  -42.0490   20.2470 C.3   134  ASP134      0.1436
    120  CG         8.8490  -40.6960   20.1500 C.2   134  ASP134      0.3671
    121  OD1        9.4720  -40.4070   19.1100 O.co2 134  ASP134     -0.2456
    122  OD2        8.7760  -39.9280   21.1180 O.co2 134  ASP134     -0.2456
    123  N         -0.4410  -41.2650   21.1140 N.3   159  SER159     -0.1202
    124  CA        -0.9790  -40.0280   20.5590 C.3   159  SER159      0.2020
    125  C         -0.4800  -39.7910   19.1390 C.2   159  SER159      0.2618
    126  O          0.3240  -40.5680   18.6160 O.2   159  SER159     -0.2717
    127  CB        -0.6050  -38.8550   21.4330 C.3   159  SER159      0.2103
    128  OG         0.7920  -38.7960   21.5890 O.3   159  SER159     -0.2182
    129  N         -0.9410  -38.7090   18.5390 N.am  160  GLN160     -0.1979
    130  CA        -0.8320  -38.4920   17.0890 C.3   160  GLN160      0.1601
    131  C         -1.0180  -39.8000   16.2430 C.2   160  GLN160      0.2287
    132  O         -0.2570  -40.0840   15.3140 O.2   160  GLN160     -0.2864
    133  CB         0.5160  -37.8270   16.7610 C.3   160  GLN160      0.0394
    134  CG         0.6800  -36.4160   17.4200 C.3   160  GLN160      0.0908
    135  CD         0.9230  -36.5230   18.9420 C.2   160  GLN160      0.2608
    136  OE1        0.3450  -35.7870   19.7470 O.2   160  GLN160     -0.2717
    137  NE2        1.7730  -37.4500   19.3280 N.am  160  GLN160     -0.0878
    138  N         -5.1120  -41.4630   21.0030 N.3   180  LYS180     -0.1231
    139  CA        -5.3760  -40.0520   20.8020 C.3   180  LYS180      0.1693
    140  C         -5.0630  -39.7890   19.3410 C.2   180  LYS180      0.2592
    141  O         -3.9170  -39.8900   18.8810 O.2   180  LYS180     -0.2718
    142  CB        -4.5350  -39.1420   21.7400 C.3   180  LYS180      0.0285
    143  CG        -4.9320  -37.6430   21.7590 C.3   180  LYS180      0.0035
    144  CD        -4.1600  -36.8280   22.8200 C.3   180  LYS180      0.0206
    145  CE        -4.7400  -35.4730   22.9900 C.3   180  LYS180      0.1093
    146  NZ        -4.0290  -34.5700   23.9330 N.3   180  LYS180     -0.1314
    147  N         -6.1300  -39.5010   18.6150 N.am  181  ILE181     -0.1966
    148  CA        -6.1090  -39.3970   17.1810 C.3   181  ILE181      0.1727
    149  C         -5.3770  -38.1290   16.7640 C.2   181  ILE181      0.2616
    150  O         -5.5160  -37.0710   17.4020 O.2   181  ILE181     -0.2715
    151  CB        -7.5820  -39.4610   16.6710 C.3   181  ILE181      0.0290
    152  CG1       -8.1020  -40.8930   16.8660 C.3   181  ILE181      0.0022
    153  CG2       -7.6790  -39.0620   15.2400 C.3   181  ILE181      0.0023
    154  CD1       -9.6080  -41.0790   16.6920 C.3   181  ILE181      0.0001
    155  N         -4.5510  -38.2510   15.7310 N.am  182  ASP182     -0.1957
    156  CA        -3.8460  -37.1040   15.1780 C.3   182  ASP182      0.1840
    157  C         -4.8210  -35.9990   14.7050 C.2   182  ASP182      0.2623
    158  O         -5.8610  -36.2840   14.1160 O.2   182  ASP182     -0.2715
    159  CB        -2.9690  -37.5110   14.0070 C.3   182  ASP182      0.1450
    160  CG        -2.0010  -36.4490   13.6470 C.2   182  ASP182      0.3671
    161  OD1       -1.0670  -36.2620   14.4380 O.co2 182  ASP182     -0.2456
    162  OD2       -2.1950  -35.7510   12.6390 O.co2 182  ASP182     -0.2456
    163  N         -4.4780  -34.7530   15.0190 N.am  183  GLY183     -0.1940
    164  CA        -5.2310  -33.5740   14.6370 C.3   183  GLY183      0.2014
    165  C         -5.5310  -33.4780   13.1410 C.2   183  GLY183      0.2639
    166  O         -6.4840  -32.8110   12.7670 O.2   183  GLY183     -0.2714
    167  N         -4.7400  -34.1510   12.3120 N.am  184  SER184     -0.1949
    168  CA        -4.9350  -34.1070   10.8600 C.3   184  SER184      0.1924
    169  C         -6.3070  -34.6480   10.5020 C.2   184  SER184      0.2314
    170  O         -6.9120  -34.2110    9.5360 O.2   184  SER184     -0.2863
    171  CB        -3.8140  -34.8410   10.1040 C.3   184  SER184      0.2116
    172  OG        -3.7380  -36.2260   10.4000 O.3   184  SER184     -0.2180
    173  N         -8.7210  -34.6990   19.7400 N.3   215  PRO215     -0.2102
    174  CA        -8.3120  -33.3660   20.1890 C.3   215  PRO215      0.1504
    175  C         -8.7740  -32.2600   19.2360 C.2   215  PRO215      0.2575
    176  O         -9.3830  -32.5740   18.2160 O.2   215  PRO215     -0.2718
    177  CB        -6.7980  -33.4510   20.1690 C.3   215  PRO215      0.0282
    178  CG        -6.5110  -34.3460   19.0110 C.3   215  PRO215      0.0208
    179  CD        -7.6830  -35.3350   18.9280 C.3   215  PRO215      0.0893
    180  N         -8.5000  -31.0190   19.6120 N.am  216  PHE216     -0.1977
    181  CA        -8.8460  -29.8370   18.8310 C.3   216  PHE216      0.1639
    182  C        -10.3430  -29.6170   18.6220 C.2   216  PHE216      0.2290
    183  O        -10.7790  -29.2240   17.5260 O.2   216  PHE216     -0.2864
    184  CB        -8.1130  -29.8560   17.4930 C.3   216  PHE216      0.0560
    185  CG        -6.6250  -29.8300   17.6570 C.ar  216  PHE216     -0.0200
    186  CD1       -5.9950  -28.7160   18.1490 C.ar  216  PHE216     -0.0042
    187  CD2       -5.8760  -30.9630   17.3960 C.ar  216  PHE216     -0.0042
    188  CE1       -4.5910  -28.6950   18.3360 C.ar  216  PHE216     -0.0003
    189  CE2       -4.4920  -30.9500   17.5680 C.ar  216  PHE216     -0.0003
    190  CZ        -3.8610  -29.8220   18.0520 C.ar  216  PHE216     -0.0000
    191  N        -12.7320  -27.1780   18.7610 N.3   218  GLU218     -0.1245
    192  CA       -12.5810  -25.7420   18.8310 C.3   218  GLU218      0.1567
    193  C        -13.9340  -24.9630   18.7910 C.2   218  GLU218      0.2260
    194  O        -13.9520  -23.7420   18.9330 O.2   218  GLU218     -0.2867
    195  CB       -11.6990  -25.2900   17.6650 C.3   218  GLU218      0.0388
    196  CG       -10.3390  -25.9570   17.6470 C.3   218  GLU218      0.1160
    197  CD        -9.5630  -25.7500   18.9230 C.2   218  GLU218      0.3649
    198  OE1       -9.7460  -24.7120   19.5900 O.co2 218  GLU218     -0.2457
    199  OE2       -8.7730  -26.6480   19.2970 O.co2 218  GLU218     -0.2457
    200  N        -11.1260  -33.2990   23.5880 N.3   235  GLN235     -0.1231
    201  CA       -10.3330  -32.2790   24.2200 C.3   235  GLN235      0.1698
    202  C        -10.2870  -31.1060   23.2870 C.2   235  GLN235      0.2592
    203  O        -10.3060  -31.2840   22.0700 O.2   235  GLN235     -0.2718
    204  CB        -8.9160  -32.8390   24.4280 C.3   235  GLN235      0.0381
    205  CG        -8.0300  -31.9310   25.2000 C.3   235  GLN235      0.0905
    206  CD        -6.5720  -32.4400   25.2370 C.2   235  GLN235      0.2608
    207  OE1       -6.0040  -32.7560   24.2140 O.2   235  GLN235     -0.2717
    208  NE2       -6.0000  -32.5290   26.4240 N.am  235  GLN235     -0.0878
    209  N        -10.2560  -29.9070   23.8440 N.am  236  GLY236     -0.1957
    210  CA       -10.0670  -28.7320   23.0460 C.3   236  GLY236      0.1869
    211  C        -10.4550  -27.4730   23.8010 C.2   236  GLY236      0.2309
    212  O        -11.1320  -27.4850   24.8610 O.2   236  GLY236     -0.2863
@<TRIPOS>BOND
     1   170   169    2
     2   171   172    1
     3   171   168    1
     4   169   168    1
     5   168   167    1
     6   167   165   am
     7   162   160   ar
     8   166   165    2
     9   165   164    1
    10   160   159    1
    11   160   161   ar
    12   159   156    1
    13   158   157    2
    14   164   163    1
    15   157   163   am
    16   157   156    1
    17   156   155    1
    18   153   151    1
    19   132   131    2
    20   114   111    1
    21   155   149   am
    22   111   110    1
    23   111   112    1
    24   131   130    1
    25   113   112    2
    26   151   152    1
    27   151   148    1
    28   112   115   am
    29   154   152    1
    30   133   130    1
    31   133   134    1
    32   149   148    1
    33   149   150    2
    34   130   129    1
    35   148   147    1
    36   187   189   ar
    37   187   185   ar
    38   134   135    1
    39   184   185    1
    40   184   181    1
    41   183   182    2
    42   189   190   ar
    43   196   195    1
    44   196   197    1
    45   185   186   ar
    46   195   192    1
    47   115   116    1
    48   190   188   ar
    49   186   188   ar
    50   176   175    2
    51   129   125   am
    52   147   140   am
    53   126   125    2
    54   182   181    1
    55   191   192    1
    56   193   192    1
    57   193   194    2
    58   181   180    1
    59   141   140    2
    60   116   117    1
    61   116   119    1
    62   197   199   ar
    63   197   198   ar
    64   179   178    1
    65   179   173    1
    66   135   137   am
    67   135   136    2
    68   118   117    2
    69   178   177    1
    70   121   120   ar
    71   125   124    1
    72   175   180   am
    73   175   174    1
    74   140   139    1
    75   106   107    2
    76   106   105    1
    77   109   108    1
    78   108   105    1
    79   173   174    1
    80   120   119    1
    81   120   122   ar
    82   177   174    1
    83   105   104    1
    84   124   123    1
    85   124   127    1
    86   139   138    1
    87   139   142    1
    88    41    42    1
    89    41    40    1
    90   127   128    1
    91    86    85    1
    92    42    43    1
    93    85    82    1
    94   104    98   am
    95   142   143    1
    96   143   144    1
    97    39    40    1
    98    39    36    1
    99    99    98    2
   100   203   202    2
   101    98    97    1
   102    38    37    2
   103   144   145    1
   104    37    36    1
   105   102   100    1
   106   145   146    1
   107   210   211    1
   108   210   209    1
   109    82    81    1
   110    82    83    1
   111    36    35    1
   112    29    30    2
   113    29    28    1
   114   202   209   am
   115   202   201    1
   116    31    28    1
   117    31    32    1
   118   200   201    1
   119    81    77   am
   120   100    97    1
   121   100   101    1
   122    97    96    1
   123   211   212    2
   124    83    84    2
   125    33    32    1
   126    28    27    1
   127   207   206    2
   128   201   204    1
   129   204   205    1
   130    32    34    1
   131    96    89   am
   132    77    76    1
   133    77    78    2
   134    95    93   am
   135   205   206    1
   136    92    93    1
   137    92    91    1
   138   101   103    1
   139   206   208   am
   140    70    69    2
   141    76    79    1
   142    76    75    1
   143    93    94    2
   144     9     7   am
   145    89    90    2
   146    89    88    1
   147    79    80    1
   148    65    63   ar
   149    65    66   ar
   150     8     7    2
   151    18    16   ar
   152    63    62   ar
   153    17    16   ar
   154     7     6    1
   155    69    75   am
   156    69    68    1
   157    48    45    1
   158    16    15    1
   159    66    64   ar
   160    88    91    1
   161    88    87    1
   162    62    64   ar
   163    62    61    1
   164    26    24    1
   165    61    58    1
   166    67    68    1
   167    67    59   am
   168     6     5    1
   169    68    71    1
   170    25    24    1
   171    45    44    1
   172    45    46    1
   173    71    72    1
   174    15    14    1
   175    58    59    1
   176    58    57    1
   177    24    23    1
   178    59    60    2
   179     5     2    1
   180    14    11    1
   181    56    54   ar
   182    46    47    2
   183    23    20    1
   184    73    72    1
   185    72    74    1
   186    55    54   ar
   187    54    53    1
   188     4     3    2
   189    20    21    1
   190    20    19    1
   191     2     3    1
   192     2     1    1
   193    11    10    1
   194    11    12    1
   195    21    22    2
   196    12    13    2
   197    53    50    1
   198    49    50    1
   199    50    51    1
   200    51    52    2
