@<TRIPOS>MOLECULE
tmp/4ag3A02.pdb
 101 98 0 0 0
SMALL
GASTEIGER

@<TRIPOS>ATOM
      1  N        -26.4390    3.5150  -18.3930 N.3     3  LEU3       -0.1231
      2  CA       -25.8960    4.8430  -18.1280 C.3     3  LEU3        0.1693
      3  C        -24.6710    5.1460  -18.9910 C.2     3  LEU3        0.2592
      4  O        -23.6490    4.4460  -18.9170 O.2     3  LEU3       -0.2718
      5  CB       -25.5760    4.9930  -16.6290 C.3     3  LEU3        0.0284
      6  CG       -25.3530    6.3570  -15.9440 C.3     3  LEU3        0.0019
      7  CD1      -26.3210    7.4450  -16.3900 C.3     3  LEU3        0.0001
      8  CD2      -25.4250    6.1810  -14.4190 C.3     3  LEU3        0.0001
      9  N        -24.7750    6.1970  -19.8030 N.am    4  TYR4       -0.1962
     10  CA       -23.6910    6.6090  -20.6930 C.3     4  TYR4        0.1771
     11  C        -23.0560    7.9350  -20.2870 C.2     4  TYR4        0.2620
     12  O        -23.6440    9.0040  -20.4540 O.2     4  TYR4       -0.2715
     13  CB       -24.1840    6.6230  -22.1520 C.3     4  TYR4        0.0574
     14  CG       -24.4320    5.2100  -22.6440 C.ar    4  TYR4       -0.0198
     15  CD1      -25.5870    4.5230  -22.2920 C.ar    4  TYR4       -0.0009
     16  CD2      -23.4590    4.5280  -23.3930 C.ar    4  TYR4       -0.0009
     17  CE1      -25.7990    3.2100  -22.7010 C.ar    4  TYR4        0.0417
     18  CE2      -23.6660    3.2130  -23.8160 C.ar    4  TYR4        0.0417
     19  CZ       -24.8290    2.5620  -23.4620 C.ar    4  TYR4        0.1957
     20  OH       -25.0580    1.2580  -23.8630 O.3     4  TYR4       -0.2866
     21  N        -21.8370    7.8680  -19.7610 N.am    5  PHE5       -0.1960
     22  CA       -21.1220    9.0730  -19.3550 C.3     5  PHE5        0.1771
     23  C        -20.4690    9.7420  -20.5510 C.2     5  PHE5        0.2619
     24  O        -20.3080    9.1250  -21.5990 O.2     5  PHE5       -0.2715
     25  CB       -20.0890    8.7500  -18.2680 C.3     5  PHE5        0.0574
     26  CG       -20.7160    8.3600  -16.9820 C.ar    5  PHE5       -0.0200
     27  CD1      -21.3390    9.3140  -16.1920 C.ar    5  PHE5       -0.0042
     28  CD2      -20.7470    7.0210  -16.5860 C.ar    5  PHE5       -0.0042
     29  CE1      -21.9670    8.9560  -15.0050 C.ar    5  PHE5       -0.0003
     30  CE2      -21.3580    6.6420  -15.3930 C.ar    5  PHE5       -0.0003
     31  CZ       -21.9740    7.6160  -14.5990 C.ar    5  PHE5       -0.0000
     32  N        -20.1120   11.0090  -20.3830 N.am    6  GLN6       -0.1963
     33  CA       -19.4580   11.7810  -21.4230 C.3     6  GLN6        0.1733
     34  C        -18.0330   11.2850  -21.6670 C.2     6  GLN6        0.2617
     35  O        -17.3420   10.8450  -20.7410 O.2     6  GLN6       -0.2715
     36  CB       -19.4750   13.2600  -21.0470 C.3     6  GLN6        0.0408
     37  CG       -20.8820   13.8540  -21.2240 C.3     6  GLN6        0.0908
     38  CD       -21.0500   15.2540  -20.6420 C.2     6  GLN6        0.2608
     39  OE1      -20.4170   15.6110  -19.6600 O.2     6  GLN6       -0.2717
     40  NE2      -21.9240   16.0440  -21.2470 N.am    6  GLN6       -0.0878
     41  N        -17.6200   11.2950  -22.9280 N.am    7  SER7       -0.1936
     42  CA       -16.2650   10.8670  -23.2660 C.3     7  SER7        0.2055
     43  C        -15.2970   11.8930  -22.6970 C.2     7  SER7        0.2642
     44  O        -15.5930   13.1000  -22.6760 O.2     7  SER7       -0.2714
     45  CB       -16.1240   10.7840  -24.7900 C.3     7  SER7        0.2130
     46  OG       -16.1310   12.0960  -25.3290 O.3     7  SER7       -0.2179
     47  N        -14.1560   11.4060  -22.2080 N.am    8  MET8       -0.1976
     48  CA       -13.1680   12.2460  -21.5770 C.3     8  MET8        0.1605
     49  C        -11.9490   12.4950  -22.4930 C.2     8  MET8        0.2287
     50  O        -11.8930   12.0280  -23.6280 O.2     8  MET8       -0.2864
     51  CB       -12.7720   11.6430  -20.2030 C.3     8  MET8        0.0413
     52  CG       -13.9860   11.4490  -19.2930 C.3     8  MET8        0.0598
     53  SD       -14.4640   13.0170  -18.4840 S.3     8  MET8       -0.1393
     54  CE       -13.3150   12.9890  -17.0980 C.3     8  MET8        0.0692
     55  N        -10.2350    9.4830  -24.1950 N.3    11  GLN11      -0.1245
     56  CA       -11.1620    8.4020  -24.4640 C.3    11  GLN11       0.1566
     57  C        -10.6240    7.3770  -25.4710 C.2    11  GLN11       0.2260
     58  O        -10.3530    7.7260  -26.6390 O.2    11  GLN11      -0.2867
     59  CB       -12.5040    8.9620  -24.9690 C.3    11  GLN11       0.0367
     60  CG       -13.6610    7.9870  -24.6840 C.3    11  GLN11       0.0905
     61  CD       -13.8010    7.6920  -23.2060 C.2    11  GLN11       0.2608
     62  OE1      -13.7810    8.6010  -22.3600 O.2    11  GLN11      -0.2717
     63  NE2      -13.9590    6.4200  -22.8810 N.am   11  GLN11      -0.0878
     64  N         -6.9930    6.5500  -16.4640 N.3    33  GLY33      -0.1210
     65  CA        -8.2470    5.7380  -16.5000 C.3    33  GLY33       0.1956
     66  C         -9.4900    6.5940  -16.3440 C.2    33  GLY33       0.2611
     67  O        -10.4390    6.4460  -17.1090 O.2    33  GLY33      -0.2717
     68  N         -9.4620    7.5270  -15.3810 N.am   34  ARG34      -0.1979
     69  CA       -10.5710    8.4720  -15.1750 C.3    34  ARG34       0.1597
     70  C        -10.8200    9.3030  -16.4430 C.2    34  ARG34       0.2287
     71  O        -11.9740    9.6920  -16.7400 O.2    34  ARG34      -0.2864
     72  CB       -10.2660    9.3850  -13.9740 C.3    34  ARG34       0.0334
     73  CG       -11.3520   10.3960  -13.6080 C.3    34  ARG34       0.0492
     74  CD       -10.8690   11.4390  -12.5590 C.3    34  ARG34       0.2205
     75  NE        -9.9910   12.4810  -13.1140 N.pl3  34  ARG34      -0.0865
     76  CZ       -10.3970   13.5620  -13.7850 C.cat  34  ARG34       0.5346
     77  NH1      -11.6750   13.7660  -14.0470 N.pl3  34  ARG34       0.1354
     78  NH2       -9.5130   14.4320  -14.2330 N.pl3  34  ARG34       0.1354
     79  N        -10.4910    8.2040  -19.4170 N.3    36  GLY36      -0.1225
     80  CA       -11.0360    7.3680  -20.5050 C.3    36  GLY36       0.1811
     81  C        -10.0250    6.4730  -21.1990 C.2    36  GLY36       0.2280
     82  O        -10.3830    5.7630  -22.1430 O.2    36  GLY36      -0.2866
     83  N        -11.9560    0.6080   -9.7030 N.3    59  ASN59      -0.1225
     84  CA       -12.2240    1.9650  -10.1560 C.3    59  ASN59       0.1785
     85  C        -12.9550    2.0570  -11.5050 C.2    59  ASN59       0.2598
     86  O        -13.1520    3.1460  -12.0300 O.2    59  ASN59      -0.2718
     87  CB       -10.9300    2.7750  -10.1630 C.3    59  ASN59       0.1169
     88  CG       -10.4730    3.1500   -8.7490 C.2    59  ASN59       0.2627
     89  OD1      -10.8200    4.2170   -8.2500 O.2    59  ASN59      -0.2716
     90  ND2       -9.7080    2.2600   -8.0960 N.am   59  ASN59      -0.0877
     91  N        -13.3570    0.9020  -12.0340 N.am   60  GLY60      -0.1942
     92  CA       -14.1340    0.7980  -13.2860 C.3    60  GLY60       0.2014
     93  C        -13.3140    1.1690  -14.5160 C.2    60  GLY60       0.2638
     94  O        -13.8600    1.6760  -15.5110 O.2    60  GLY60      -0.2714
     95  N        -11.9990    0.9350  -14.4370 N.am   61  VAL61      -0.1977
     96  CA       -11.0900    1.2480  -15.5220 C.3    61  VAL61       0.1596
     97  C        -10.7550   -0.0540  -16.2600 C.2    61  VAL61       0.2287
     98  O        -10.3490   -1.0480  -15.6340 O.2    61  VAL61      -0.2864
     99  CB        -9.7560    1.8870  -15.0040 C.3    61  VAL61       0.0276
    100  CG1       -8.7320    2.1190  -16.1900 C.3    61  VAL61       0.0022
    101  CG2      -10.0010    3.2010  -14.2100 C.3    61  VAL61       0.0022
@<TRIPOS>BOND
     1    58    57    2
     2    57    56    1
     3    46    45    1
     4    59    60    1
     5    59    56    1
     6    45    42    1
     7    60    61    1
     8    56    55    1
     9    20    19    1
    10    18    19   ar
    11    18    16   ar
    12    50    49    2
    13    19    17   ar
    14    16    14   ar
    15    42    41    1
    16    42    43    1
    17    61    63   am
    18    61    62    2
    19    41    34   am
    20    17    15   ar
    21    43    44    2
    22    43    47   am
    23    14    15   ar
    24    14    13    1
    25    49    48    1
    26    47    48    1
    27    13    10    1
    28    82    81    2
    29    34    33    1
    30    34    35    2
    31    24    23    2
    32    48    51    1
    33    33    36    1
    34    33    32    1
    35    40    38   am
    36    37    36    1
    37    37    38    1
    38    81    80    1
    39    10    11    1
    40    10     9    1
    41    38    39    2
    42    23    32   am
    43    23    22    1
    44    80    79    1
    45    12    11    2
    46    11    21   am
    47    51    52    1
    48     9     3   am
    49    21    22    1
    50    22    25    1
    51    52    53    1
    52     3     4    2
    53     3     2    1
    54    53    54    1
    55     1     2    1
    56    25    26    1
    57     2     5    1
    58    67    66    2
    59    26    28   ar
    60    26    27   ar
    61    71    70    2
    62     5     6    1
    63    28    30   ar
    64    65    64    1
    65    65    66    1
    66    70    69    1
    67     7     6    1
    68    66    68   am
    69    97    98    2
    70    97    96    1
    71    27    29   ar
    72   100    99    1
    73     6     8    1
    74    96    99    1
    75    96    95    1
    76    94    93    2
    77    30    31   ar
    78    68    69    1
    79    69    72    1
    80    29    31   ar
    81    99   101    1
    82    93    95   am
    83    93    92    1
    84    78    76    1
    85    77    76    1
    86    72    73    1
    87    76    75    2
    88    73    74    1
    89    92    91    1
    90    75    74    1
    91    91    85   am
    92    86    85    2
    93    85    84    1
    94    87    84    1
    95    87    88    1
    96    84    83    1
    97    88    89    2
    98    88    90   am
