@<TRIPOS>MOLECULE
tmp/4ag3A01.pdb
 79 76 0 0 0
SMALL
GASTEIGER

@<TRIPOS>ATOM
      1  N        -14.1560   11.4060  -22.2080 N.3     8  MET8       -0.1230
      2  CA       -13.1680   12.2460  -21.5770 C.3     8  MET8        0.1702
      3  C        -11.9490   12.4950  -22.4930 C.2     8  MET8        0.2593
      4  O        -11.8930   12.0280  -23.6280 O.2     8  MET8       -0.2718
      5  CB       -12.7720   11.6430  -20.2030 C.3     8  MET8        0.0401
      6  CG       -13.9860   11.4490  -19.2930 C.3     8  MET8        0.0596
      7  SD       -14.4640   13.0170  -18.4840 S.3     8  MET8       -0.1393
      8  CE       -13.3150   12.9890  -17.0980 C.3     8  MET8        0.0692
      9  N        -10.9920   13.2750  -22.0010 N.am    9  SER9       -0.1938
     10  CA        -9.9380   13.7890  -22.8530 C.3     9  SER9        0.2055
     11  C         -9.0360   12.7120  -23.5020 C.2     9  SER9        0.2643
     12  O         -8.4160   12.9850  -24.5410 O.2     9  SER9       -0.2714
     13  CB        -9.0870   14.8030  -22.0810 C.3     9  SER9        0.2130
     14  OG        -8.3640   14.1290  -21.0670 O.3     9  SER9       -0.2179
     15  N         -8.9820   11.5060  -22.9220 N.am   10  LEU10      -0.1963
     16  CA        -8.1290   10.4450  -23.4420 C.3    10  LEU10       0.1728
     17  C         -8.9490    9.2520  -23.9250 C.2    10  LEU10       0.2616
     18  O         -8.4320    8.1390  -24.0560 O.2    10  LEU10      -0.2715
     19  CB        -7.0610    9.9990  -22.4120 C.3    10  LEU10       0.0311
     20  CG        -6.3070   11.1200  -21.6750 C.3    10  LEU10       0.0022
     21  CD1       -5.3620   10.5770  -20.5980 C.3    10  LEU10       0.0001
     22  CD2       -5.5440   12.0720  -22.6530 C.3    10  LEU10       0.0001
     23  N        -10.2350    9.4830  -24.1950 N.am   11  GLN11      -0.1963
     24  CA       -11.1620    8.4020  -24.4640 C.3    11  GLN11       0.1733
     25  C        -10.6240    7.3770  -25.4710 C.2    11  GLN11       0.2617
     26  O        -10.3530    7.7260  -26.6390 O.2    11  GLN11      -0.2715
     27  CB       -12.5040    8.9620  -24.9690 C.3    11  GLN11       0.0408
     28  CG       -13.6610    7.9870  -24.6840 C.3    11  GLN11       0.0908
     29  CD       -13.8010    7.6920  -23.2060 C.2    11  GLN11       0.2608
     30  OE1      -13.7810    8.6010  -22.3600 O.2    11  GLN11      -0.2717
     31  NE2      -13.9590    6.4200  -22.8810 N.am   11  GLN11      -0.0878
     32  N        -10.4830    6.1280  -25.0140 N.am   12  GLY12      -0.1940
     33  CA       -10.1350    5.0200  -25.9010 C.3    12  GLY12       0.2014
     34  C         -8.6420    4.8950  -26.2030 C.2    12  GLY12       0.2638
     35  O         -8.2570    3.9280  -26.8570 O.2    12  GLY12      -0.2714
     36  N         -7.8090    5.8390  -25.7390 N.am   13  LYS13      -0.1977
     37  CA        -6.3540    5.7490  -25.9710 C.3    13  LYS13       0.1596
     38  C         -5.7800    4.6050  -25.1350 C.2    13  LYS13       0.2287
     39  O         -6.1020    4.4840  -23.9520 O.2    13  LYS13      -0.2864
     40  CB        -5.6140    7.0580  -25.6270 C.3    13  LYS13       0.0298
     41  CG        -5.9520    8.2700  -26.5700 C.3    13  LYS13       0.0038
     42  CD        -5.3740    8.0550  -27.9610 C.3    13  LYS13       0.0206
     43  CE        -5.6160    9.2820  -28.8750 C.3    13  LYS13       0.1093
     44  NZ        -6.9730    9.2910  -29.5580 N.3    13  LYS13      -0.1314
     45  N         -0.3580    4.4890  -27.1470 N.3    91  LEU91      -0.1245
     46  CA        -0.1300    5.8230  -27.7470 C.3    91  LEU91       0.1561
     47  C          0.2430    6.8650  -26.7010 C.2    91  LEU91       0.2260
     48  O          0.6810    7.9810  -27.0290 O.2    91  LEU91      -0.2867
     49  CB        -1.3650    6.2880  -28.5280 C.3    91  LEU91       0.0270
     50  CG        -1.6590    5.4180  -29.7650 C.3    91  LEU91       0.0019
     51  CD1       -2.8340    6.0480  -30.5560 C.3    91  LEU91       0.0001
     52  CD2       -0.4100    5.3630  -30.6560 C.3    91  LEU91       0.0001
     53  N          0.0880    6.1000  -36.1500 N.3   138  ALA138     -0.1245
     54  CA        -1.1280    6.8130  -35.7490 C.3   138  ALA138      0.1562
     55  C         -1.0550    8.3190  -36.0060 C.2   138  ALA138      0.2260
     56  O         -2.0770    9.0040  -35.9980 O.2   138  ALA138     -0.2867
     57  CB        -1.4300    6.5680  -34.2650 C.3   138  ALA138      0.0290
     58  N          0.1270   10.3410  -33.8520 N.3   140  TRP140     -0.1241
     59  CA        -0.2140   10.9670  -32.5810 C.3   140  TRP140      0.1605
     60  C          0.4780   10.1460  -31.5130 C.2   140  TRP140      0.2264
     61  O          0.5210    8.9080  -31.6140 O.2   140  TRP140     -0.2867
     62  CB        -1.7450   10.9330  -32.3420 C.3   140  TRP140      0.0550
     63  CG        -2.1940   11.7700  -31.2130 C.ar  140  TRP140      0.0003
     64  CD1       -2.6210   13.0740  -31.2630 C.ar  140  TRP140      0.0946
     65  CD2       -2.2930   11.3670  -29.8350 C.ar  140  TRP140      0.0152
     66  NE1       -2.9540   13.5100  -29.9850 N.ar  140  TRP140     -0.2442
     67  CE2       -2.7800   12.4770  -29.1040 C.ar  140  TRP140      0.0810
     68  CE3       -2.0280   10.1740  -29.1600 C.ar  140  TRP140      0.0012
     69  CZ2       -2.9880   12.4350  -27.7140 C.ar  140  TRP140      0.0191
     70  CZ3       -2.2210   10.1310  -27.7840 C.ar  140  TRP140      0.0001
     71  CH2       -2.7050   11.2560  -27.0750 C.ar  140  TRP140      0.0015
     72  N         -4.9900   16.5540  -25.6580 N.3   235  ASP235     -0.1239
     73  CA        -4.7650   17.5160  -26.7680 C.3   235  ASP235      0.1674
     74  C         -4.7160   18.9620  -26.3040 C.2   235  ASP235      0.2266
     75  O         -4.2610   19.8380  -27.0270 O.2   235  ASP235     -0.2867
     76  CB        -5.7310   17.3140  -27.9170 C.3   235  ASP235      0.1410
     77  CG        -5.0940   16.5050  -29.0730 C.2   235  ASP235      0.3668
     78  OD1       -3.8130   16.2900  -29.1390 O.co2 235  ASP235     -0.2456
     79  OD2       -5.9000   16.1150  -29.9350 O.co2 235  ASP235     -0.2456
@<TRIPOS>BOND
     1    53    54    1
     2    55    56    2
     3    55    54    1
     4    54    57    1
     5    58    59    1
     6    59    62    1
     7    59    60    1
     8    62    63    1
     9    61    60    2
    10    64    63   ar
    11    64    66   ar
    12    63    65   ar
    13    52    50    1
    14    51    50    1
    15    66    67   ar
    16    79    77   ar
    17    65    68   ar
    18    65    67   ar
    19    50    49    1
    20    44    43    1
    21    68    70   ar
    22    78    77   ar
    23    67    69   ar
    24    77    76    1
    25    43    42    1
    26    49    46    1
    27    42    41    1
    28    76    73    1
    29    70    71   ar
    30    46    45    1
    31    46    47    1
    32    69    71   ar
    33    48    47    2
    34    75    74    2
    35    35    34    2
    36    73    74    1
    37    73    72    1
    38    26    25    2
    39    41    40    1
    40    34    33    1
    41    34    36   am
    42    37    36    1
    43    37    40    1
    44    37    38    1
    45    33    32    1
    46    25    32   am
    47    25    24    1
    48    38    39    2
    49    27    28    1
    50    27    24    1
    51    28    29    1
    52    12    11    2
    53    24    23    1
    54    23    17   am
    55    18    17    2
    56    17    16    1
    57     4     3    2
    58    11    15   am
    59    11    10    1
    60    16    15    1
    61    16    19    1
    62    29    31   am
    63    29    30    2
    64    10    13    1
    65    10     9    1
    66    22    20    1
    67     3     9   am
    68     3     2    1
    69    19    20    1
    70     1     2    1
    71    13    14    1
    72    20    21    1
    73     2     5    1
    74     5     6    1
    75     6     7    1
    76     7     8    1
