@<TRIPOS>MOLECULE
tmp/4ag5B00.pdb
 125 120 0 0 0
SMALL
GASTEIGER

@<TRIPOS>ATOM
      1  N         -8.4250   12.0520   26.8570 N.3    42  PRO42      -0.2102
      2  CA        -8.9730   11.3230   25.7130 C.3    42  PRO42       0.1504
      3  C        -10.2420   11.9770   25.1570 C.2    42  PRO42       0.2576
      4  O        -11.2050   12.1600   25.8850 O.2    42  PRO42      -0.2718
      5  CB        -9.3230    9.9600   26.3160 C.3    42  PRO42       0.0282
      6  CG        -8.3230    9.7830   27.4110 C.3    42  PRO42       0.0208
      7  CD        -8.1420   11.1580   27.9970 C.3    42  PRO42       0.0893
      8  N        -10.2280   12.3330   23.8770 N.am   43  GLY43      -0.1943
      9  CA       -11.4010   12.8720   23.2210 C.3    43  GLY43       0.2014
     10  C        -11.3660   14.3680   22.9790 C.2    43  GLY43       0.2639
     11  O        -12.1730   14.8750   22.2180 O.2    43  GLY43      -0.2714
     12  N        -10.4440   15.0850   23.6140 N.am   44  ALA44      -0.1963
     13  CA       -10.4440   16.5470   23.5140 C.3    44  ALA44       0.1728
     14  C        -10.1030   17.0060   22.1200 C.2    44  ALA44       0.2617
     15  O        -10.3480   18.1580   21.7590 O.2    44  ALA44      -0.2715
     16  CB        -9.4740   17.1460   24.4980 C.3    44  ALA44       0.0334
     17  N         -9.5070   16.1020   21.3490 N.am   45  GLY45      -0.1940
     18  CA        -9.1210   16.3890   19.9790 C.3    45  GLY45       0.2014
     19  C         -7.6410   16.6550   19.7540 C.2    45  GLY45       0.2639
     20  O         -7.2990   17.5710   19.0290 O.2    45  GLY45      -0.2714
     21  N         -6.7750   15.8500   20.3710 N.am   46  LYS46      -0.1963
     22  CA        -5.3260   15.9890   20.2570 C.3    46  LYS46       0.1728
     23  C         -4.8170   15.4980   18.9060 C.2    46  LYS46       0.2617
     24  O         -4.1520   16.2320   18.1650 O.2    46  LYS46      -0.2715
     25  CB        -4.6180   15.1820   21.3570 C.3    46  LYS46       0.0311
     26  CG        -4.7100   15.7560   22.7590 C.3    46  LYS46       0.0038
     27  CD        -3.8880   14.9250   23.7550 C.3    46  LYS46       0.0206
     28  CE        -4.3010   13.4500   23.7760 C.3    46  LYS46       0.1093
     29  NZ        -5.7160   13.2160   24.2070 N.3    46  LYS46      -0.1314
     30  N         -5.1100   14.2380   18.6060 N.am   47  SER47      -0.1936
     31  CA        -4.6260   13.6120   17.3830 C.3    47  SER47       0.2055
     32  C         -5.2050   14.3150   16.1610 C.2    47  SER47       0.2643
     33  O         -4.5320   14.4720   15.1510 O.2    47  SER47      -0.2714
     34  CB        -4.9680   12.1200   17.3720 C.3    47  SER47       0.2130
     35  OG        -4.3930   11.4590   18.4920 O.3    47  SER47      -0.2179
     36  N         -6.4520   14.7540   16.2670 N.am   48  PHE48      -0.1959
     37  CA        -7.0690   15.5150   15.1990 C.3    48  PHE48       0.1771
     38  C         -6.2630   16.7820   14.9810 C.2    48  PHE48       0.2620
     39  O         -5.8810   17.0820   13.8590 O.2    48  PHE48      -0.2715
     40  CB        -8.5280   15.8380   15.5320 C.3    48  PHE48       0.0574
     41  CG        -9.2020   16.7780   14.5530 C.ar   48  PHE48      -0.0200
     42  CD1       -9.1700   18.1540   14.7530 C.ar   48  PHE48      -0.0042
     43  CD2       -9.8920   16.2870   13.4550 C.ar   48  PHE48      -0.0042
     44  CE1       -9.8030   19.0270   13.8680 C.ar   48  PHE48      -0.0003
     45  CE2      -10.5250   17.1550   12.5590 C.ar   48  PHE48      -0.0003
     46  CZ       -10.4830   18.5250   12.7690 C.ar   48  PHE48      -0.0000
     47  N         -5.9850   17.5170   16.0540 N.am   49  THR49      -0.1951
     48  CA        -5.2600   18.7790   15.9190 C.3    49  THR49       0.1897
     49  C         -3.8800   18.5370   15.3460 C.2    49  THR49       0.2313
     50  O         -3.3130   19.3910   14.6760 O.2    49  THR49      -0.2863
     51  CB        -5.1150   19.5310   17.2560 C.3    49  THR49       0.1794
     52  OG1       -6.4020   19.7030   17.8540 O.3    49  THR49      -0.2208
     53  CG2       -4.5060   20.9010   17.0210 C.3    49  THR49       0.0378
     54  N         -3.1230   16.0330   13.2310 N.3    51  LYS51      -0.1245
     55  CA        -3.3270   15.7730   11.8120 C.3    51  LYS51       0.1561
     56  C         -3.3600   17.0800   11.0200 C.2    51  LYS51       0.2260
     57  O         -2.7070   17.2030    9.9770 O.2    51  LYS51      -0.2867
     58  CB        -4.6100   14.9780   11.5790 C.3    51  LYS51       0.0271
     59  CG        -4.5380   13.5270   12.0270 C.3    51  LYS51       0.0035
     60  CD        -5.9150   12.8950   11.9860 C.3    51  LYS51       0.0206
     61  CE        -5.8820   11.4780   12.4960 C.3    51  LYS51       0.1093
     62  NZ        -7.2500   10.9170   12.7000 N.3    51  LYS51      -0.1314
     63  N         -2.5670    4.4970   18.6350 N.3    70  GLU70      -0.1245
     64  CA        -4.0380    4.5390   18.5670 C.3    70  GLU70       0.1567
     65  C         -4.5700    4.1660   17.1830 C.2    70  GLU70       0.2260
     66  O         -5.7810    4.0560   16.9830 O.2    70  GLU70      -0.2867
     67  CB        -4.5610    5.9380   18.9080 C.3    70  GLU70       0.0388
     68  CG        -4.2990    6.4440   20.3210 C.3    70  GLU70       0.1160
     69  CD        -4.6020    7.9290   20.4420 C.2    70  GLU70       0.3649
     70  OE1       -3.9040    8.7280   19.7930 O.co2  70  GLU70      -0.2457
     71  OE2       -5.5480    8.3120   21.1600 O.co2  70  GLU70      -0.2457
     72  N         -4.3600    6.0870   14.5690 N.3    72  GLU72      -0.1245
     73  CA        -5.0510    7.3220   14.2260 C.3    72  GLU72       0.1567
     74  C         -4.6110    7.8780   12.8930 C.2    72  GLU72       0.2260
     75  O         -5.2910    8.7300   12.3220 O.2    72  GLU72      -0.2867
     76  CB        -4.7910    8.3820   15.3020 C.3    72  GLU72       0.0388
     77  CG        -5.6310    8.2060   16.5290 C.3    72  GLU72       0.1160
     78  CD        -7.0820    8.0390   16.1620 C.2    72  GLU72       0.3649
     79  OE1       -7.6420    8.9760   15.5510 O.co2  72  GLU72      -0.2457
     80  OE2       -7.6510    6.9640   16.4610 O.co2  72  GLU72      -0.2457
     81  N        -14.6080   20.2920   22.7010 N.3   350  ARG350     -0.1231
     82  CA       -13.6840   19.6500   21.7840 C.3   350  ARG350      0.1694
     83  C        -13.0030   20.6960   20.8910 C.2   350  ARG350      0.2592
     84  O        -13.6360   21.6470   20.4340 O.2   350  ARG350     -0.2718
     85  CB       -14.4090   18.6010   20.9360 C.3   350  ARG350      0.0321
     86  CG       -13.4700   17.6170   20.2620 C.3   350  ARG350      0.0489
     87  CD       -14.2020   16.7200   19.2880 C.3   350  ARG350      0.2205
     88  NE       -14.8920   15.6210   19.9510 N.pl3 350  ARG350     -0.0865
     89  CZ       -15.8940   14.9460   19.4010 C.cat 350  ARG350      0.5346
     90  NH1      -16.3250   15.2760   18.1880 N.pl3 350  ARG350      0.1354
     91  NH2      -16.4730   13.9520   20.0630 N.pl3 350  ARG350      0.1354
     92  N        -11.7050   20.5250   20.6620 N.am  351  GLY351     -0.1957
     93  CA       -10.9530   21.4450   19.8260 C.3   351  GLY351      0.1869
     94  C        -10.7350   22.8260   20.4260 C.2   351  GLY351      0.2309
     95  O        -10.2270   23.7140   19.7390 O.2   351  GLY351     -0.2863
     96  N         -9.5220   25.1420   17.6050 N.3   366  ILE366     -0.1231
     97  CA        -8.9150   24.4560   16.4640 C.3   366  ILE366      0.1692
     98  C         -9.9030   24.2710   15.3250 C.2   366  ILE366      0.2592
     99  O        -10.9020   23.5770   15.4730 O.2   366  ILE366     -0.2718
    100  CB        -8.3740   23.0730   16.8580 C.3   366  ILE366      0.0266
    101  CG1       -7.3550   23.2070   17.9900 C.3   366  ILE366      0.0019
    102  CG2       -7.7330   22.4010   15.6570 C.3   366  ILE366      0.0020
    103  CD1       -6.0730   23.9000   17.5520 C.3   366  ILE366      0.0001
    104  N         -9.6300   24.8860   14.1850 N.am  367  GLU367     -0.1966
    105  CA       -10.5310   24.7460   13.0450 C.3   367  GLU367      0.1733
    106  C         -9.8260   24.2250   11.8010 C.2   367  GLU367      0.2616
    107  O         -8.7200   24.6490   11.4680 O.2   367  GLU367     -0.2715
    108  CB       -11.2570   26.0650   12.7430 C.3   367  GLU367      0.0429
    109  CG       -12.1380   25.9630   11.5390 C.3   367  GLU367      0.1163
    110  CD       -12.8110   27.2600   11.1700 C.2   367  GLU367      0.3649
    111  OE1      -12.3890   28.3780   11.5520 O.co2 367  GLU367     -0.2457
    112  OE2      -13.8470   27.2560   10.5120 O.co2 367  GLU367     -0.2457
    113  N        -10.4850   23.2970   11.1180 N.am  368  ALA368     -0.1977
    114  CA        -9.9830   22.7470    9.8710 C.3   368  ALA368      0.1597
    115  C        -10.8460   23.2310    8.7170 C.2   368  ALA368      0.2287
    116  O        -11.9200   23.7940    8.9240 O.2   368  ALA368     -0.2864
    117  CB        -9.9940   21.2390    9.9300 C.3   368  ALA368      0.0319
    118  N        -10.3680   17.8710    5.8880 N.3   373  MET373     -0.1245
    119  CA       -10.9640   16.7430    6.5980 C.3   373  MET373      0.1570
    120  C        -11.3070   15.6330    5.6110 C.2   373  MET373      0.2261
    121  O        -11.9390   14.6380    5.9620 O.2   373  MET373     -0.2867
    122  CB       -12.1830   17.1900    7.4110 C.3   373  MET373      0.0387
    123  CG       -11.8400   18.2230    8.4990 C.3   373  MET373      0.0595
    124  SD       -13.1990   18.7360    9.5860 S.3   373  MET373     -0.1393
    125  CE       -14.4630   19.1960    8.3930 C.3   373  MET373      0.0692
@<TRIPOS>BOND
     1   120   121    2
     2   120   119    1
     3   118   119    1
     4   119   122    1
     5   122   123    1
     6   125   124    1
     7   123   124    1
     8   115   116    2
     9   115   114    1
    10   114   117    1
    11   114   113    1
    12    57    56    2
    13   112   110   ar
    14    56    55    1
    15   113   106   am
    16   110   109    1
    17   110   111   ar
    18   107   106    2
    19   109   108    1
    20    58    55    1
    21    58    59    1
    22   106   105    1
    23    55    54    1
    24    60    59    1
    25    60    61    1
    26    75    74    2
    27    61    62    1
    28    45    46   ar
    29    45    43   ar
    30   108   105    1
    31    46    44   ar
    32    74    73    1
    33   105   104    1
    34    43    41   ar
    35    39    38    2
    36    44    42   ar
    37   104    98   am
    38    73    72    1
    39    73    76    1
    40    41    42   ar
    41    41    40    1
    42    50    49    2
    43    38    37    1
    44    38    47   am
    45    33    32    2
    46    37    40    1
    47    37    36    1
    48    76    77    1
    49    98    99    2
    50    98    97    1
    51    49    48    1
    52    79    78   ar
    53   102   100    1
    54    48    47    1
    55    48    51    1
    56    32    36   am
    57    32    31    1
    58    78    80   ar
    59    78    77    1
    60    97   100    1
    61    97    96    1
    62   100   101    1
    63    66    65    2
    64    53    51    1
    65    65    64    1
    66    51    52    1
    67    34    31    1
    68    34    35    1
    69    31    30    1
    70   103   101    1
    71    24    23    2
    72    90    89    1
    73    64    63    1
    74    64    67    1
    75    30    23   am
    76    23    22    1
    77    67    68    1
    78    20    19    2
    79    87    88    1
    80    87    86    1
    81    89    88    2
    82    89    91    1
    83    95    94    2
    84    19    18    1
    85    19    21   am
    86    70    69   ar
    87    93    94    1
    88    93    92    1
    89    18    17    1
    90    22    21    1
    91    22    25    1
    92    86    85    1
    93    68    69    1
    94    84    83    2
    95    69    71   ar
    96    92    83   am
    97    83    82    1
    98    85    82    1
    99    17    14   am
   100    25    26    1
   101    15    14    2
   102    82    81    1
   103    14    13    1
   104    11    10    2
   105    26    27    1
   106    10     9    1
   107    10    12   am
   108     9     8    1
   109    13    12    1
   110    13    16    1
   111    27    28    1
   112    28    29    1
   113     8     3   am
   114     3     2    1
   115     3     4    2
   116     2     5    1
   117     2     1    1
   118     5     6    1
   119     1     7    1
   120     6     7    1
