@<TRIPOS>MOLECULE
tmp/4ag7A00.pdb
 161 155 0 0 0
SMALL
GASTEIGER

@<TRIPOS>ATOM
      1  N        -22.5240   48.9630    1.3780 N.3    42  GLN42      -0.1231
      2  CA       -23.8760   49.2870    1.6880 C.3    42  GLN42       0.1698
      3  C        -24.3410   50.5620    0.9660 C.2    42  GLN42       0.2592
      4  O        -25.5430   50.7560    0.8060 O.2    42  GLN42      -0.2718
      5  CB       -24.0130   49.4770    3.2450 C.3    42  GLN42       0.0381
      6  CG       -23.8020   48.1720    3.9890 C.3    42  GLN42       0.0905
      7  CD       -24.0770   48.3040    5.4590 C.2    42  GLN42       0.2608
      8  OE1      -25.0890   48.9360    5.8250 O.2    42  GLN42      -0.2717
      9  NE2      -23.1620   47.7600    6.2840 N.am   42  GLN42      -0.0878
     10  N        -23.3880   51.4320    0.6180 N.am   43  LEU43      -0.1980
     11  CA       -23.6390   52.6830   -0.0590 C.3    43  LEU43       0.1596
     12  C        -23.8320   52.4640   -1.5590 C.2    43  LEU43       0.2287
     13  O        -24.7780   53.0000   -2.1230 O.2    43  LEU43      -0.2864
     14  CB       -22.4750   53.6760    0.2490 C.3    43  LEU43       0.0297
     15  CG       -22.5160   55.0210   -0.5190 C.3    43  LEU43       0.0022
     16  CD1      -23.6740   55.8800   -0.1000 C.3    43  LEU43       0.0001
     17  CD2      -21.1720   55.7790   -0.3360 C.3    43  LEU43       0.0001
     18  N        -21.5630   59.4200    2.1530 N.3   106  VAL106     -0.1231
     19  CA       -22.1200   59.3580    3.5530 C.3   106  VAL106      0.1692
     20  C        -22.8420   58.0770    3.7710 C.2   106  VAL106      0.2592
     21  O        -23.8120   57.7640    3.1180 O.2   106  VAL106     -0.2718
     22  CB       -23.0380   60.5800    3.8240 C.3   106  VAL106      0.0266
     23  CG1      -23.6610   60.4340    5.2590 C.3   106  VAL106      0.0020
     24  CG2      -22.2850   61.8640    3.5000 C.3   106  VAL106      0.0020
     25  N        -22.3770   57.2670    4.7320 N.am  107  VAL107     -0.1966
     26  CA       -23.0240   55.9690    4.9720 C.3   107  VAL107      0.1727
     27  C        -22.9780   55.5510    6.4390 C.2   107  VAL107      0.2616
     28  O        -21.9000   55.6070    7.0340 O.2   107  VAL107     -0.2715
     29  CB       -22.4730   54.8460    4.0070 C.3   107  VAL107      0.0290
     30  CG1      -20.9990   54.6550    4.1770 C.3   107  VAL107      0.0023
     31  CG2      -23.3110   53.5750    4.2010 C.3   107  VAL107      0.0023
     32  N        -24.1180   55.1080    6.9690 N.am  108  VAL108     -0.1977
     33  CA       -24.1040   54.5120    8.3460 C.3   108  VAL108      0.1596
     34  C        -24.5630   53.0580    8.2060 C.2   108  VAL108      0.2287
     35  O        -25.5020   52.7760    7.4320 O.2   108  VAL108     -0.2864
     36  CB       -25.0900   55.2560    9.1990 C.3   108  VAL108      0.0276
     37  CG1      -25.2400   54.4830   10.5490 C.3   108  VAL108      0.0022
     38  CG2      -24.5890   56.6780    9.3720 C.3   108  VAL108      0.0022
     39  N        -27.2260   50.1880   12.3830 N.3   112  MET112     -0.1230
     40  CA       -26.7740   51.1830   13.3520 C.3   112  MET112      0.1702
     41  C        -27.4550   52.4920   13.1010 C.2   112  MET112      0.2592
     42  O        -27.0570   53.4950   13.7110 O.2   112  MET112     -0.2718
     43  CB       -25.2810   51.3730   13.2420 C.3   112  MET112      0.0401
     44  CG       -24.4700   50.1740   13.6860 C.3   112  MET112      0.0596
     45  SD       -24.8960   49.4390   15.2760 S.3   112  MET112     -0.1393
     46  CE       -24.1290   50.5400   16.4320 C.3   112  MET112      0.0692
     47  N        -28.4470   52.5350   12.2170 N.am  113  ARG113     -0.1966
     48  CA       -29.1100   53.7600   11.8480 C.3   113  ARG113      0.1729
     49  C        -30.0490   54.2020   12.9870 C.2   113  ARG113      0.2616
     50  O        -30.2940   53.3830   13.9080 O.2   113  ARG113     -0.2715
     51  CB       -29.7940   53.5780   10.5180 C.3   113  ARG113      0.0348
     52  CG       -28.7480   53.4780    9.4030 C.3   113  ARG113      0.0492
     53  CD       -29.3470   53.3580    8.0120 C.3   113  ARG113      0.2205
     54  NE       -28.2890   53.0280    7.0770 N.pl3 113  ARG113     -0.0865
     55  CZ       -28.4750   52.6790    5.8060 C.cat 113  ARG113      0.5346
     56  NH1      -29.6930   52.5970    5.3010 N.pl3 113  ARG113      0.1354
     57  NH2      -27.4290   52.3730    5.0550 N.pl3 113  ARG113      0.1354
     58  N        -30.4380   55.4760   12.9720 N.am  114  ARG114     -0.1977
     59  CA       -31.2880   56.1070   14.0320 C.3   114  ARG114      0.1597
     60  C        -30.6620   56.0320   15.4150 C.2   114  ARG114      0.2287
     61  O        -31.3820   55.8950   16.3870 O.2   114  ARG114     -0.2864
     62  CB       -32.7050   55.5200   14.0340 C.3   114  ARG114      0.0334
     63  CG       -33.2590   55.2910   12.6360 C.3   114  ARG114      0.0492
     64  CD       -33.7840   56.5820   12.0700 C.3   114  ARG114      0.2205
     65  NE       -35.1360   56.3910   11.5590 N.pl3 114  ARG114     -0.0865
     66  CZ       -36.0360   57.3600   11.4410 C.cat 114  ARG114      0.5346
     67  NH1      -35.7370   58.6180   11.7930 N.pl3 114  ARG114      0.1354
     68  NH2      -37.2400   57.0650   10.9670 N.pl3 114  ARG114      0.1354
     69  N        -28.1660   58.4250   15.7620 N.3   116  LYS116     -0.1231
     70  CA       -27.5140   59.7420   15.5910 C.3   116  LYS116      0.1693
     71  C        -26.1100   59.7440   14.9430 C.2   116  LYS116      0.2592
     72  O        -25.4770   60.7820   14.8950 O.2   116  LYS116     -0.2718
     73  CB       -27.3690   60.5410   16.9160 C.3   116  LYS116      0.0285
     74  CG       -28.6180   60.8190   17.7930 C.3   116  LYS116      0.0035
     75  CD       -29.9200   60.7950   17.0050 C.3   116  LYS116      0.0206
     76  CE       -30.9520   61.8370   17.4440 C.3   116  LYS116      0.1093
     77  NZ       -31.9520   62.0350   16.3360 N.3   116  LYS116     -0.1314
     78  N        -25.5970   58.6000   14.4610 N.am  117  LEU117     -0.1966
     79  CA       -24.2600   58.5870   13.9830 C.3   117  LEU117      0.1728
     80  C        -24.2620   59.5000   12.7160 C.2   117  LEU117      0.2617
     81  O        -23.2480   60.1650   12.4590 O.2   117  LEU117     -0.2715
     82  CB       -23.8600   57.1770   13.5560 C.3   117  LEU117      0.0311
     83  CG       -23.8840   56.1750   14.7200 C.3   117  LEU117      0.0022
     84  CD1      -23.5360   54.8200   14.1360 C.3   117  LEU117      0.0001
     85  CD2      -22.8720   56.5960   15.7630 C.3   117  LEU117      0.0001
     86  N        -25.3110   59.4450   11.8840 N.am  118  GLY118     -0.1940
     87  CA       -25.3530   60.2870   10.6500 C.3   118  GLY118      0.2014
     88  C        -25.2670   61.7910   10.9440 C.2   118  GLY118      0.2638
     89  O        -24.4880   62.5530   10.3420 O.2   118  GLY118     -0.2714
     90  N        -26.0650   62.1960   11.9070 N.am  119  ALA119     -0.1977
     91  CA       -26.0570   63.6220   12.2850 C.3   119  ALA119      0.1597
     92  C        -24.7480   64.0340   12.8730 C.2   119  ALA119      0.2287
     93  O        -24.2970   65.1610   12.5920 O.2   119  ALA119     -0.2864
     94  CB       -27.2120   63.9430   13.2320 C.3   119  ALA119      0.0319
     95  N        -23.8010   68.8960   -0.8460 N.3   139  LEU139     -0.1231
     96  CA       -24.0500   67.4710   -0.6300 C.3   139  LEU139      0.1693
     97  C        -24.8890   67.0830   -1.8330 C.2   139  LEU139      0.2592
     98  O        -25.9510   67.6530   -2.1220 O.2   139  LEU139     -0.2718
     99  CB       -24.8300   67.3300    0.7450 C.3   139  LEU139      0.0284
    100  CG       -24.6820   65.9360    1.3520 C.3   139  LEU139      0.0019
    101  CD1      -24.1310   65.9870    2.7110 C.3   139  LEU139      0.0001
    102  CD2      -26.0320   65.3260    1.4770 C.3   139  LEU139      0.0001
    103  N        -24.4770   65.9670   -2.4280 N.am  140  GLU140     -0.1966
    104  CA       -25.2040   65.3500   -3.5760 C.3   140  GLU140      0.1733
    105  C        -25.9440   64.1980   -2.9340 C.2   140  GLU140      0.2616
    106  O        -25.3300   63.2030   -2.4920 O.2   140  GLU140     -0.2715
    107  CB       -24.1850   64.8600   -4.6030 C.3   140  GLU140      0.0429
    108  CG       -23.5790   65.9730   -5.3420 C.3   140  GLU140      0.1163
    109  CD       -22.2830   65.6490   -6.1380 C.2   140  GLU140      0.3649
    110  OE1      -22.3330   64.5030   -6.6270 O.co2 140  GLU140     -0.2457
    111  OE2      -21.3500   66.5490   -6.2110 O.co2 140  GLU140     -0.2457
    112  N        -27.2510   64.3830   -2.7950 N.am  141  CYS141     -0.1968
    113  CA       -28.1170   63.3860   -2.2810 C.3   141  CYS141      0.1712
    114  C        -29.5480   63.7560   -2.6480 C.2   141  CYS141      0.2296
    115  O        -29.8740   64.8770   -3.0500 O.2   141  CYS141     -0.2864
    116  CB       -28.0120   63.3010   -0.7280 C.3   141  CYS141      0.0983
    117  SG       -28.5630   61.6690   -0.0670 S.3   141  CYS141     -0.0798
    118  N        -35.1350   63.6240    0.2060 N.3   144  GLU144     -0.1231
    119  CA       -36.1370   62.9370    1.0260 C.3   144  GLU144      0.1699
    120  C        -35.5440   63.1580    2.4020 C.2   144  GLU144      0.2592
    121  O        -36.2760   63.1990    3.3860 O.2   144  GLU144     -0.2718
    122  CB       -36.1250   61.4380    0.7300 C.3   144  GLU144      0.0402
    123  CG       -36.7570   60.4930    1.7660 C.3   144  GLU144      0.1161
    124  CD       -36.2290   59.0450    1.6610 C.2   144  GLU144      0.3649
    125  OE1      -35.3430   58.7820    0.8060 O.co2 144  GLU144     -0.2457
    126  OE2      -36.6820   58.1610    2.4300 O.co2 144  GLU144     -0.2457
    127  N        -34.2130   63.3220    2.4480 N.am  145  LEU145     -0.1980
    128  CA       -33.4610   63.5800    3.7020 C.3   145  LEU145      0.1596
    129  C        -33.6430   65.0100    4.2650 C.2   145  LEU145      0.2287
    130  O        -32.7400   65.5060    4.9740 O.2   145  LEU145     -0.2864
    131  CB       -31.9450   63.2380    3.5460 C.3   145  LEU145      0.0297
    132  CG       -31.4560   61.8200    3.8240 C.3   145  LEU145      0.0022
    133  CD1      -31.9180   61.3820    5.2070 C.3   145  LEU145      0.0001
    134  CD2      -31.9720   60.8720    2.7520 C.3   145  LEU145      0.0001
    135  N        -35.8100   66.8530    6.6160 N.3   147  PRO147     -0.2102
    136  CA       -35.5520   67.1460    8.0210 C.3   147  PRO147      0.1504
    137  C        -34.0580   67.1790    8.2850 C.2   147  PRO147      0.2575
    138  O        -33.5650   68.0800    8.9750 O.2   147  PRO147     -0.2718
    139  CB       -36.1880   65.9430    8.7680 C.3   147  PRO147      0.0282
    140  CG       -36.5560   64.9430    7.7080 C.3   147  PRO147      0.0208
    141  CD       -36.8090   65.7710    6.4790 C.3   147  PRO147      0.0893
    142  N        -33.3450   66.2180    7.7110 N.am  148  PHE148     -0.1977
    143  CA       -32.0430   65.9280    8.1960 C.3   148  PHE148      0.1639
    144  C        -31.0370   67.0670    7.8190 C.2   148  PHE148      0.2290
    145  O        -30.4710   67.7600    8.6790 O.2   148  PHE148     -0.2864
    146  CB       -31.6540   64.5440    7.7150 C.3   148  PHE148      0.0560
    147  CG       -30.3120   64.0790    8.2100 C.ar  148  PHE148     -0.0200
    148  CD1      -30.1210   63.7800    9.5430 C.ar  148  PHE148     -0.0042
    149  CD2      -29.2440   63.9240    7.3240 C.ar  148  PHE148     -0.0042
    150  CE1      -28.8830   63.3460    9.9780 C.ar  148  PHE148     -0.0003
    151  CE2      -28.0010   63.5130    7.7660 C.ar  148  PHE148     -0.0003
    152  CZ       -27.8280   63.2130    9.0830 C.ar  148  PHE148     -0.0000
    153  N        -31.0370   71.1380    9.0050 N.3   151  GLN151     -0.1245
    154  CA       -30.7460   71.7160   10.3010 C.3   151  GLN151      0.1566
    155  C        -29.2560   72.0270   10.3920 C.2   151  GLN151      0.2260
    156  O        -28.8330   72.7700   11.2730 O.2   151  GLN151     -0.2867
    157  CB       -31.2350   70.8140   11.4050 C.3   151  GLN151      0.0367
    158  CG       -30.3490   69.6220   11.6310 C.3   151  GLN151      0.0905
    159  CD       -31.0360   68.6220   12.5040 C.2   151  GLN151      0.2608
    160  OE1      -32.1730   68.2060   12.2280 O.2   151  GLN151     -0.2717
    161  NE2      -30.3610   68.2250   13.5670 N.am  151  GLN151     -0.0878
@<TRIPOS>BOND
     1   110   109   ar
     2   111   109   ar
     3   109   108    1
     4   108   107    1
     5   107   104    1
     6   104   105    1
     7   104   103    1
     8   115   114    2
     9   105   112   am
    10   105   106    2
    11   112   113    1
    12   114   113    1
    13   103    97   am
    14   113   116    1
    15    13    12    2
    16    98    97    2
    17    97    96    1
    18    12    11    1
    19    95    96    1
    20   116   117    1
    21    96    99    1
    22    15    17    1
    23    15    16    1
    24    15    14    1
    25    11    14    1
    26    11    10    1
    27   118   119    1
    28    10     3   am
    29   122   119    1
    30   122   123    1
    31    99   100    1
    32   125   124   ar
    33     4     3    2
    34     3     2    1
    35   119   120    1
    36   100   102    1
    37   100   101    1
    38     1     2    1
    39   124   123    1
    40   124   126   ar
    41     2     5    1
    42    18    19    1
    43   120   127   am
    44   120   121    2
    45   127   128    1
    46   134   132    1
    47    21    20    2
    48     5     6    1
    49    24    22    1
    50   131   128    1
    51   131   132    1
    52    19    20    1
    53    19    22    1
    54   128   129    1
    55    20    25   am
    56    22    23    1
    57   132   133    1
    58     6     7    1
    59    29    30    1
    60    29    31    1
    61    29    26    1
    62   129   130    2
    63    25    26    1
    64    26    27    1
    65    57    55    1
    66    56    55    1
    67     7     8    2
    68     7     9   am
    69    55    54    2
    70    27    32   am
    71    27    28    2
    72   141   135    1
    73   141   140    1
    74   135   136    1
    75    32    33    1
    76    54    53    1
    77   149   151   ar
    78   149   147   ar
    79    35    34    2
    80   140   139    1
    81   142   143    1
    82   142   137   am
    83   146   143    1
    84   146   147    1
    85   151   152   ar
    86   144   143    1
    87   144   145    2
    88    53    52    1
    89   136   137    1
    90   136   139    1
    91    34    33    1
    92   147   148   ar
    93   137   138    2
    94    33    36    1
    95   153   154    1
    96   152   150   ar
    97    36    38    1
    98    36    37    1
    99    52    51    1
   100   148   150   ar
   101   154   155    1
   102   154   157    1
   103    89    88    2
   104   155   156    2
   105    51    48    1
   106    87    88    1
   107    87    86    1
   108    88    90   am
   109    68    66    1
   110   157   158    1
   111    66    65    2
   112    66    67    1
   113    65    64    1
   114   158   159    1
   115    48    47    1
   116    48    49    1
   117    86    80   am
   118    90    91    1
   119    64    63    1
   120    47    41   am
   121   160   159    2
   122    91    92    1
   123    91    94    1
   124    39    40    1
   125    81    80    2
   126   159   161   am
   127    93    92    2
   128    63    62    1
   129    80    79    1
   130    58    49   am
   131    58    59    1
   132    49    50    2
   133    41    40    1
   134    41    42    2
   135    43    40    1
   136    43    44    1
   137    82    79    1
   138    82    83    1
   139    44    45    1
   140    79    78    1
   141    59    62    1
   142    59    60    1
   143    84    83    1
   144    78    71   am
   145    83    85    1
   146    72    71    2
   147    71    70    1
   148    45    46    1
   149    60    61    2
   150    70    69    1
   151    70    73    1
   152    77    76    1
   153    73    74    1
   154    75    76    1
   155    75    74    1
