@<TRIPOS>MOLECULE
tmp/4ag9B02.pdb
 103 99 0 0 0
SMALL
GASTEIGER

@<TRIPOS>ATOM
      1  N         25.1330   52.2610   20.5100 N.3    42  LEU42      -0.1231
      2  CA        25.4100   50.9750   21.1970 C.3    42  LEU42       0.1693
      3  C         26.6280   51.0250   22.1080 C.2    42  LEU42       0.2592
      4  O         26.6080   50.5400   23.2690 O.2    42  LEU42      -0.2718
      5  CB        25.6110   49.8930   20.1350 C.3    42  LEU42       0.0284
      6  CG        26.1800   48.5430   20.4800 C.3    42  LEU42       0.0019
      7  CD1       25.2200   47.7160   21.3470 C.3    42  LEU42       0.0001
      8  CD2       26.5670   47.8060   19.1950 C.3    42  LEU42       0.0001
      9  N         27.7000   51.5990   21.6050 N.am   43  THR43      -0.1953
     10  CA        28.9600   51.5870   22.3070 C.3    43  THR43       0.1897
     11  C         29.9170   52.4440   21.5310 C.2    43  THR43       0.2313
     12  O         29.4940   53.1550   20.5990 O.2    43  THR43      -0.2863
     13  CB        29.5380   50.1720   22.4660 C.3    43  THR43       0.1794
     14  OG1       30.5600   50.2300   23.4470 O.3    43  THR43      -0.2208
     15  CG2       30.1230   49.6450   21.1620 C.3    43  THR43       0.0378
     16  N         24.5720   36.3790   17.6480 N.3   102  VAL102     -0.1231
     17  CA        23.8630   37.6100   17.3810 C.3   102  VAL102      0.1692
     18  C         24.6390   38.7010   18.1010 C.2   102  VAL102      0.2592
     19  O         24.8220   38.6820   19.3580 O.2   102  VAL102     -0.2718
     20  CB        22.4070   37.5660   17.8450 C.3   102  VAL102      0.0266
     21  CG1       21.7550   38.9500   17.6480 C.3   102  VAL102      0.0020
     22  CG2       21.6420   36.5760   16.9630 C.3   102  VAL102      0.0020
     23  N         24.9680   39.7240   17.3210 N.am  103  GLU103     -0.1966
     24  CA        25.8730   40.7840   17.7910 C.3   103  GLU103      0.1733
     25  C         25.3920   42.1650   17.3670 C.2   103  GLU103      0.2616
     26  O         24.7090   42.3260   16.3910 O.2   103  GLU103     -0.2715
     27  CB        27.2870   40.5350   17.2300 C.3   103  GLU103      0.0429
     28  CG        28.0270   39.3590   17.9330 C.3   103  GLU103      0.1163
     29  CD        28.5750   39.7410   19.3100 C.2   103  GLU103      0.3649
     30  OE1       29.1660   40.8530   19.4450 O.co2 103  GLU103     -0.2457
     31  OE2       28.3540   38.9830   20.2610 O.co2 103  GLU103     -0.2457
     32  N         25.7770   43.1550   18.1570 N.am  104  ASP104     -0.1957
     33  CA        25.6460   44.6140   17.7880 C.3   104  ASP104      0.1840
     34  C         24.2580   44.9710   17.4260 C.2   104  ASP104      0.2621
     35  O         24.0030   45.6220   16.4070 O.2   104  ASP104     -0.2715
     36  CB        26.6880   44.9420   16.7090 C.3   104  ASP104      0.1450
     37  CG        28.1330   44.6390   17.2030 C.2   104  ASP104      0.3671
     38  OD1       28.3600   44.6580   18.4630 O.co2 104  ASP104     -0.2456
     39  OD2       29.0450   44.4340   16.3750 O.co2 104  ASP104     -0.2456
     40  N         23.3220   44.5660   18.3080 N.am  105  VAL105     -0.1977
     41  CA        21.9030   44.8930   18.0680 C.3   105  VAL105      0.1596
     42  C         21.6780   46.3500   18.4950 C.2   105  VAL105      0.2287
     43  O         21.9010   46.6990   19.6570 O.2   105  VAL105     -0.2864
     44  CB        20.9720   43.9690   18.8600 C.3   105  VAL105      0.0276
     45  CG1       19.5270   44.3230   18.5940 C.3   105  VAL105      0.0022
     46  CG2       21.2020   42.4710   18.4410 C.3   105  VAL105      0.0022
     47  N         23.7710   34.8050   22.2690 N.3   138  LEU138     -0.1231
     48  CA        23.9610   36.2860   22.4080 C.3   138  LEU138      0.1693
     49  C         24.2280   36.6370   23.8430 C.2   138  LEU138      0.2592
     50  O         23.9550   35.8140   24.7250 O.2   138  LEU138     -0.2718
     51  CB        22.7650   37.0620   21.8570 C.3   138  LEU138      0.0284
     52  CG        21.3800   36.8050   22.4460 C.3   138  LEU138      0.0019
     53  CD1       21.1720   37.5010   23.7880 C.3   138  LEU138      0.0001
     54  CD2       20.3140   37.2020   21.4140 C.3   138  LEU138      0.0001
     55  N         24.6320   37.8830   24.1180 N.am  139  GLU139     -0.1966
     56  CA        24.8800   38.3250   25.4630 C.3   139  GLU139      0.1733
     57  C         24.0250   39.5430   25.6990 C.2   139  GLU139      0.2616
     58  O         23.8630   40.3410   24.7710 O.2   139  GLU139     -0.2715
     59  CB        26.3100   38.7890   25.6200 C.3   139  GLU139      0.0429
     60  CG        27.3700   37.7760   25.2640 C.3   139  GLU139      0.1163
     61  CD        28.2020   38.2110   24.0160 C.2   139  GLU139      0.3649
     62  OE1       28.5960   39.4490   23.7460 O.co2 139  GLU139     -0.2457
     63  OE2       28.5350   37.2730   23.3290 O.co2 139  GLU139     -0.2457
     64  N         23.5030   39.6820   26.9190 N.am  140  CYS140     -0.1968
     65  CA        22.6720   40.8070   27.2430 C.3   140  CYS140      0.1712
     66  C         22.6000   41.0240   28.7580 C.2   140  CYS140      0.2296
     67  O         22.8100   40.1170   29.5430 O.2   140  CYS140     -0.2864
     68  CB        21.2280   40.5950   26.6780 C.3   140  CYS140      0.0983
     69  SG        20.3220   39.1420   27.3250 S.3   140  CYS140     -0.0798
     70  N         14.6600   38.6070   24.6150 N.3   148  TYR148     -0.1241
     71  CA        15.2830   37.7290   23.6540 C.3   148  TYR148      0.1605
     72  C         14.6950   36.3410   23.7690 C.2   148  TYR148      0.2264
     73  O         14.8020   35.5770   22.8150 O.2   148  TYR148     -0.2867
     74  CB        16.8240   37.6580   23.8440 C.3   148  TYR148      0.0534
     75  CG        17.5240   38.8880   23.3230 C.ar  148  TYR148     -0.0201
     76  CD1       17.5640   39.1260   21.9200 C.ar  148  TYR148     -0.0009
     77  CD2       18.1860   39.8130   24.1770 C.ar  148  TYR148     -0.0009
     78  CE1       18.2010   40.2470   21.4010 C.ar  148  TYR148      0.0417
     79  CE2       18.8190   40.9720   23.6190 C.ar  148  TYR148      0.0417
     80  CZ        18.7830   41.1440   22.2360 C.ar  148  TYR148      0.1957
     81  OH        19.4100   42.1950   21.6470 O.3   148  TYR148     -0.2866
     82  N         29.1250   34.3170   31.2880 N.3   159  PHE159     -0.1241
     83  CA        29.8870   34.9020   30.2020 C.3   159  PHE159      0.1605
     84  C         30.9460   35.7510   30.9410 C.2   159  PHE159      0.2264
     85  O         30.5770   36.6280   31.7710 O.2   159  PHE159     -0.2867
     86  CB        28.8940   35.8830   29.4730 C.3   159  PHE159      0.0534
     87  CG        29.5180   36.8650   28.4720 C.ar  159  PHE159     -0.0203
     88  CD1       30.2370   36.4050   27.4080 C.ar  159  PHE159     -0.0042
     89  CD2       29.2840   38.2570   28.6160 C.ar  159  PHE159     -0.0042
     90  CE1       30.7670   37.2740   26.4740 C.ar  159  PHE159     -0.0003
     91  CE2       29.7890   39.1400   27.6910 C.ar  159  PHE159     -0.0003
     92  CZ        30.5310   38.6490   26.6270 C.ar  159  PHE159     -0.0000
     93  N         38.9990   43.2590   29.1330 N.3   163  ARG163     -0.1245
     94  CA        39.2370   44.3250   28.1190 C.3   163  ARG163      0.1563
     95  C         40.7200   44.6510   28.0890 C.2   163  ARG163      0.2260
     96  O         41.4140   44.5370   29.1110 O.2   163  ARG163     -0.2867
     97  CB        38.3880   45.6280   28.3480 C.3   163  ARG163      0.0307
     98  CG        36.9150   45.4630   27.9620 C.3   163  ARG163      0.0489
     99  CD        36.1030   46.7360   28.1060 C.3   163  ARG163      0.2205
    100  NE        34.7260   46.4960   27.6470 N.pl3 163  ARG163     -0.0865
    101  CZ        33.8350   45.7240   28.2860 C.cat 163  ARG163      0.5346
    102  NH1       34.1410   45.0970   29.4270 N.pl3 163  ARG163      0.1354
    103  NH2       32.6220   45.5660   27.7830 N.pl3 163  ARG163      0.1354
@<TRIPOS>BOND
     1    39    37   ar
     2    26    25    2
     3    35    34    2
     4    36    37    1
     5    36    33    1
     6    22    20    1
     7    37    38   ar
     8    27    24    1
     9    27    28    1
    10    23    24    1
    11    23    18   am
    12    25    24    1
    13    25    32   am
    14    17    16    1
    15    17    20    1
    16    17    18    1
    17    34    33    1
    18    34    40   am
    19    21    20    1
    20    33    32    1
    21    28    29    1
    22    41    40    1
    23    41    42    1
    24    41    44    1
    25    18    19    2
    26    46    44    1
    27    42    43    2
    28    45    44    1
    29     8     6    1
    30    29    30   ar
    31    29    31   ar
    32     5     6    1
    33     5     2    1
    34     6     7    1
    35     1     2    1
    36    12    11    2
    37    15    13    1
    38     2     3    1
    39    78    76   ar
    40    78    80   ar
    41    54    52    1
    42    11    10    1
    43     9     3   am
    44     9    10    1
    45    81    80    1
    46    51    48    1
    47    51    52    1
    48    76    75   ar
    49     3     4    2
    50    80    79   ar
    51    47    48    1
    52    10    13    1
    53    48    49    1
    54    52    53    1
    55    13    14    1
    56    73    72    2
    57    75    74    1
    58    75    77   ar
    59    63    61   ar
    60    79    77   ar
    61    71    72    1
    62    71    74    1
    63    71    70    1
    64    62    61   ar
    65    49    55   am
    66    49    50    2
    67    61    60    1
    68    55    56    1
    69    58    57    2
    70    60    59    1
    71    56    59    1
    72    56    57    1
    73    57    64   am
    74    90    92   ar
    75    90    88   ar
    76    92    91   ar
    77    68    65    1
    78    68    69    1
    79    64    65    1
    80    65    66    1
    81    88    87   ar
    82   100    99    1
    83   100   101    2
    84    91    89   ar
    85   103   101    1
    86    98    99    1
    87    98    97    1
    88    95    94    1
    89    95    96    2
    90    94    97    1
    91    94    93    1
    92   101   102    1
    93    87    89   ar
    94    87    86    1
    95    66    67    2
    96    86    83    1
    97    83    84    1
    98    83    82    1
    99    84    85    2
