@<TRIPOS>MOLECULE
tmp/4agaA00.pdb
 98 96 0 0 0
SMALL
GASTEIGER

@<TRIPOS>ATOM
      1  N          3.9560   23.9820   13.9240 N.3    35  GLU35      -0.1245
      2  CA         4.6650   23.0850   14.8550 C.3    35  GLU35       0.1567
      3  C          5.2950   21.8930   14.1740 C.2    35  GLU35       0.2260
      4  O          6.4730   21.5510   14.4660 O.2    35  GLU35      -0.2867
      5  CB         3.6510   22.5540   15.9260 C.3    35  GLU35       0.0388
      6  CG         3.1690   23.6640   16.9100 C.3    35  GLU35       0.1160
      7  CD         4.2630   24.2570   17.7920 C.2    35  GLU35       0.3649
      8  OE1        5.4230   23.7720   17.7540 O.co2  35  GLU35      -0.2457
      9  OE2        3.9250   25.2310   18.5130 O.co2  35  GLU35      -0.2457
     10  N          9.8190   17.8250   22.1690 N.3    52  ASP52      -0.1239
     11  CA         8.4550   18.0620   21.7020 C.3    52  ASP52       0.1674
     12  C          8.0950   16.9700   20.6760 C.2    52  ASP52       0.2266
     13  O          8.8720   16.6030   19.8100 O.2    52  ASP52      -0.2867
     14  CB         8.3240   19.4320   21.0120 C.3    52  ASP52       0.1410
     15  CG         8.5780   20.5800   21.9270 C.2    52  ASP52       0.3668
     16  OD1        8.4500   20.4490   23.1400 O.co2  52  ASP52      -0.2456
     17  OD2        8.7270   21.6800   21.3830 O.co2  52  ASP52      -0.2456
     18  N          1.2620   18.4810   17.1850 N.3    56  LEU56      -0.1231
     19  CA         1.2070   19.6910   17.9940 C.3    56  LEU56       0.1693
     20  C          2.4340   19.8640   18.9250 C.2    56  LEU56       0.2592
     21  O          2.3870   20.7080   19.8240 O.2    56  LEU56      -0.2718
     22  CB        -0.1860   19.8450   18.7410 C.3    56  LEU56       0.0284
     23  CG        -1.3880   20.1310   17.8250 C.3    56  LEU56       0.0019
     24  CD1       -2.6810   19.7910   18.6460 C.3    56  LEU56       0.0001
     25  CD2       -1.3150   21.6330   17.4450 C.3    56  LEU56       0.0001
     26  N          3.5230   19.0950   18.7110 N.am   57  GLN57      -0.1966
     27  CA         4.7940   19.3680   19.4150 C.3    57  GLN57       0.1733
     28  C          4.6450   19.5500   20.9390 C.2    57  GLN57       0.2616
     29  O          5.1060   20.5310   21.5560 O.2    57  GLN57      -0.2715
     30  CB         5.5220   20.5860   18.7860 C.3    57  GLN57       0.0408
     31  CG         6.0290   20.2410   17.3210 C.3    57  GLN57       0.0908
     32  CD         7.1730   19.2170   17.4300 C.2    57  GLN57       0.2608
     33  OE1        8.3360   19.6060   17.6520 O.2    57  GLN57      -0.2717
     34  NE2        6.8600   17.9160   17.2300 N.am   57  GLN57      -0.0878
     35  N          3.9450   18.5610   21.4870 N.am   58  ILE58      -0.1963
     36  CA         3.6850   18.5550   22.9430 C.3    58  ILE58       0.1727
     37  C          4.9540   18.1020   23.6520 C.2    58  ILE58       0.2616
     38  O          5.6410   17.1580   23.2930 O.2    58  ILE58      -0.2715
     39  CB         2.5070   17.6420   23.1570 C.3    58  ILE58       0.0290
     40  CG1        1.2460   18.3370   22.6370 C.3    58  ILE58       0.0022
     41  CG2        2.3860   17.2570   24.6100 C.3    58  ILE58       0.0023
     42  CD1        0.0140   17.4570   22.6480 C.3    58  ILE58       0.0001
     43  N          5.2350   18.7850   24.7620 N.am   59  ASN59      -0.1972
     44  CA         6.5400   18.7780   25.4280 C.3    59  ASN59       0.1688
     45  C          6.5780   17.8030   26.5830 C.2    59  ASN59       0.2292
     46  O          5.6470   17.7290   27.3930 O.2    59  ASN59      -0.2864
     47  CB         6.7500   20.2100   25.9950 C.3    59  ASN59       0.1181
     48  CG         8.1390   20.3850   26.5130 C.2    59  ASN59       0.2629
     49  OD1        8.3860   20.2440   27.7140 O.2    59  ASN59      -0.2716
     50  ND2        9.0930   20.6180   25.6010 N.am   59  ASN59      -0.0877
     51  N          4.0020   17.0690   29.9220 N.3    63  TRP63      -0.1241
     52  CA         2.7970   16.4450   29.4170 C.3    63  TRP63       0.1605
     53  C          2.8390   14.9710   29.0900 C.2    63  TRP63       0.2264
     54  O          1.7750   14.3330   29.0930 O.2    63  TRP63      -0.2867
     55  CB         2.2620   17.1810   28.1540 C.3    63  TRP63       0.0550
     56  CG         2.1000   18.6410   28.4250 C.ar   63  TRP63       0.0003
     57  CD1        2.8930   19.6740   28.0150 C.ar   63  TRP63       0.0946
     58  CD2        1.0970   19.2320   29.2920 C.ar   63  TRP63       0.0152
     59  NE1        2.4280   20.8930   28.5540 N.ar   63  TRP63      -0.2442
     60  CE2        1.3410   20.6270   29.3250 C.ar   63  TRP63       0.0810
     61  CE3        0.0070   18.6990   30.0040 C.ar   63  TRP63       0.0012
     62  CZ2        0.5370   21.5180   30.0980 C.ar   63  TRP63       0.0191
     63  CZ3       -0.7850   19.6010   30.7830 C.ar   63  TRP63       0.0001
     64  CH2       -0.4900   20.9620   30.8140 C.ar   63  TRP63       0.0015
     65  N         -3.8480   20.7720   27.7030 N.3    98  ILE98      -0.1245
     66  CA        -2.9030   21.9050   27.6770 C.3    98  ILE98       0.1561
     67  C         -3.6560   23.2180   27.5130 C.2    98  ILE98       0.2260
     68  O         -3.3610   24.1690   28.1920 O.2    98  ILE98      -0.2867
     69  CB        -1.9230   21.7170   26.5370 C.3    98  ILE98       0.0252
     70  CG1       -1.0870   20.4680   26.7940 C.3    98  ILE98       0.0019
     71  CG2       -0.9730   22.9350   26.4520 C.3    98  ILE98       0.0019
     72  CD1       -0.1820   20.0050   25.6010 C.3    98  ILE98       0.0001
     73  N          0.1640   28.5070   25.0320 N.3   107  ALA107     -0.1231
     74  CA         1.0580   27.3970   25.3710 C.3   107  ALA107      0.1694
     75  C          1.9590   27.0280   24.1850 C.2   107  ALA107      0.2592
     76  O          3.0770   26.5260   24.3300 O.2   107  ALA107     -0.2718
     77  CB         0.2550   26.1700   25.8380 C.3   107  ALA107      0.0304
     78  N          1.4160   27.1560   22.9720 N.am  108  TRP108     -0.1962
     79  CA         2.1960   26.8430   21.7820 C.3   108  TRP108      0.1771
     80  C          2.7930   28.1570   21.2890 C.2   108  TRP108      0.2616
     81  O          2.0910   29.0200   20.7250 O.2   108  TRP108     -0.2715
     82  CB         1.2500   26.2830   20.7340 C.3   108  TRP108      0.0590
     83  CG         0.7790   24.8710   20.9630 C.ar  108  TRP108      0.0006
     84  CD1        1.4840   23.7200   20.6940 C.ar  108  TRP108      0.0946
     85  CD2       -0.3960   24.4580   21.6610 C.ar  108  TRP108      0.0152
     86  NE1        0.7660   22.6050   21.1240 N.ar  108  TRP108     -0.2442
     87  CE2       -0.3860   23.0330   21.7330 C.ar  108  TRP108      0.0810
     88  CE3       -1.4570   25.1730   22.3070 C.ar  108  TRP108      0.0012
     89  CZ2       -1.3720   22.3140   22.3300 C.ar  108  TRP108      0.0191
     90  CZ3       -2.5250   24.4330   22.8900 C.ar  108  TRP108      0.0001
     91  CH2       -2.4740   23.0060   22.9010 C.ar  108  TRP108      0.0015
     92  N          4.1010   28.3050   21.4780 N.am  109  VAL109     -0.2030
     93  CA         4.7670   29.5450   21.0720 C.3   109  VAL109      0.1282
     94  C          4.5920   29.7760   19.5510 C.3   109  VAL109      0.2035
     95  O          4.4070   30.9490   19.2290 O.3   109  VAL109     -0.2185
     96  CB         6.2500   29.4210   21.5420 C.3   109  VAL109      0.0226
     97  CG1        7.2240   30.2490   20.7020 C.3   109  VAL109      0.0018
     98  CG2        6.3030   29.6720   23.0700 C.3   109  VAL109      0.0018
@<TRIPOS>BOND
     1     1     2    1
     2     3     4    2
     3     3     2    1
     4     2     5    1
     5     5     6    1
     6     6     7    1
     7    18    19    1
     8    34    32   am
     9    31    32    1
    10    31    30    1
    11    32    33    2
    12    25    23    1
    13     8     7   ar
    14     7     9   ar
    15    23    24    1
    16    23    22    1
    17    19    22    1
    18    19    20    1
    19    26    20   am
    20    26    27    1
    21    30    27    1
    22    20    21    2
    23    95    94    1
    24    27    28    1
    25    94    93    1
    26    13    12    2
    27    12    11    1
    28    84    83   ar
    29    84    86   ar
    30    97    96    1
    31    81    80    2
    32    82    83    1
    33    82    79    1
    34    28    35   am
    35    28    29    2
    36    83    85   ar
    37    14    11    1
    38    14    15    1
    39    93    92    1
    40    93    96    1
    41    86    87   ar
    42    80    92   am
    43    80    79    1
    44    17    15   ar
    45    35    36    1
    46    96    98    1
    47    85    87   ar
    48    85    88   ar
    49    11    10    1
    50    87    89   ar
    51    79    78    1
    52    15    16   ar
    53    88    90   ar
    54    89    91   ar
    55    40    42    1
    56    40    39    1
    57    90    91   ar
    58    36    39    1
    59    36    37    1
    60    78    75   am
    61    39    41    1
    62    38    37    2
    63    37    43   am
    64    75    76    2
    65    75    74    1
    66    43    44    1
    67    73    74    1
    68    74    77    1
    69    44    47    1
    70    44    45    1
    71    50    48   am
    72    72    70    1
    73    47    48    1
    74    71    69    1
    75    48    49    2
    76    69    70    1
    77    69    66    1
    78    45    46    2
    79    67    66    1
    80    67    68    2
    81    66    65    1
    82    57    56   ar
    83    57    59   ar
    84    55    56    1
    85    55    52    1
    86    56    58   ar
    87    59    60   ar
    88    53    54    2
    89    53    52    1
    90    58    60   ar
    91    58    61   ar
    92    60    62   ar
    93    52    51    1
    94    61    63   ar
    95    62    64   ar
    96    63    64   ar
