@<TRIPOS>MOLECULE
tmp/4agcA00.pdb
 190 181 0 0 0
SMALL
GASTEIGER

@<TRIPOS>ATOM
      1  N        -27.8810   -7.0590   -3.1320 N.3     4  ILE4       -0.1245
      2  CA       -28.9170   -6.1800   -2.6120 C.3     4  ILE4        0.1561
      3  C        -30.2430   -6.9330   -2.6100 C.2     4  ILE4        0.2260
      4  O        -30.7650   -7.2730   -3.6670 O.2     4  ILE4       -0.2867
      5  CB       -29.0550   -4.9110   -3.4700 C.3     4  ILE4        0.0252
      6  CG1      -27.7330   -4.1370   -3.4670 C.3     4  ILE4        0.0019
      7  CG2      -30.1750   -4.0410   -2.9290 C.3     4  ILE4        0.0019
      8  CD1      -27.7720   -2.8510   -4.2570 C.3     4  ILE4        0.0001
      9  N        -18.7630    0.6860  -24.6970 N.3    31  LYS31      -0.1245
     10  CA       -17.7350   -0.1760  -24.1200 C.3    31  LYS31       0.1561
     11  C        -18.1320   -0.8020  -22.7790 C.2    31  LYS31       0.2260
     12  O        -18.9550   -0.2640  -22.0390 O.2    31  LYS31      -0.2867
     13  CB       -16.4390    0.6180  -23.9470 C.3    31  LYS31       0.0271
     14  CG       -16.5470    1.7880  -22.9760 C.3    31  LYS31       0.0035
     15  CD       -15.1670    2.3780  -22.6850 C.3    31  LYS31       0.0206
     16  CE       -15.2580    3.7120  -21.9560 C.3    31  LYS31       0.1093
     17  NZ       -15.8670    4.7740  -22.8120 N.3    31  LYS31      -0.1314
     18  N        -18.0160   -1.7110  -18.9200 N.3    33  LEU33      -0.1245
     19  CA       -17.5610   -1.0850  -17.6880 C.3    33  LEU33       0.1561
     20  C        -17.2230   -2.1600  -16.6560 C.2    33  LEU33       0.2260
     21  O        -16.4560   -1.9230  -15.7290 O.2    33  LEU33      -0.2867
     22  CB       -18.6440   -0.1470  -17.1460 C.3    33  LEU33       0.0270
     23  CG       -19.0190    0.9930  -18.1000 C.3    33  LEU33       0.0019
     24  CD1      -20.2110    1.7650  -17.5510 C.3    33  LEU33       0.0001
     25  CD2      -17.8030    1.9110  -18.2980 C.3    33  LEU33       0.0001
     26  N        -21.7720   -4.9130  -17.3260 N.3    41  VAL41      -0.1245
     27  CA       -22.2950   -3.5510  -17.3810 C.3    41  VAL41       0.1561
     28  C        -21.5850   -2.8340  -18.5180 C.2    41  VAL41       0.2260
     29  O        -20.3540   -2.8360  -18.5940 O.2    41  VAL41      -0.2867
     30  CB       -22.0520   -2.7960  -16.0530 C.3    41  VAL41       0.0252
     31  CG1      -22.5510   -1.3480  -16.1590 C.3    41  VAL41       0.0019
     32  CG2      -22.7720   -3.5140  -14.9220 C.3    41  VAL41       0.0019
     33  N        -25.3790    3.5400  -17.6340 N.3    59  ALA59      -0.1231
     34  CA       -24.8110    2.2020  -17.4960 C.3    59  ALA59       0.1694
     35  C        -25.9030    1.1340  -17.6360 C.2    59  ALA59       0.2592
     36  O        -26.9540    1.2140  -17.0060 O.2    59  ALA59      -0.2718
     37  CB       -24.1160    2.0690  -16.1420 C.3    59  ALA59       0.0304
     38  N        -25.6530    0.1320  -18.4630 N.am   60  VAL60      -0.1966
     39  CA       -26.6440   -0.9100  -18.6520 C.3    60  VAL60       0.1727
     40  C        -26.1390   -2.3070  -18.3200 C.2    60  VAL60       0.2616
     41  O        -25.1110   -2.7670  -18.8260 O.2    60  VAL60      -0.2715
     42  CB       -27.2260   -0.8720  -20.0900 C.3    60  VAL60       0.0290
     43  CG1      -26.1380   -0.6130  -21.0840 C.3    60  VAL60       0.0023
     44  CG2      -27.9370   -2.1790  -20.4010 C.3    60  VAL60       0.0023
     45  N        -26.8620   -2.9690  -17.4290 N.am   61  LYS61      -0.1977
     46  CA       -26.5320   -4.3380  -17.0800 C.3    61  LYS61       0.1596
     47  C        -27.3250   -5.2610  -17.9890 C.2    61  LYS61       0.2287
     48  O        -28.5290   -5.0770  -18.1770 O.2    61  LYS61      -0.2864
     49  CB       -26.8860   -4.6410  -15.6230 C.3    61  LYS61       0.0298
     50  CG       -26.3310   -5.9750  -15.1270 C.3    61  LYS61       0.0038
     51  CD       -26.5790   -6.1880  -13.6410 C.3    61  LYS61       0.0206
     52  CE       -25.6740   -5.2980  -12.7830 C.3    61  LYS61       0.1093
     53  NZ       -25.8450   -5.6090  -11.3300 N.3    61  LYS61      -0.1314
     54  N        -33.6050   -8.2730   -9.9850 N.3    78  GLU78      -0.1245
     55  CA       -32.7870   -7.0920   -9.7090 C.3    78  GLU78       0.1567
     56  C        -33.5340   -5.8230  -10.1400 C.2    78  GLU78       0.2260
     57  O        -33.6110   -4.8480   -9.3890 O.2    78  GLU78      -0.2867
     58  CB       -31.4460   -7.1760  -10.4500 C.3    78  GLU78       0.0388
     59  CG       -30.5300   -5.9870  -10.1920 C.3    78  GLU78       0.1160
     60  CD       -29.1400   -6.1690  -10.7740 C.2    78  GLU78       0.3649
     61  OE1      -28.7300   -7.3290  -10.9990 O.co2  78  GLU78      -0.2457
     62  OE2      -28.4540   -5.1500  -11.0010 O.co2  78  GLU78      -0.2457
     63  N        -36.3270   -5.1150   -7.6420 N.3    81  ILE81      -0.1231
     64  CA       -35.9560   -4.6120   -6.3290 C.3    81  ILE81       0.1692
     65  C        -35.4600   -3.1700   -6.4250 C.2    81  ILE81       0.2591
     66  O        -35.6440   -2.3910   -5.5000 O.2    81  ILE81      -0.2718
     67  CB       -34.8770   -5.4880   -5.6470 C.3    81  ILE81       0.0266
     68  CG1      -34.7390   -5.0740   -4.1790 C.3    81  ILE81       0.0019
     69  CG2      -33.5410   -5.3120   -6.3380 C.3    81  ILE81       0.0020
     70  CD1      -34.0820   -6.1250   -3.3040 C.3    81  ILE81       0.0001
     71  N        -34.8520   -2.8120   -7.5500 N.am   82  LEU82      -0.1980
     72  CA       -34.4490   -1.4230   -7.7730 C.3    82  LEU82       0.1596
     73  C        -35.6760   -0.5210   -7.8610 C.2    82  LEU82       0.2287
     74  O        -35.6740    0.6010   -7.3590 O.2    82  LEU82      -0.2864
     75  CB       -33.6130   -1.3000   -9.0590 C.3    82  LEU82       0.0297
     76  CG       -32.1860   -1.8610   -8.9620 C.3    82  LEU82       0.0022
     77  CD1      -31.5240   -1.8500  -10.3270 C.3    82  LEU82       0.0001
     78  CD2      -31.3790   -1.0410   -7.9710 C.3    82  LEU82       0.0001
     79  N        -27.3140    4.0470   -6.7000 N.3    92  VAL92      -0.1245
     80  CA       -27.2730    4.2420   -8.1320 C.3    92  VAL92       0.1561
     81  C        -28.7190    4.2020   -8.6340 C.2    92  VAL92       0.2260
     82  O        -29.5140    3.3620   -8.2070 O.2    92  VAL92      -0.2867
     83  CB       -26.3900    3.1640   -8.8260 C.3    92  VAL92       0.0252
     84  CG1      -27.0910    1.8110   -8.8350 C.3    92  VAL92       0.0019
     85  CG2      -26.0380    3.6200  -10.2310 C.3    92  VAL92       0.0019
     86  N        -31.0830   -3.5670  -17.8550 N.3   107  VAL107     -0.1245
     87  CA       -31.4090   -2.6960  -16.7340 C.3   107  VAL107      0.1561
     88  C        -30.5190   -1.4550  -16.7670 C.2   107  VAL107      0.2260
     89  O        -29.2920   -1.5530  -16.7110 O.2   107  VAL107     -0.2867
     90  CB       -31.2180   -3.4320  -15.3880 C.3   107  VAL107      0.0252
     91  CG1      -31.6900   -2.5520  -14.2410 C.3   107  VAL107      0.0019
     92  CG2      -31.9930   -4.7460  -15.4020 C.3   107  VAL107      0.0019
     93  N        -29.1940    2.2210  -15.4870 N.3   109  VAL109     -0.1231
     94  CA       -29.0180    3.1260  -14.3550 C.3   109  VAL109      0.1692
     95  C        -28.0340    4.2430  -14.7000 C.2   109  VAL109      0.2592
     96  O        -27.3610    4.2080  -15.7390 O.2   109  VAL109     -0.2718
     97  CB       -28.4910    2.3820  -13.1060 C.3   109  VAL109      0.0266
     98  CG1      -29.4670    1.2770  -12.6970 C.3   109  VAL109      0.0020
     99  CG2      -27.1010    1.8150  -13.3860 C.3   109  VAL109      0.0020
    100  N        -27.9530    5.2370  -13.8260 N.am  110  GLU110     -0.1966
    101  CA       -27.1240    6.4000  -14.1020 C.3   110  GLU110      0.1733
    102  C        -25.6600    6.0010  -14.2130 C.2   110  GLU110      0.2616
    103  O        -25.2150    5.0230  -13.5970 O.2   110  GLU110     -0.2715
    104  CB       -27.2970    7.4630  -13.0050 C.3   110  GLU110      0.0429
    105  CG       -26.8120    7.0460  -11.6390 C.3   110  GLU110      0.1163
    106  CD       -27.1700    8.0570  -10.5600 C.2   110  GLU110      0.3649
    107  OE1      -26.7910    9.2420  -10.7060 O.co2 110  GLU110     -0.2457
    108  OE2      -27.8290    7.6700   -9.5690 O.co2 110  GLU110     -0.2457
    109  N        -24.9240    6.7570  -15.0180 N.am  111  PHE111     -0.1960
    110  CA       -23.4980    6.5360  -15.1960 C.3   111  PHE111      0.1771
    111  C        -22.7040    7.3860  -14.2010 C.2   111  PHE111      0.2620
    112  O        -22.9790    8.5750  -14.0120 O.2   111  PHE111     -0.2715
    113  CB       -23.1060    6.8820  -16.6310 C.3   111  PHE111      0.0574
    114  CG       -21.6330    6.8000  -16.9030 C.ar  111  PHE111     -0.0200
    115  CD1      -20.9890    5.5740  -16.9590 C.ar  111  PHE111     -0.0042
    116  CD2      -20.8990    7.9480  -17.1540 C.ar  111  PHE111     -0.0042
    117  CE1      -19.6400    5.4910  -17.2680 C.ar  111  PHE111     -0.0003
    118  CE2      -19.5520    7.8730  -17.4630 C.ar  111  PHE111     -0.0003
    119  CZ       -18.9220    6.6440  -17.5210 C.ar  111  PHE111     -0.0000
    120  N        -21.7290    6.7590  -13.5560 N.am  112  CYS112     -0.1954
    121  CA       -20.8950    7.4380  -12.5720 C.3   112  CYS112      0.1843
    122  C        -19.4810    7.4970  -13.1160 C.2   112  CYS112      0.2625
    123  O        -18.7730    6.4960  -13.1220 O.2   112  CYS112     -0.2714
    124  CB       -20.9240    6.6690  -11.2510 C.3   112  CYS112      0.0997
    125  SG       -22.5890    6.5070  -10.5920 S.3   112  CYS112     -0.0797
    126  N        -19.0780    8.6800  -13.5720 N.am  113  LYS113     -0.1963
    127  CA       -17.9500    8.7860  -14.4860 C.3   113  LYS113      0.1728
    128  C        -16.6020    8.3650  -13.9120 C.2   113  LYS113      0.2616
    129  O        -15.6850    8.0710  -14.6720 O.2   113  LYS113     -0.2715
    130  CB       -17.8350   10.2120  -15.0270 C.3   113  LYS113      0.0311
    131  CG       -17.5530   11.2470  -13.9690 C.3   113  LYS113      0.0038
    132  CD       -17.2000   12.5900  -14.5970 C.3   113  LYS113      0.0206
    133  CE       -15.8800   12.5250  -15.3470 C.3   113  LYS113      0.1093
    134  NZ       -15.4820   13.8670  -15.8780 N.3   113  LYS113     -0.1314
    135  N        -16.4650    8.3340  -12.5920 N.am  114  PHE114     -0.1960
    136  CA       -15.1660    7.9840  -12.0110 C.3   114  PHE114      0.1771
    137  C        -15.0190    6.5170  -11.6100 C.2   114  PHE114      0.2620
    138  O        -13.9700    6.1030  -11.1240 O.2   114  PHE114     -0.2715
    139  CB       -14.8580    8.8940  -10.8230 C.3   114  PHE114      0.0574
    140  CG       -14.6490   10.3300  -11.2120 C.ar  114  PHE114     -0.0200
    141  CD1      -13.5090   10.7120  -11.9040 C.ar  114  PHE114     -0.0042
    142  CD2      -15.6060   11.2930  -10.9200 C.ar  114  PHE114     -0.0042
    143  CE1      -13.3270   12.0320  -12.3030 C.ar  114  PHE114     -0.0003
    144  CE2      -15.4320   12.6100  -11.3140 C.ar  114  PHE114     -0.0003
    145  CZ       -14.2890   12.9790  -12.0080 C.ar  114  PHE114     -0.0000
    146  N        -16.0640    5.7280  -11.8240 N.am  115  GLY115     -0.1940
    147  CA       -15.9670    4.3080  -11.5420 C.3   115  GLY115      0.2014
    148  C        -16.0020    3.9810  -10.0610 C.2   115  GLY115      0.2638
    149  O        -16.4140    4.7990   -9.2370 O.2   115  GLY115     -0.2714
    150  N        -15.5570    2.7830   -9.7130 N.am  116  ASN116     -0.1972
    151  CA       -15.6870    2.3190   -8.3400 C.3   116  ASN116      0.1688
    152  C        -14.6860    3.0260   -7.4340 C.2   116  ASN116      0.2292
    153  O        -13.5900    3.4050   -7.8670 O.2   116  ASN116     -0.2864
    154  CB       -15.4900    0.8000   -8.2710 C.3   116  ASN116      0.1181
    155  CG       -14.0300    0.4010   -8.2080 C.2   116  ASN116      0.2629
    156  OD1      -13.4160    0.4260   -7.1460 O.2   116  ASN116     -0.2716
    157  ND2      -13.4700    0.0280   -9.3500 N.am  116  ASN116     -0.0877
    158  N        -19.6740    3.7930   -6.1890 N.3   171  LEU171     -0.1245
    159  CA       -19.2930    4.5080   -7.3960 C.3   171  LEU171      0.1561
    160  C        -19.1440    6.0030   -7.1220 C.2   171  LEU171      0.2260
    161  O        -19.8930    6.5720   -6.3280 O.2   171  LEU171     -0.2867
    162  CB       -20.3510    4.3020   -8.4770 C.3   171  LEU171      0.0270
    163  CG       -20.6380    2.8660   -8.8970 C.3   171  LEU171      0.0019
    164  CD1      -21.9560    2.8360   -9.6590 C.3   171  LEU171      0.0001
    165  CD2      -19.4970    2.3290   -9.7510 C.3   171  LEU171      0.0001
    166  N        -23.8710    0.6620   -5.2740 N.3   181  CYS181     -0.1221
    167  CA       -24.3350   -0.1830   -6.3660 C.3   181  CYS181      0.1808
    168  C        -24.0350   -1.6460   -6.0270 C.2   181  CYS181      0.2601
    169  O        -23.5880   -1.9610   -4.9270 O.2   181  CYS181     -0.2717
    170  CB       -23.6390    0.2090   -7.6820 C.3   181  CYS181      0.0970
    171  SG       -21.9060   -0.3620   -7.8140 S.3   181  CYS181     -0.0800
    172  N        -24.3040   -2.5370   -6.9720 N.am  182  ASP182     -0.1959
    173  CA       -23.8000   -3.9020   -6.9140 C.3   182  ASP182      0.1840
    174  C        -23.5740   -4.3780   -8.3440 C.2   182  ASP182      0.2622
    175  O        -24.5190   -4.4760   -9.1320 O.2   182  ASP182     -0.2715
    176  CB       -24.8070   -4.8210   -6.2110 C.3   182  ASP182      0.1450
    177  CG       -24.2860   -6.2450   -6.0500 C.2   182  ASP182      0.3671
    178  OD1      -23.0540   -6.4290   -5.9960 O.co2 182  ASP182     -0.2456
    179  OD2      -25.1070   -7.1810   -5.9780 O.co2 182  ASP182     -0.2456
    180  N        -22.3200   -4.6550   -8.6850 N.am  183  PHE183     -0.1974
    181  CA       -21.9900   -5.1460  -10.0190 C.3   183  PHE183      0.1639
    182  C        -22.6650   -6.4990  -10.2320 C.2   183  PHE183      0.2290
    183  O        -23.1450   -6.7960  -11.3220 O.2   183  PHE183     -0.2864
    184  CB       -20.4730   -5.2830  -10.1840 C.3   183  PHE183      0.0560
    185  CG       -19.7710   -3.9810  -10.4940 C.ar  183  PHE183     -0.0200
    186  CD1      -19.5990   -3.0120   -9.5130 C.ar  183  PHE183     -0.0042
    187  CD2      -19.2680   -3.7360  -11.7630 C.ar  183  PHE183     -0.0042
    188  CE1      -18.9390   -1.8310   -9.7950 C.ar  183  PHE183     -0.0003
    189  CE2      -18.6060   -2.5540  -12.0480 C.ar  183  PHE183     -0.0003
    190  CZ       -18.4420   -1.5990  -11.0580 C.ar  183  PHE183     -0.0000
@<TRIPOS>BOND
     1     9    10    1
     2    10    13    1
     3    10    11    1
     4    13    14    1
     5    14    15    1
     6    17    16    1
     7    11    12    2
     8    15    16    1
     9    43    42    1
    10    44    42    1
    11    42    39    1
    12    18    19    1
    13    41    40    2
    14    39    38    1
    15    39    40    1
    16    29    28    2
    17    28    27    1
    18    38    35   am
    19    40    45   am
    20    25    23    1
    21    48    47    2
    22    23    24    1
    23    23    22    1
    24    47    46    1
    25    86    87    1
    26    19    22    1
    27    19    20    1
    28    35    34    1
    29    35    36    2
    30    33    34    1
    31   119   118   ar
    32   119   117   ar
    33    34    37    1
    34   118   116   ar
    35    45    46    1
    36    27    26    1
    37    27    30    1
    38   117   115   ar
    39   116   114   ar
    40    46    49    1
    41   115   114   ar
    42   114   113    1
    43    88    87    1
    44    88    89    2
    45    87    90    1
    46    20    21    2
    47   113   110    1
    48    31    30    1
    49    30    32    1
    50   134   133    1
    51    96    95    2
    52    49    50    1
    53    93    94    1
    54    92    90    1
    55    90    91    1
    56   133   132    1
    57   110   109    1
    58   110   111    1
    59    50    51    1
    60   130   127    1
    61   130   131    1
    62   109   102   am
    63    95    94    1
    64    95   100   am
    65   129   128    2
    66   132   131    1
    67   127   128    1
    68   127   126    1
    69    94    97    1
    70   102   101    1
    71   102   103    2
    72   111   112    2
    73   111   120   am
    74   101   100    1
    75   101   104    1
    76   128   135   am
    77    51    52    1
    78   126   122   am
    79   120   121    1
    80    99    97    1
    81   123   122    2
    82   122   121    1
    83    97    98    1
    84   104   105    1
    85    52    53    1
    86   135   136    1
    87   121   124    1
    88   143   145   ar
    89   143   141   ar
    90   189   187   ar
    91   189   190   ar
    92   136   137    1
    93   136   139    1
    94   145   144   ar
    95   141   140   ar
    96   146   137   am
    97   146   147    1
    98   187   185   ar
    99   105   106    1
   100   137   138    2
   101   147   148    1
   102   183   182    2
   103   144   142   ar
   104   124   125    1
   105   140   142   ar
   106   140   139    1
   107   190   188   ar
   108    62    60   ar
   109    61    60   ar
   110    60    59    1
   111   107   106   ar
   112   106   108   ar
   113   185   184    1
   114   185   186   ar
   115    58    59    1
   116    58    55    1
   117    77    76    1
   118   182   181    1
   119    85    83    1
   120   184   181    1
   121    56    55    1
   122    56    57    2
   123   148   150   am
   124   148   149    2
   125   181   180    1
   126    54    55    1
   127   188   186   ar
   128   165   163    1
   129   150   151    1
   130   164   163    1
   131   157   155   am
   132   175   174    2
   133    75    76    1
   134    75    72    1
   135    76    78    1
   136   163   162    1
   137    84    83    1
   138    83    80    1
   139   180   174   am
   140    81    82    2
   141    81    80    1
   142   162   159    1
   143   174   173    1
   144   151   154    1
   145   151   152    1
   146   154   155    1
   147   155   156    2
   148    80    79    1
   149   153   152    2
   150    73    72    1
   151    73    74    2
   152   171   170    1
   153    72    71    1
   154   170   167    1
   155    63    64    1
   156    71    65   am
   157   159   160    1
   158   159   158    1
   159   160   161    2
   160   172   173    1
   161   172   168   am
   162   173   176    1
   163    65    64    1
   164    65    66    2
   165   167   168    1
   166   167   166    1
   167    69    67    1
   168    64    67    1
   169   176   177    1
   170   177   178   ar
   171   177   179   ar
   172   168   169    2
   173    67    68    1
   174     8     6    1
   175    68    70    1
   176     4     3    2
   177     5     6    1
   178     5     7    1
   179     5     2    1
   180     1     2    1
   181     2     3    1
