@<TRIPOS>MOLECULE
tmp/4agdA00.pdb
 154 147 0 0 0
SMALL
GASTEIGER

@<TRIPOS>ATOM
      1  N         48.9840   -3.4090  -25.5200 N.3    30  LYS30      -0.1245
      2  CA        49.9520   -4.2800  -24.8590 C.3    30  LYS30       0.1561
      3  C         49.4380   -4.8730  -23.5520 C.2    30  LYS30       0.2260
      4  O         48.6980   -4.2350  -22.8010 O.2    30  LYS30      -0.2867
      5  CB        51.2520   -3.5210  -24.5860 C.3    30  LYS30       0.0271
      6  CG        51.0890   -2.3230  -23.6710 C.3    30  LYS30       0.0035
      7  CD        52.4430   -1.7930  -23.2120 C.3    30  LYS30       0.0206
      8  CE        52.3180   -0.4310  -22.5300 C.3    30  LYS30       0.1093
      9  NZ        53.6490    0.1630  -22.2010 N.3    30  LYS30      -0.1314
     10  N         49.6390   -5.8910  -19.7320 N.3    32  LEU32      -0.1231
     11  CA        50.2880   -5.2720  -18.5970 C.3    32  LEU32       0.1693
     12  C         50.6970   -6.3840  -17.6390 C.2    32  LEU32       0.2592
     13  O         51.7710   -6.3560  -17.0400 O.2    32  LEU32      -0.2718
     14  CB        49.3160   -4.2900  -17.9390 C.3    32  LEU32       0.0284
     15  CG        48.8190   -3.1670  -18.8650 C.3    32  LEU32       0.0019
     16  CD1       47.4740   -2.6220  -18.3780 C.3    32  LEU32       0.0001
     17  CD2       49.8730   -2.0730  -18.9450 C.3    32  LEU32       0.0001
     18  N         49.8310   -7.3780  -17.5130 N.am   33  GLY33      -0.1957
     19  CA        50.1670   -8.5410  -16.7260 C.3    33  GLY33       0.1869
     20  C         49.5240   -9.7630  -17.3380 C.2    33  GLY33       0.2309
     21  O         48.3470   -9.7310  -17.7000 O.2    33  GLY33      -0.2863
     22  N         45.6310   -8.8060  -17.9350 N.3    40  VAL40      -0.1245
     23  CA        45.1460   -7.4350  -18.0030 C.3    40  VAL40       0.1561
     24  C         45.8410   -6.7540  -19.1770 C.2    40  VAL40       0.2260
     25  O         47.0740   -6.6880  -19.2250 O.2    40  VAL40      -0.2867
     26  CB        45.4690   -6.6510  -16.6990 C.3    40  VAL40       0.0252
     27  CG1       44.8300   -5.2720  -16.7430 C.3    40  VAL40       0.0019
     28  CG2       44.9710   -7.4160  -15.4940 C.3    40  VAL40       0.0019
     29  N         42.1440   -0.2290  -18.5800 N.3    58  ALA58      -0.1245
     30  CA        42.7020   -1.5690  -18.4560 C.3    58  ALA58       0.1562
     31  C         41.5930   -2.6030  -18.5970 C.2    58  ALA58       0.2260
     32  O         40.6180   -2.6080  -17.8390 O.2    58  ALA58      -0.2867
     33  CB        43.3980   -1.7280  -17.1170 C.3    58  ALA58       0.0290
     34  N         40.3870   -6.4210  -18.3960 N.3    60  LYS60      -0.1245
     35  CA        40.5820   -7.7730  -17.9050 C.3    60  LYS60       0.1561
     36  C         39.9360   -8.7410  -18.8850 C.2    60  LYS60       0.2260
     37  O         38.7850   -8.5540  -19.2870 O.2    60  LYS60      -0.2867
     38  CB        39.9410   -7.9190  -16.5190 C.3    60  LYS60       0.0271
     39  CG        40.7450   -7.2750  -15.3930 C.3    60  LYS60       0.0035
     40  CD        39.9070   -7.0010  -14.1360 C.3    60  LYS60       0.0206
     41  CE        40.7970   -6.8330  -12.9040 C.3    60  LYS60       0.1093
     42  NZ        41.7830   -7.9520  -12.7960 N.3    60  LYS60      -0.1314
     43  N         40.2190    0.0930   -7.4350 N.3    91  VAL91      -0.1245
     44  CA        39.9880    0.1000   -8.8710 C.3    91  VAL91       0.1561
     45  C         38.4870    0.0360   -9.1700 C.2    91  VAL91       0.2260
     46  O         37.7480   -0.7380   -8.5720 O.2    91  VAL91      -0.2867
     47  CB        40.7180   -1.0760   -9.5640 C.3    91  VAL91       0.0252
     48  CG1       40.1410   -1.3300  -10.9460 C.3    91  VAL91       0.0019
     49  CG2       42.1820   -0.7480   -9.6940 C.3    91  VAL91       0.0019
     50  N         38.3170   -1.5650  -16.5920 N.3   108  VAL108     -0.1231
     51  CA        38.5740   -0.9960  -15.2810 C.3   108  VAL108      0.1692
     52  C         39.5860    0.1460  -15.3810 C.2   108  VAL108      0.2592
     53  O         40.2150    0.3430  -16.4300 O.2   108  VAL108     -0.2718
     54  CB        39.0980   -2.0940  -14.3090 C.3   108  VAL108      0.0266
     55  CG1       38.0260   -3.1720  -14.1200 C.3   108  VAL108      0.0020
     56  CG2       40.3740   -2.7280  -14.8620 C.3   108  VAL108      0.0020
     57  N         39.7360    0.9060  -14.3000 N.am  109  GLU109     -0.1966
     58  CA        40.6260    2.0560  -14.3290 C.3   109  GLU109      0.1733
     59  C         42.0720    1.6370  -14.6230 C.2   109  GLU109      0.2616
     60  O         42.6110    0.7260  -13.9960 O.2   109  GLU109     -0.2715
     61  CB        40.5580    2.8220  -13.0020 C.3   109  GLU109      0.0429
     62  CG        39.4950    3.9040  -12.9520 C.3   109  GLU109      0.1163
     63  CD        39.1490    4.3090  -11.5260 C.2   109  GLU109      0.3649
     64  OE1       39.1550    3.4230  -10.6420 O.co2 109  GLU109     -0.2457
     65  OE2       38.8700    5.5070  -11.2770 O.co2 109  GLU109     -0.2457
     66  N         42.6910    2.3160  -15.5840 N.am  110  PHE110     -0.1960
     67  CA        44.1100    2.1360  -15.8620 C.3   110  PHE110      0.1771
     68  C         44.9380    2.9270  -14.8600 C.2   110  PHE110      0.2620
     69  O         44.5750    4.0440  -14.4980 O.2   110  PHE110     -0.2715
     70  CB        44.4150    2.6160  -17.2720 C.3   110  PHE110      0.0574
     71  CG        45.8610    2.5560  -17.6310 C.ar  110  PHE110     -0.0200
     72  CD1       46.4610    1.3470  -17.9450 C.ar  110  PHE110     -0.0042
     73  CD2       46.6210    3.7140  -17.6890 C.ar  110  PHE110     -0.0042
     74  CE1       47.7960    1.2930  -18.3160 C.ar  110  PHE110     -0.0003
     75  CE2       47.9540    3.6700  -18.0580 C.ar  110  PHE110     -0.0003
     76  CZ        48.5420    2.4570  -18.3730 C.ar  110  PHE110     -0.0000
     77  N         46.0480    2.3500  -14.4100 N.am  111  CYS111     -0.1954
     78  CA        46.9300    3.0190  -13.4510 C.3   111  CYS111      0.1843
     79  C         48.3410    3.0620  -14.0100 C.2   111  CYS111      0.2625
     80  O         49.0410    2.0420  -14.0240 O.2   111  CYS111     -0.2714
     81  CB        46.9310    2.2760  -12.1070 C.3   111  CYS111      0.0997
     82  SG        45.2810    2.0380  -11.3830 S.3   111  CYS111     -0.0797
     83  N         48.7530    4.2520  -14.4500 N.am  112  LYS112     -0.1963
     84  CA        49.9100    4.4060  -15.3310 C.3   112  LYS112      0.1728
     85  C         51.2250    3.9120  -14.7330 C.2   112  LYS112      0.2616
     86  O         52.1580    3.5790  -15.4780 O.2   112  LYS112     -0.2715
     87  CB        50.0600    5.8710  -15.7540 C.3   112  LYS112      0.0311
     88  CG        50.9870    6.6840  -14.8730 C.3   112  LYS112      0.0038
     89  CD        50.9360    8.1810  -15.1890 C.3   112  LYS112      0.0206
     90  CE        51.1390    8.4680  -16.6730 C.3   112  LYS112      0.1093
     91  NZ        52.4790    8.0530  -17.1890 N.3   112  LYS112     -0.1314
     92  N         51.2980    3.8570  -13.4020 N.am  113  PHE113     -0.1960
     93  CA        52.5230    3.4300  -12.7160 C.3   113  PHE113      0.1771
     94  C         52.5210    1.9890  -12.1880 C.2   113  PHE113      0.2620
     95  O         53.4920    1.5630  -11.5680 O.2   113  PHE113     -0.2715
     96  CB        52.8440    4.3800  -11.5600 C.3   113  PHE113      0.0574
     97  CG        53.1060    5.7880  -11.9930 C.ar  113  PHE113     -0.0200
     98  CD1       54.2950    6.1230  -12.6250 C.ar  113  PHE113     -0.0042
     99  CD2       52.1620    6.7820  -11.7770 C.ar  113  PHE113     -0.0042
    100  CE1       54.5410    7.4230  -13.0360 C.ar  113  PHE113     -0.0003
    101  CE2       52.4020    8.0850  -12.1860 C.ar  113  PHE113     -0.0003
    102  CZ        53.5950    8.4020  -12.8170 C.ar  113  PHE113     -0.0000
    103  N         51.4430    1.2450  -12.4210 N.am  114  GLY114     -0.1940
    104  CA        51.4300   -0.1640  -12.0600 C.3   114  GLY114      0.2014
    105  C         51.3900   -0.3950  -10.5610 C.2   114  GLY114      0.2638
    106  O         50.9990    0.4960   -9.8150 O.2   114  GLY114     -0.2714
    107  N         51.7980   -1.5850  -10.1170 N.am  115  ASN115     -0.1972
    108  CA        51.7120   -1.9710   -8.6970 C.3   115  ASN115      0.1688
    109  C         52.7020   -1.1960   -7.8110 C.2   115  ASN115      0.2292
    110  O         53.7650   -0.7530   -8.2740 O.2   115  ASN115     -0.2864
    111  CB        51.9780   -3.4740   -8.5340 C.3   115  ASN115      0.1181
    112  CG        53.4420   -3.8090   -8.6830 C.2   115  ASN115      0.2629
    113  OD1       54.1670   -3.9580   -7.6970 O.2   115  ASN115     -0.2716
    114  ND2       53.8950   -3.9080   -9.9240 N.am  115  ASN115     -0.0877
    115  N         56.7530   -2.7040   -6.9930 N.3   118  THR118     -0.1218
    116  CA        57.7230   -2.4600   -8.0410 C.3   118  THR118      0.1862
    117  C         57.9840   -0.9610   -8.2040 C.2   118  THR118      0.2287
    118  O         59.0660   -0.5490   -8.5920 O.2   118  THR118     -0.2866
    119  CB        57.2250   -3.0480   -9.3580 C.3   118  THR118      0.1770
    120  OG1       56.9590   -4.4430   -9.1820 O.3   118  THR118     -0.2211
    121  CG2       58.2580   -2.8690  -10.4350 C.3   118  THR118      0.0375
    122  N         47.8300   -0.4330   -6.8370 N.3   170  LEU170     -0.1245
    123  CA        48.3550    0.3180   -7.9630 C.3   170  LEU170      0.1561
    124  C         48.4640    1.8190   -7.7140 C.2   170  LEU170      0.2260
    125  O         47.6690    2.4100   -6.9800 O.2   170  LEU170     -0.2867
    126  CB        47.4860    0.0760   -9.1780 C.3   170  LEU170      0.0270
    127  CG        47.1900   -1.3850   -9.4750 C.3   170  LEU170      0.0019
    128  CD1       46.0220   -1.4700  -10.4330 C.3   170  LEU170      0.0001
    129  CD2       48.4430   -2.0420  -10.0550 C.3   170  LEU170      0.0001
    130  N         43.4710   -3.3720   -5.8470 N.3   180  CYS180     -0.1221
    131  CA        43.0130   -4.1630   -6.9850 C.3   180  CYS180      0.1808
    132  C         43.1380   -5.6580   -6.7080 C.2   180  CYS180      0.2601
    133  O         43.7550   -6.0700   -5.7200 O.2   180  CYS180     -0.2717
    134  CB        43.8230   -3.8180   -8.2320 C.3   180  CYS180      0.0970
    135  SG        45.5370   -4.4100   -8.1690 S.3   180  CYS180     -0.0800
    136  N         42.5460   -6.4620   -7.5860 N.am  181  ASP181     -0.1959
    137  CA        42.7550   -7.9030   -7.5650 C.3   181  ASP181      0.1840
    138  C         43.1850   -8.3460   -8.9540 C.2   181  ASP181      0.2622
    139  O         42.3670   -8.4310   -9.8660 O.2   181  ASP181     -0.2715
    140  CB        41.4610   -8.6220   -7.1440 C.3   181  ASP181      0.1450
    141  CG        41.5540  -10.1490   -7.2590 C.2   181  ASP181      0.3671
    142  OD1       42.6770  -10.7110   -7.2190 O.co2 181  ASP181     -0.2456
    143  OD2       40.4820  -10.7850   -7.3860 O.co2 181  ASP181     -0.2456
    144  N         44.4750   -8.6190   -9.1120 N.am  182  PHE182     -0.1974
    145  CA        44.9970   -9.0380  -10.4080 C.3   182  PHE182      0.1639
    146  C         44.2600  -10.2450  -10.9060 C.2   182  PHE182      0.2290
    147  O         44.1970  -10.4820  -12.1080 O.2   182  PHE182     -0.2864
    148  CB        46.4900   -9.3530  -10.3230 C.3   182  PHE182      0.0560
    149  CG        47.3620   -8.1910  -10.6830 C.ar  182  PHE182     -0.0200
    150  CD1       47.5340   -7.1360   -9.8010 C.ar  182  PHE182     -0.0042
    151  CD2       47.9760   -8.1300  -11.9180 C.ar  182  PHE182     -0.0042
    152  CE1       48.3000   -6.0430  -10.1480 C.ar  182  PHE182     -0.0003
    153  CE2       48.7460   -7.0320  -12.2690 C.ar  182  PHE182     -0.0003
    154  CZ        48.9070   -5.9920  -11.3850 C.ar  182  PHE182     -0.0000
@<TRIPOS>BOND
     1     1     2    1
     2     2     5    1
     3     2     3    1
     4     5     6    1
     5     6     7    1
     6     3     4    2
     7     7     8    1
     8     8     9    1
     9    10    11    1
    10    37    36    2
    11    25    24    2
    12    24    23    1
    13    17    15    1
    14    36    35    1
    15    15    16    1
    16    15    14    1
    17    31    30    1
    18    31    32    2
    19    11    14    1
    20    11    12    1
    21    29    30    1
    22    30    33    1
    23    34    35    1
    24    76    74   ar
    25    76    75   ar
    26    74    72   ar
    27    75    73   ar
    28    23    22    1
    29    23    26    1
    30    72    71   ar
    31    35    38    1
    32    21    20    2
    33    73    71   ar
    34    12    18   am
    35    12    13    2
    36    71    70    1
    37    18    19    1
    38    20    19    1
    39    70    67    1
    40    91    90    1
    41    27    26    1
    42    26    28    1
    43    90    89    1
    44    50    51    1
    45    38    39    1
    46    53    52    2
    47    67    66    1
    48    67    68    1
    49    87    84    1
    50    87    88    1
    51    66    59   am
    52    86    85    2
    53    39    40    1
    54    52    51    1
    55    52    57   am
    56    84    85    1
    57    84    83    1
    58    51    54    1
    59    89    88    1
    60    56    54    1
    61    68    69    2
    62    68    77   am
    63    85    92   am
    64    59    58    1
    65    59    60    2
    66    83    79   am
    67    77    78    1
    68    58    57    1
    69    58    61    1
    70    54    55    1
    71    40    41    1
    72    80    79    2
    73    79    78    1
    74    78    81    1
    75    92    93    1
    76   100   102   ar
    77   100    98   ar
    78    61    62    1
    79    62    63    1
    80    41    42    1
    81   102   101   ar
    82    93    94    1
    83    93    96    1
    84    98    97   ar
    85   103    94   am
    86   103   104    1
    87   153   151   ar
    88   153   154   ar
    89    94    95    2
    90   101    99   ar
    91   147   146    2
    92    81    82    1
    93   104   105    1
    94    97    99   ar
    95    97    96    1
    96   151   149   ar
    97    63    65   ar
    98    63    64   ar
    99   154   152   ar
   100    48    47    1
   101   146   145    1
   102   149   148    1
   103   149   150   ar
   104   105   107   am
   105   105   106    2
   106   121   119    1
   107   128   127    1
   108   145   148    1
   109   145   144    1
   110   152   150   ar
   111   107   108    1
   112   129   127    1
   113   114   112   am
   114   139   138    2
   115    49    47    1
   116    47    44    1
   117   127   126    1
   118   119   120    1
   119   119   116    1
   120   126   123    1
   121    45    44    1
   122    45    46    2
   123   144   138   am
   124   138   137    1
   125    44    43    1
   126   108   111    1
   127   108   109    1
   128   112   111    1
   129   112   113    2
   130   118   117    2
   131   110   109    2
   132   134   135    1
   133   134   131    1
   134   117   116    1
   135   116   115    1
   136   123   124    1
   137   123   122    1
   138   124   125    2
   139   136   137    1
   140   136   132   am
   141   137   140    1
   142   143   141   ar
   143   141   142   ar
   144   141   140    1
   145   131   132    1
   146   131   130    1
   147   132   133    2
