@<TRIPOS>MOLECULE
tmp/4agiD03.pdb
 134 126 0 0 0
SMALL
GASTEIGER

@<TRIPOS>ATOM
      1  N         33.1430   79.8220   62.7560 N.3   164  PHE164     -0.1241
      2  CA        32.5040   80.8680   63.5700 C.3   164  PHE164      0.1605
      3  C         33.2820   82.1490   63.2790 C.2   164  PHE164      0.2264
      4  O         34.3900   82.1080   62.7180 O.2   164  PHE164     -0.2867
      5  CB        32.5610   80.5250   65.0800 C.3   164  PHE164      0.0534
      6  CG        33.9250   80.2070   65.6010 C.ar  164  PHE164     -0.0203
      7  CD1       34.7960   81.1920   66.0570 C.ar  164  PHE164     -0.0042
      8  CD2       34.3340   78.8980   65.6430 C.ar  164  PHE164     -0.0042
      9  CE1       36.0640   80.8380   66.5290 C.ar  164  PHE164     -0.0003
     10  CE2       35.5700   78.5570   66.1220 C.ar  164  PHE164     -0.0003
     11  CZ        36.4330   79.5260   66.5620 C.ar  164  PHE164     -0.0000
     12  N         34.5620   85.5690   65.3660 N.3   166  TYR166     -0.1241
     13  CA        34.6050   86.3430   66.5980 C.3   166  TYR166      0.1605
     14  C         34.0510   87.7470   66.2720 C.2   166  TYR166      0.2264
     15  O         34.2920   88.2780   65.1830 O.2   166  TYR166     -0.2867
     16  CB        36.0190   86.4790   67.0620 C.3   166  TYR166      0.0534
     17  CG        36.7380   85.2430   67.5450 C.ar  166  TYR166     -0.0201
     18  CD1       36.2630   84.4940   68.5940 C.ar  166  TYR166     -0.0009
     19  CD2       37.9680   84.8770   66.9850 C.ar  166  TYR166     -0.0009
     20  CE1       36.9680   83.4100   69.0760 C.ar  166  TYR166      0.0417
     21  CE2       38.6860   83.7690   67.4590 C.ar  166  TYR166      0.0417
     22  CZ        38.1790   83.0710   68.5260 C.ar  166  TYR166      0.1957
     23  OH        38.9210   81.9920   69.0100 O.3   166  TYR166     -0.2866
     24  N         37.6270   75.5380   62.7170 N.3   175  ARG175     -0.1245
     25  CA        38.2580   74.4880   63.5070 C.3   175  ARG175      0.1563
     26  C         37.8330   73.1440   62.9330 C.2   175  ARG175      0.2260
     27  O         36.6650   72.9640   62.5620 O.2   175  ARG175     -0.2867
     28  CB        37.8690   74.5900   64.9660 C.3   175  ARG175      0.0307
     29  CG        38.2100   75.9250   65.6270 C.3   175  ARG175      0.0489
     30  CD        39.6900   76.0610   65.9060 C.3   175  ARG175      0.2205
     31  NE        40.0330   77.3140   66.6280 N.pl3 175  ARG175     -0.0865
     32  CZ        40.1890   78.5100   66.0370 C.cat 175  ARG175      0.5346
     33  NH1       40.1170   78.6510   64.7150 N.pl3 175  ARG175      0.1354
     34  NH2       40.4600   79.5890   66.7600 N.pl3 175  ARG175      0.1354
     35  N         42.7770   68.5560   66.9820 N.3   187  GLN187     -0.1245
     36  CA        42.2330   69.7680   66.3580 C.3   187  GLN187      0.1566
     37  C         43.2770   70.4050   65.4470 C.2   187  GLN187      0.2260
     38  O         44.4690   70.4810   65.7590 O.2   187  GLN187     -0.2867
     39  CB        41.8480   70.7510   67.4450 C.3   187  GLN187      0.0367
     40  CG        41.3900   72.1080   66.9270 C.3   187  GLN187      0.0905
     41  CD        41.4650   73.1860   67.9980 C.2   187  GLN187      0.2608
     42  OE1       40.4710   73.5010   68.6600 O.2   187  GLN187     -0.2717
     43  NE2       42.6760   73.7130   68.1990 N.am  187  GLN187     -0.0878
     44  N         43.3860   74.3340   63.4740 N.3   189  ALA189     -0.1245
     45  CA        42.7180   75.6020   63.6630 C.3   189  ALA189      0.1562
     46  C         43.1830   76.6420   62.6480 C.2   189  ALA189      0.2260
     47  O         44.3940   76.7340   62.4100 O.2   189  ALA189     -0.2867
     48  CB        43.0240   76.1590   65.0610 C.3   189  ALA189      0.0290
     49  N         42.7190   80.8040   61.9400 N.3   191  ASP191     -0.1239
     50  CA        42.2610   82.1720   62.1910 C.3   191  ASP191      0.1674
     51  C         42.8570   83.0770   61.1180 C.2   191  ASP191      0.2266
     52  O         43.8750   82.7700   60.5630 O.2   191  ASP191     -0.2867
     53  CB        42.7630   82.6770   63.5380 C.3   191  ASP191      0.1410
     54  CG        41.9930   82.1190   64.7500 C.2   191  ASP191      0.3668
     55  OD1       40.8420   81.6570   64.6470 O.co2 191  ASP191     -0.2456
     56  OD2       42.6130   82.1750   65.8450 O.co2 191  ASP191     -0.2456
     57  N         46.7180   84.1440   61.8450 N.3   194  LYS194     -0.1245
     58  CA        47.7190   83.1030   62.0340 C.3   194  LYS194      0.1561
     59  C         47.5990   82.0550   60.9550 C.2   194  LYS194      0.2260
     60  O         48.4680   81.1710   60.8890 O.2   194  LYS194     -0.2867
     61  CB        47.6220   82.4980   63.4390 C.3   194  LYS194      0.0271
     62  CG        48.3820   83.3560   64.4440 C.3   194  LYS194      0.0035
     63  CD        47.9190   83.1300   65.8410 C.3   194  LYS194      0.0206
     64  CE        48.6810   84.0820   66.7550 C.3   194  LYS194      0.1093
     65  NZ        48.7740   83.4430   68.0930 N.3   194  LYS194     -0.1314
     66  N         47.1790   77.2280   62.1540 N.3   197  TYR197     -0.1241
     67  CA        48.1740   77.2260   63.2120 C.3   197  TYR197      0.1605
     68  C         49.1110   76.0180   62.9820 C.2   197  TYR197      0.2264
     69  O         48.6140   74.9330   62.6370 O.2   197  TYR197     -0.2867
     70  CB        47.5530   77.0940   64.5910 C.3   197  TYR197      0.0534
     71  CG        46.8080   78.3030   65.1720 C.ar  197  TYR197     -0.0201
     72  CD1       45.6200   78.7690   64.6200 C.ar  197  TYR197     -0.0009
     73  CD2       47.3020   78.9580   66.2620 C.ar  197  TYR197     -0.0009
     74  CE1       44.9550   79.8400   65.1770 C.ar  197  TYR197      0.0417
     75  CE2       46.6190   80.0190   66.8450 C.ar  197  TYR197      0.0417
     76  CZ        45.4430   80.4320   66.2930 C.ar  197  TYR197      0.1957
     77  OH        44.8090   81.4980   66.8480 O.3   197  TYR197     -0.2866
     78  N         50.3090   73.6540   64.6760 N.3   199  ASP199     -0.1239
     79  CA        50.1690   72.8590   65.8960 C.3   199  ASP199      0.1674
     80  C         49.1750   71.7320   65.6130 C.2   199  ASP199      0.2266
     81  O         48.7380   71.5660   64.4740 O.2   199  ASP199     -0.2867
     82  CB        49.7520   73.6650   67.1070 C.3   199  ASP199      0.1410
     83  CG        48.3480   74.2750   66.9810 C.2   199  ASP199      0.3668
     84  OD1       47.5370   73.8590   66.0950 O.co2 199  ASP199     -0.2456
     85  OD2       48.1170   75.1770   67.8130 O.co2 199  ASP199     -0.2456
     86  N         46.3860   70.1920   68.3980 N.3   201  VAL201     -0.1245
     87  CA        45.9510   70.1040   69.8220 C.3   201  VAL201      0.1561
     88  C         45.2020   68.8050   70.0250 C.2   201  VAL201      0.2260
     89  O         44.2200   68.5130   69.3630 O.2   201  VAL201     -0.2867
     90  CB        45.0520   71.3030   70.2230 C.3   201  VAL201      0.0252
     91  CG1       44.5010   71.0730   71.6660 C.3   201  VAL201      0.0019
     92  CG2       45.8380   72.6100   70.0690 C.3   201  VAL201      0.0019
     93  N         34.6530   81.8730   72.1700 N.3   225  ILE225     -0.1245
     94  CA        33.8010   80.8830   71.4940 C.3   225  ILE225      0.1561
     95  C         33.5340   79.7170   72.4430 C.2   225  ILE225      0.2260
     96  O         34.2390   79.5610   73.4700 O.2   225  ILE225     -0.2867
     97  CB        34.4890   80.4270   70.1460 C.3   225  ILE225      0.0252
     98  CG1       33.5260   79.6290   69.2600 C.3   225  ILE225      0.0019
     99  CG2       35.7360   79.5790   70.4250 C.3   225  ILE225      0.0019
    100  CD1       32.2800   80.4260   68.8030 C.3   225  ILE225      0.0001
    101  N         32.6780   75.4700   72.0070 N.3   227  MET227     -0.1245
    102  CA        32.6650   74.3700   71.0170 C.3   227  MET227      0.1570
    103  C         32.3750   73.0430   71.6840 C.2   227  MET227      0.2261
    104  O         32.6530   72.8400   72.8510 O.2   227  MET227     -0.2867
    105  CB        33.9800   74.2770   70.2690 C.3   227  MET227      0.0387
    106  CG        34.4980   75.6230   69.7750 C.3   227  MET227      0.0595
    107  SD        35.9890   75.5270   68.7480 S.3   227  MET227     -0.1393
    108  CE        37.2080   74.9960   69.9650 C.3   227  MET227      0.0692
    109  N         34.9020   72.7430   74.8470 N.3   242  TRP242     -0.1241
    110  CA        35.6440   73.9750   74.9190 C.3   242  TRP242      0.1605
    111  C         34.6650   75.0300   75.4010 C.2   242  TRP242      0.2264
    112  O         33.6690   75.2640   74.7640 O.2   242  TRP242     -0.2867
    113  CB        36.1940   74.4040   73.5500 C.3   242  TRP242      0.0550
    114  CG        36.8360   75.7740   73.5870 C.ar  242  TRP242      0.0003
    115  CD1       36.1910   77.0210   73.5830 C.ar  242  TRP242      0.0946
    116  CD2       38.2710   76.0890   73.7280 C.ar  242  TRP242      0.0152
    117  NE1       37.1000   78.0360   73.7090 N.ar  242  TRP242     -0.2442
    118  CE2       38.3690   77.5330   73.8460 C.ar  242  TRP242      0.0810
    119  CE3       39.4510   75.3130   73.8260 C.ar  242  TRP242      0.0012
    120  CZ2       39.5920   78.1820   73.9790 C.ar  242  TRP242      0.0191
    121  CZ3       40.6590   75.9790   73.9980 C.ar  242  TRP242      0.0001
    122  CH2       40.7330   77.3700   74.0520 C.ar  242  TRP242      0.0015
    123  N         39.7820   73.6240   76.7310 N.3   248  TYR248     -0.1241
    124  CA        39.3620   72.2330   76.6820 C.3   248  TYR248      0.1605
    125  C         39.4460   71.6390   78.1160 C.2   248  TYR248      0.2264
    126  O         40.4920   71.1170   78.5140 O.2   248  TYR248     -0.2867
    127  CB        40.2150   71.4330   75.6810 C.3   248  TYR248      0.0534
    128  CG        39.8680   71.6070   74.2250 C.ar  248  TYR248     -0.0201
    129  CD1       38.6040   71.2710   73.7640 C.ar  248  TYR248     -0.0009
    130  CD2       40.8230   72.0900   73.3120 C.ar  248  TYR248     -0.0009
    131  CE1       38.2990   71.3650   72.4070 C.ar  248  TYR248      0.0417
    132  CE2       40.5250   72.2380   71.9430 C.ar  248  TYR248      0.0417
    133  CZ        39.2550   71.8540   71.5230 C.ar  248  TYR248      0.1957
    134  OH        38.9160   71.9870   70.1760 O.3   248  TYR248     -0.2866
@<TRIPOS>BOND
     1    52    51    2
     2    60    59    2
     3    59    58    1
     4    51    50    1
     5    57    58    1
     6    49    50    1
     7    58    61    1
     8    66    67    1
     9    50    53    1
    10    47    46    2
    11    27    26    2
    12    69    68    2
    13    46    45    1
    14    24    25    1
    15     4     3    2
    16     1     2    1
    17    26    25    1
    18    68    67    1
    19    67    70    1
    20     3     2    1
    21    61    62    1
    22    44    45    1
    23    25    28    1
    24    53    54    1
    25     2     5    1
    26    45    48    1
    27    62    63    1
    28    81    80    2
    29    70    71    1
    30    72    71   ar
    31    72    74   ar
    32    55    54   ar
    33    78    79    1
    34    33    32    1
    35    54    56   ar
    36    28    29    1
    37     5     6    1
    38    71    73   ar
    39    74    76   ar
    40    15    14    2
    41    12    13    1
    42    37    38    2
    43    37    36    1
    44     6     8   ar
    45     6     7   ar
    46    80    79    1
    47    29    30    1
    48     8    10   ar
    49    63    64    1
    50    79    82    1
    51    30    31    1
    52    32    31    2
    53    32    34    1
    54     7     9   ar
    55    84    83   ar
    56    10    11   ar
    57    73    75   ar
    58    14    13    1
    59    76    75   ar
    60    76    77    1
    61    36    35    1
    62    36    39    1
    63     9    11   ar
    64    13    16    1
    65    64    65    1
    66    40    39    1
    67    40    41    1
    68    83    82    1
    69    83    85   ar
    70    19    21   ar
    71    19    17   ar
    72    16    17    1
    73    21    22   ar
    74    17    18   ar
    75    41    43   am
    76    41    42    2
    77    86    87    1
    78    22    23    1
    79    22    20   ar
    80    18    20   ar
    81   107   106    1
    82   107   108    1
    83   100    98    1
    84    98    97    1
    85    89    88    2
    86   106   105    1
    87    87    88    1
    88    87    90    1
    89    92    90    1
    90    97    99    1
    91    97    94    1
    92   134   133    1
    93    90    91    1
    94   105   102    1
    95   102   103    1
    96   102   101    1
    97    94    93    1
    98    94    95    1
    99   133   132   ar
   100   133   131   ar
   101   103   104    2
   102   132   130   ar
   103   131   129   ar
   104    95    96    2
   105   130   128   ar
   106   113   114    1
   107   113   110    1
   108   115   114   ar
   109   115   117   ar
   110   114   116   ar
   111   117   118   ar
   112   116   119   ar
   113   116   118   ar
   114   129   128   ar
   115   119   121   ar
   116   118   120   ar
   117   120   122   ar
   118   121   122   ar
   119   128   127    1
   120   112   111    2
   121   109   110    1
   122   110   111    1
   123   127   124    1
   124   124   123    1
   125   124   125    1
   126   125   126    2
