@<TRIPOS>MOLECULE
tmp/4aglA00.pdb
 121 123 0 0 0
SMALL
GASTEIGER

@<TRIPOS>ATOM
      1  N         93.3490   92.2950  -36.0720 N.3    50  LEU50      -0.1231
      2  CA        94.3050   92.4630  -37.1730 C.3    50  LEU50       0.1693
      3  C         94.1140   93.8450  -37.7800 C.2    50  LEU50       0.2592
      4  O         92.9960   94.2040  -38.1720 O.2    50  LEU50      -0.2718
      5  CB        94.0660   91.4090  -38.2570 C.3    50  LEU50       0.0284
      6  CG        94.0030   89.9570  -37.7750 C.3    50  LEU50       0.0019
      7  CD1       93.6880   89.0130  -38.9380 C.3    50  LEU50       0.0001
      8  CD2       95.3060   89.5540  -37.1000 C.3    50  LEU50       0.0001
      9  N         95.2060   94.6020  -37.8700 N.am   51  TRP51      -0.1962
     10  CA        95.1850   95.9510  -38.4360 C.3    51  TRP51       0.1771
     11  C         96.1360   96.0440  -39.6030 C.2    51  TRP51       0.2619
     12  O         97.2450   95.5180  -39.5390 O.2    51  TRP51      -0.2715
     13  CB        95.6300   96.9680  -37.3770 C.3    51  TRP51       0.0590
     14  CG        94.6550   97.1650  -36.2630 C.ar   51  TRP51       0.0006
     15  CD1       94.6040   96.4800  -35.0820 C.ar   51  TRP51       0.0946
     16  CD2       93.5850   98.1140  -36.2260 C.ar   51  TRP51       0.0152
     17  NE1       93.5670   96.9530  -34.3040 N.ar   51  TRP51      -0.2442
     18  CE2       92.9270   97.9550  -34.9830 C.ar   51  TRP51       0.0810
     19  CE3       93.1170   99.0790  -37.1210 C.ar   51  TRP51       0.0012
     20  CZ2       91.8240   98.7210  -34.6180 C.ar   51  TRP51       0.0191
     21  CZ3       92.0170   99.8460  -36.7550 C.ar   51  TRP51       0.0001
     22  CH2       91.3930   99.6700  -35.5140 C.ar   51  TRP51       0.0015
     23  N         95.7100   96.7210  -40.6710 N.am   52  VAL52      -0.1963
     24  CA        96.6040   97.0070  -41.7910 C.3    52  VAL52       0.1727
     25  C         96.3560   98.4110  -42.2990 C.2    52  VAL52       0.2616
     26  O         95.2770   98.9660  -42.0790 O.2    52  VAL52      -0.2715
     27  CB        96.4110   96.0180  -42.9830 C.3    52  VAL52       0.0290
     28  CG1       96.8740   94.6210  -42.6130 C.3    52  VAL52       0.0023
     29  CG2       94.9560   96.0180  -43.4730 C.3    52  VAL52       0.0023
     30  N         97.3470   98.9830  -42.9780 N.am   53  ASP53      -0.1957
     31  CA        97.1890  100.3110  -43.5740 C.3    53  ASP53       0.1840
     32  C         96.5560  100.2270  -44.9470 C.2    53  ASP53       0.2623
     33  O         95.8620  101.1530  -45.3710 O.2    53  ASP53      -0.2715
     34  CB        98.5330  101.0260  -43.7030 C.3    53  ASP53       0.1450
     35  CG        99.1480  101.3680  -42.3620 C.2    53  ASP53       0.3671
     36  OD1       98.3990  101.6950  -41.4120 O.co2  53  ASP53      -0.2456
     37  OD2      100.3890  101.3140  -42.2710 O.co2  53  ASP53      -0.2456
     38  N         96.8150   99.1250  -45.6480 N.am   54  SER54      -0.1936
     39  CA        96.2710   98.9310  -46.9880 C.3    54  SER54       0.2055
     40  C         95.8360   97.4820  -47.1940 C.2    54  SER54       0.2644
     41  O         96.2910   96.5800  -46.4800 O.2    54  SER54      -0.2714
     42  CB        97.2840   99.3530  -48.0550 C.3    54  SER54       0.2130
     43  OG        98.5350   98.7250  -47.8530 O.3    54  SER54      -0.2179
     44  N         94.9350   97.2760  -48.1500 N.am   55  THR55      -0.1937
     45  CA        94.3210   95.9680  -48.3710 C.3    55  THR55       0.2013
     46  C         95.2890   94.9920  -49.0360 C.2    55  THR55       0.2484
     47  O         95.8300   95.2730  -50.1030 O.2    55  THR55      -0.2729
     48  CB        93.0490   96.0900  -49.2400 C.3    55  THR55       0.1807
     49  OG1       92.1170   96.9850  -48.6120 O.3    55  THR55      -0.2208
     50  CG2       92.3950   94.7240  -49.4330 C.3    55  THR55       0.0379
     51  N         95.5110   93.8340  -48.4020 N.am   56  PRO56      -0.2715
     52  CA        96.3980   92.8200  -48.9830 C.3    56  PRO56       0.1521
     53  C         95.6670   92.0810  -50.0960 C.2    56  PRO56       0.2440
     54  O         94.4390   92.1470  -50.1760 O.2    56  PRO56      -0.2731
     55  CB        96.6690   91.8520  -47.8210 C.3    56  PRO56       0.0310
     56  CG        96.0090   92.4260  -46.6190 C.3    56  PRO56       0.0237
     57  CD        95.0100   93.4580  -47.0690 C.3    56  PRO56       0.0939
     58  N         96.4140   91.3820  -50.9600 N.am   57  PRO57      -0.2727
     59  CA        95.7890   90.6900  -52.0940 C.3    57  PRO57       0.1402
     60  C         94.8270   89.5610  -51.7120 C.2    57  PRO57       0.2269
     61  O         94.9610   88.9430  -50.6490 O.2    57  PRO57      -0.2865
     62  CB        96.9930   90.1320  -52.8660 C.3    57  PRO57       0.0296
     63  CG        98.1250   91.0290  -52.4970 C.3    57  PRO57       0.0237
     64  CD        97.8820   91.3640  -51.0390 C.3    57  PRO57       0.0939
     65  N         95.4720   86.1790  -49.3250 N.3    60  THR60      -0.1218
     66  CA        96.3290   86.4000  -48.1650 C.3    60  THR60       0.1862
     67  C         95.7580   85.6330  -46.9780 C.2    60  THR60       0.2287
     68  O         94.5350   85.5120  -46.8420 O.2    60  THR60      -0.2866
     69  CB        96.3990   87.8960  -47.8430 C.3    60  THR60       0.1770
     70  OG1       96.9850   88.5940  -48.9550 O.3    60  THR60      -0.2211
     71  CG2       97.2310   88.1460  -46.5890 C.3    60  THR60       0.0375
     72  N         92.6460   85.8760  -44.6620 N.3   125  CYS125     -0.1221
     73  CA        92.5630   87.2490  -44.1910 C.3   125  CYS125      0.1808
     74  C         91.2910   87.8630  -44.7740 C.2   125  CYS125      0.2601
     75  O         91.1090   87.8860  -45.9940 O.2   125  CYS125     -0.2717
     76  CB        93.7950   88.0400  -44.6370 C.3   125  CYS125      0.0970
     77  SG        93.8480   89.7250  -43.9640 S.3   125  CYS125     -0.0800
     78  N         90.3980   88.3320  -43.9090 N.am  126  GLU126     -0.1966
     79  CA        89.1260   88.8770  -44.3750 C.3   126  GLU126      0.1718
     80  C         88.9970   90.3490  -44.0010 C.2   126  GLU126      0.2458
     81  O         89.5480   90.7880  -42.9950 O.2   126  GLU126     -0.2730
     82  CB        87.9540   88.0830  -43.8010 C.3   126  GLU126      0.0428
     83  CG        87.8170   86.6850  -44.3810 C.3   126  GLU126      0.1163
     84  CD        86.9350   85.7970  -43.5300 C.2   126  GLU126      0.3649
     85  OE1       86.4310   86.2830  -42.4960 O.co2 126  GLU126     -0.2457
     86  OE2       86.7510   84.6120  -43.8880 O.co2 126  GLU126     -0.2457
     87  N         88.2740   91.1230  -44.8260 N.am  127  PRO127     -0.2716
     88  CA        88.0650   92.5490  -44.5580 C.3   127  PRO127      0.1521
     89  C         87.1620   92.7510  -43.3460 C.2   127  PRO127      0.2440
     90  O         86.3950   91.8570  -42.9960 O.2   127  PRO127     -0.2731
     91  CB        87.3520   93.0510  -45.8250 C.3   127  PRO127      0.0310
     92  CG        87.5320   91.9750  -46.8470 C.3   127  PRO127      0.0237
     93  CD        87.6290   90.6930  -46.0770 C.3   127  PRO127      0.0939
     94  N         87.2610   93.9150  -42.6990 N.am  128  PRO128     -0.2727
     95  CA        86.3920   94.2070  -41.5530 C.3   128  PRO128      0.1402
     96  C         84.9130   94.2050  -41.9490 C.2   128  PRO128      0.2269
     97  O         84.5770   94.4880  -43.0950 O.2   128  PRO128     -0.2865
     98  CB        86.8190   95.6200  -41.1400 C.3   128  PRO128      0.0296
     99  CG        88.2210   95.7710  -41.6680 C.3   128  PRO128      0.0237
    100  CD        88.2450   94.9800  -42.9500 C.3   128  PRO128      0.0939
    101  N         86.7680   98.9420  -38.4140 N.3   133  ASP133     -0.1225
    102  CA        88.0510   99.3930  -38.9370 C.3   133  ASP133      0.1805
    103  C         89.1250   98.3110  -38.9040 C.2   133  ASP133      0.2598
    104  O         90.2230   98.5050  -39.4390 O.2   133  ASP133     -0.2718
    105  CB        88.5340  100.6120  -38.1490 C.3   133  ASP133      0.1424
    106  CG        87.6970  101.8510  -38.4160 C.2   133  ASP133      0.3668
    107  OD1       87.2730  102.0510  -39.5720 O.co2 133  ASP133     -0.2456
    108  OD2       87.4660  102.6190  -37.4610 O.co2 133  ASP133     -0.2456
    109  N         88.8140   97.1860  -38.2680 N.am  134  CYS134     -0.1956
    110  CA        89.7570   96.0740  -38.1720 C.3   134  CYS134      0.1843
    111  C         89.0110   94.7460  -38.1770 C.2   134  CYS134      0.2626
    112  O         87.7890   94.7080  -38.0600 O.2   134  CYS134     -0.2714
    113  CB        90.6030   96.1870  -36.8920 C.3   134  CYS134      0.0997
    114  SG        89.7330   95.8350  -35.3320 S.3   134  CYS134     -0.0797
    115  N         89.7550   93.6560  -38.3320 N.am  135  THR135     -0.1950
    116  CA        89.1580   92.3290  -38.2940 C.3   135  THR135      0.1897
    117  C         89.6140   91.6030  -37.0370 C.2   135  THR135      0.2313
    118  O         90.7390   91.7810  -36.5790 O.2   135  THR135     -0.2863
    119  CB        89.5260   91.5010  -39.5360 C.3   135  THR135      0.1794
    120  OG1       88.8480   90.2390  -39.4920 O.3   135  THR135     -0.2208
    121  CG2       91.0170   91.2670  -39.5880 C.3   135  THR135      0.0378
@<TRIPOS>BOND
     1    62    63    1
     2    62    59    1
     3    63    64    1
     4    59    60    1
     5    59    58    1
     6    60    61    2
     7    64    58    1
     8    58    53   am
     9    54    53    2
    10    47    46    2
    11    53    52    1
    12    50    48    1
    13    65    66    1
    14    48    49    1
    15    48    45    1
    16    46    51   am
    17    46    45    1
    18    52    51    1
    19    52    55    1
    20    70    69    1
    21    51    57    1
    22    45    44    1
    23    66    69    1
    24    66    67    1
    25    44    40   am
    26    42    43    1
    27    42    39    1
    28    69    71    1
    29    55    56    1
    30    40    39    1
    31    40    41    2
    32    57    56    1
    33    39    38    1
    34    67    68    2
    35    92    93    1
    36    92    91    1
    37    93    87    1
    38    75    74    2
    39    91    88    1
    40    38    32   am
    41    33    32    2
    42    32    31    1
    43    87    88    1
    44    87    80   am
    45    74    73    1
    46    74    78   am
    47    72    73    1
    48    76    73    1
    49    76    77    1
    50    88    89    1
    51    83    82    1
    52    83    84    1
    53    79    80    1
    54    79    78    1
    55    79    82    1
    56    80    81    2
    57    86    84   ar
    58    34    31    1
    59    34    35    1
    60    31    30    1
    61    84    85   ar
    62    29    27    1
    63    89    90    2
    64    89    94   am
    65    97    96    2
    66    27    28    1
    67    27    24    1
    68    30    25   am
    69   100    94    1
    70   100    99    1
    71    94    95    1
    72    35    37   ar
    73    35    36   ar
    74    25    26    2
    75    25    24    1
    76    96    95    1
    77    24    23    1
    78    99    98    1
    79    95    98    1
    80    23    11   am
    81    11    12    2
    82    11    10    1
    83   121   119    1
    84   107   106   ar
    85   119   120    1
    86   119   116    1
    87   104   103    2
    88     7     6    1
    89   102   103    1
    90   102   101    1
    91   102   105    1
    92   103   109   am
    93    10     9    1
    94    10    13    1
    95   106   105    1
    96   106   108   ar
    97   115   116    1
    98   115   111   am
    99   116   117    1
   100   109   110    1
   101     5     6    1
   102     5     2    1
   103   111   110    1
   104   111   112    2
   105   110   113    1
   106     4     3    2
   107     9     3   am
   108     3     2    1
   109     6     8    1
   110    13    14    1
   111     2     1    1
   112    19    21   ar
   113    19    16   ar
   114   117   118    2
   115   113   114    1
   116    21    22   ar
   117    14    16   ar
   118    14    15   ar
   119    16    18   ar
   120    22    20   ar
   121    15    17   ar
   122    18    20   ar
   123    18    17   ar
