@<TRIPOS>MOLECULE
tmp/4agmA00.pdb
 121 123 0 0 0
SMALL
GASTEIGER

@<TRIPOS>ATOM
      1  N         92.8730   92.7440  -35.8910 N.3    50  LEU50      -0.1231
      2  CA        93.8300   92.8980  -36.9930 C.3    50  LEU50       0.1693
      3  C         93.6170   94.2570  -37.6150 C.2    50  LEU50       0.2592
      4  O         92.4900   94.5880  -37.9920 O.2    50  LEU50      -0.2718
      5  CB        93.5790   91.8480  -38.0730 C.3    50  LEU50       0.0284
      6  CG        93.4780   90.4040  -37.5820 C.3    50  LEU50       0.0019
      7  CD1       93.1920   89.4730  -38.7500 C.3    50  LEU50       0.0001
      8  CD2       94.7620   89.9840  -36.8720 C.3    50  LEU50       0.0001
      9  N         94.6980   95.0400  -37.7010 N.am   51  TRP51      -0.1962
     10  CA        94.6620   96.3810  -38.2670 C.3    51  TRP51       0.1771
     11  C         95.6200   96.4730  -39.4350 C.2    51  TRP51       0.2619
     12  O         96.7210   95.9480  -39.3620 O.2    51  TRP51      -0.2715
     13  CB        95.1050   97.4050  -37.2130 C.3    51  TRP51       0.0590
     14  CG        94.1240   97.5980  -36.1050 C.ar   51  TRP51       0.0006
     15  CD1       94.0500   96.8850  -34.9420 C.ar   51  TRP51       0.0946
     16  CD2       93.0630   98.5560  -36.0560 C.ar   51  TRP51       0.0152
     17  NE1       93.0120   97.3500  -34.1620 N.ar   51  TRP51      -0.2442
     18  CE2       92.3890   98.3750  -34.8230 C.ar   51  TRP51       0.0810
     19  CE3       92.6220   99.5530  -36.9270 C.ar   51  TRP51       0.0012
     20  CZ2       91.2930   99.1550  -34.4460 C.ar   51  TRP51       0.0191
     21  CZ3       91.5290  100.3250  -36.5540 C.ar   51  TRP51       0.0001
     22  CH2       90.8840  100.1250  -35.3210 C.ar   51  TRP51       0.0015
     23  N         95.2060   97.1630  -40.4970 N.am   52  VAL52      -0.1963
     24  CA        96.0940   97.4260  -41.6290 C.3    52  VAL52       0.1727
     25  C         95.9120   98.8360  -42.1450 C.2    52  VAL52       0.2616
     26  O         94.8600   99.4530  -41.9450 O.2    52  VAL52      -0.2715
     27  CB        95.8690   96.4420  -42.8160 C.3    52  VAL52       0.0290
     28  CG1       96.1270   94.9910  -42.3860 C.3    52  VAL52       0.0023
     29  CG2       94.4580   96.5720  -43.3650 C.3    52  VAL52       0.0023
     30  N         96.9430   99.3420  -42.8110 N.am   53  ASP53      -0.1957
     31  CA        96.8440  100.6550  -43.4500 C.3    53  ASP53       0.1840
     32  C         96.2760  100.5460  -44.8570 C.2    53  ASP53       0.2623
     33  O         95.7460  101.5270  -45.3890 O.2    53  ASP53      -0.2715
     34  CB        98.2110  101.3250  -43.5160 C.3    53  ASP53       0.1450
     35  CG        98.7250  101.7360  -42.1620 C.2    53  ASP53       0.3671
     36  OD1       97.9070  102.0190  -41.2610 O.co2  53  ASP53      -0.2456
     37  OD2       99.9620  101.7820  -42.0020 O.co2  53  ASP53      -0.2456
     38  N         96.4090   99.3790  -45.4800 N.am   54  SER54      -0.1936
     39  CA        95.8730   99.1810  -46.8180 C.3    54  SER54       0.2055
     40  C         95.4320   97.7360  -47.0080 C.2    54  SER54       0.2644
     41  O         95.9050   96.8300  -46.3130 O.2    54  SER54      -0.2714
     42  CB        96.8790   99.6060  -47.8950 C.3    54  SER54       0.2130
     43  OG        98.0760   98.8590  -47.8120 O.3    54  SER54      -0.2179
     44  N         94.4980   97.5310  -47.9240 N.am   55  THR55      -0.1937
     45  CA        93.9040   96.2170  -48.1070 C.3    55  THR55       0.2013
     46  C         94.8700   95.2260  -48.7440 C.2    55  THR55       0.2484
     47  O         95.3540   95.4480  -49.8490 O.2    55  THR55      -0.2729
     48  CB        92.6430   96.2860  -48.9770 C.3    55  THR55       0.1807
     49  OG1       91.7290   97.2460  -48.4280 O.3    55  THR55      -0.2208
     50  CG2       91.9760   94.9230  -49.0400 C.3    55  THR55       0.0379
     51  N         95.1260   94.1030  -48.0600 N.am   56  PRO56      -0.2715
     52  CA        95.9790   93.0920  -48.6900 C.3    56  PRO56       0.1521
     53  C         95.2170   92.3260  -49.7720 C.2    56  PRO56       0.2440
     54  O         93.9850   92.3530  -49.8110 O.2    56  PRO56      -0.2731
     55  CB        96.3420   92.1450  -47.5420 C.3    56  PRO56       0.0310
     56  CG        95.6280   92.6440  -46.3210 C.3    56  PRO56       0.0237
     57  CD        94.6560   93.7100  -46.7190 C.3    56  PRO56       0.0939
     58  N         95.9500   91.6440  -50.6560 N.am   57  PRO57      -0.2727
     59  CA        95.3370   90.9430  -51.7940 C.3    57  PRO57       0.1402
     60  C         94.3940   89.8070  -51.3770 C.2    57  PRO57       0.2269
     61  O         94.5620   89.2250  -50.3100 O.2    57  PRO57      -0.2865
     62  CB        96.5530   90.3730  -52.5320 C.3    57  PRO57       0.0296
     63  CG        97.6710   91.3070  -52.1950 C.3    57  PRO57       0.0237
     64  CD        97.4190   91.6830  -50.7510 C.3    57  PRO57       0.0939
     65  N         95.1880   86.4320  -49.0290 N.3    60  THR60      -0.1218
     66  CA        96.0010   86.6860  -47.8440 C.3    60  THR60       0.1862
     67  C         95.4300   85.9000  -46.6590 C.2    60  THR60       0.2287
     68  O         94.2100   85.7730  -46.5270 O.2    60  THR60      -0.2866
     69  CB        96.0210   88.1920  -47.5040 C.3    60  THR60       0.1770
     70  OG1       96.5530   88.9390  -48.6090 O.3    60  THR60      -0.2211
     71  CG2       96.8600   88.4620  -46.2580 C.3    60  THR60       0.0375
     72  N         92.3340   86.1430  -44.3770 N.3   125  CYS125     -0.1221
     73  CA        92.2220   87.5200  -43.8980 C.3   125  CYS125      0.1808
     74  C         90.9640   88.1270  -44.5160 C.2   125  CYS125      0.2601
     75  O         90.8070   88.1220  -45.7320 O.2   125  CYS125     -0.2717
     76  CB        93.4550   88.3240  -44.3130 C.3   125  CYS125      0.0970
     77  SG        93.5360   90.0020  -43.6140 S.3   125  CYS125     -0.0800
     78  N         90.0560   88.6200  -43.6790 N.am  126  GLU126     -0.1966
     79  CA        88.7970   89.1730  -44.1660 C.3   126  GLU126      0.1718
     80  C         88.6590   90.6390  -43.7860 C.2   126  GLU126      0.2458
     81  O         89.2410   91.0810  -42.8050 O.2   126  GLU126     -0.2730
     82  CB        87.6210   88.3890  -43.5930 C.3   126  GLU126      0.0428
     83  CG        87.5480   86.9510  -44.0700 C.3   126  GLU126      0.1163
     84  CD        86.5770   86.1120  -43.2580 C.2   126  GLU126      0.3649
     85  OE1       85.9290   86.6630  -42.3440 O.co2 126  GLU126     -0.2457
     86  OE2       86.4650   84.8970  -43.5320 O.co2 126  GLU126     -0.2457
     87  N         87.8980   91.4070  -44.5840 N.am  127  PRO127     -0.2716
     88  CA        87.6580   92.8220  -44.2880 C.3   127  PRO127      0.1521
     89  C         86.7530   92.9750  -43.0690 C.2   127  PRO127      0.2440
     90  O         86.0370   92.0360  -42.7040 O.2   127  PRO127     -0.2731
     91  CB        86.9390   93.3360  -45.5430 C.3   127  PRO127      0.0310
     92  CG        87.1190   92.2720  -46.5800 C.3   127  PRO127      0.0237
     93  CD        87.2680   90.9850  -45.8460 C.3   127  PRO127      0.0939
     94  N         86.7940   94.1460  -42.4330 N.am  128  PRO128     -0.2727
     95  CA        85.9380   94.3860  -41.2720 C.3   128  PRO128      0.1402
     96  C         84.4700   94.3000  -41.6520 C.2   128  PRO128      0.2269
     97  O         84.1090   94.5250  -42.8110 O.2   128  PRO128     -0.2865
     98  CB        86.2970   95.8200  -40.8570 C.3   128  PRO128      0.0296
     99  CG        87.6830   96.0510  -41.4080 C.3   128  PRO128      0.0237
    100  CD        87.7420   95.2490  -42.6780 C.3   128  PRO128      0.0939
    101  N         86.2490   99.1870  -38.1680 N.3   133  ASP133     -0.1225
    102  CA        87.5190   99.6810  -38.6760 C.3   133  ASP133      0.1805
    103  C         88.6150   98.6240  -38.6580 C.2   133  ASP133      0.2598
    104  O         89.7040   98.8420  -39.2030 O.2   133  ASP133     -0.2718
    105  CB        87.9690  100.8920  -37.8580 C.3   133  ASP133      0.1424
    106  CG        87.0970  102.1060  -38.0970 C.2   133  ASP133      0.3668
    107  OD1       86.6510  102.2910  -39.2450 O.co2 133  ASP133     -0.2456
    108  OD2       86.8660  102.8670  -37.1370 O.co2 133  ASP133     -0.2456
    109  N         88.3300   97.4890  -38.0230 N.am  134  CYS134     -0.1956
    110  CA        89.2900   96.3920  -37.9520 C.3   134  CYS134      0.1843
    111  C         88.5570   95.0620  -37.9680 C.2   134  CYS134      0.2626
    112  O         87.3400   95.0210  -37.8370 O.2   134  CYS134     -0.2714
    113  CB        90.1360   96.5010  -36.6770 C.3   134  CYS134      0.0997
    114  SG        89.2260   96.1810  -35.1330 S.3   134  CYS134     -0.0797
    115  N         89.3130   93.9820  -38.1470 N.am  135  THR135     -0.1950
    116  CA        88.7680   92.6290  -38.1230 C.3   135  THR135      0.1897
    117  C         89.2010   91.9130  -36.8580 C.2   135  THR135      0.2313
    118  O         90.3320   92.0830  -36.3930 O.2   135  THR135     -0.2863
    119  CB        89.2600   91.8570  -39.3540 C.3   135  THR135      0.1794
    120  OG1       88.6640   92.4470  -40.5150 O.3   135  THR135     -0.2208
    121  CG2       88.8850   90.3770  -39.2870 C.3   135  THR135      0.0378
@<TRIPOS>BOND
     1    62    63    1
     2    62    59    1
     3    63    64    1
     4    59    60    1
     5    59    58    1
     6    60    61    2
     7    64    58    1
     8    58    53   am
     9    47    46    2
    10    54    53    2
    11    53    52    1
    12    50    48    1
    13    65    66    1
    14    48    49    1
    15    48    45    1
    16    46    45    1
    17    46    51   am
    18    52    51    1
    19    52    55    1
    20    70    69    1
    21    45    44    1
    22    51    57    1
    23    44    40   am
    24    42    43    1
    25    42    39    1
    26    66    69    1
    27    66    67    1
    28    55    56    1
    29    69    71    1
    30    40    39    1
    31    40    41    2
    32    39    38    1
    33    57    56    1
    34    67    68    2
    35    92    93    1
    36    92    91    1
    37    93    87    1
    38    75    74    2
    39    91    88    1
    40    38    32   am
    41    33    32    2
    42    32    31    1
    43    87    88    1
    44    87    80   am
    45    74    73    1
    46    74    78   am
    47    72    73    1
    48    76    73    1
    49    76    77    1
    50    88    89    1
    51    79    80    1
    52    79    78    1
    53    79    82    1
    54    83    82    1
    55    83    84    1
    56    80    81    2
    57    86    84   ar
    58    34    31    1
    59    34    35    1
    60    31    30    1
    61    29    27    1
    62    84    85   ar
    63    89    90    2
    64    89    94   am
    65    27    28    1
    66    27    24    1
    67    30    25   am
    68    97    96    2
    69   100    94    1
    70   100    99    1
    71    94    95    1
    72    35    37   ar
    73    35    36   ar
    74    25    26    2
    75    25    24    1
    76    96    95    1
    77    24    23    1
    78    99    98    1
    79    95    98    1
    80   120   119    1
    81    23    11   am
    82    11    12    2
    83    11    10    1
    84   119   121    1
    85   119   116    1
    86   107   106   ar
    87   104   103    2
    88     7     6    1
    89   102   103    1
    90   102   101    1
    91   102   105    1
    92   103   109   am
    93    10     9    1
    94    10    13    1
    95   115   116    1
    96   115   111   am
    97   116   117    1
    98   106   105    1
    99   106   108   ar
   100     5     6    1
   101     5     2    1
   102   109   110    1
   103     4     3    2
   104   111   110    1
   105   111   112    2
   106   110   113    1
   107     9     3   am
   108     3     2    1
   109     6     8    1
   110    13    14    1
   111     2     1    1
   112    19    21   ar
   113    19    16   ar
   114   117   118    2
   115   113   114    1
   116    21    22   ar
   117    14    16   ar
   118    14    15   ar
   119    16    18   ar
   120    22    20   ar
   121    15    17   ar
   122    18    20   ar
   123    18    17   ar
