@<TRIPOS>MOLECULE
tmp/4agnA00.pdb
 132 136 0 0 0
SMALL
GASTEIGER

@<TRIPOS>ATOM
      1  N         92.9960   92.7020  -35.8920 N.3    50  LEU50      -0.1231
      2  CA        93.9740   92.8590  -36.9740 C.3    50  LEU50       0.1693
      3  C         93.7820   94.2240  -37.5990 C.2    50  LEU50       0.2592
      4  O         92.6720   94.5450  -38.0200 O.2    50  LEU50      -0.2718
      5  CB        93.7640   91.7980  -38.0470 C.3    50  LEU50       0.0284
      6  CG        93.6890   90.3550  -37.5350 C.3    50  LEU50       0.0019
      7  CD1       93.3600   89.3940  -38.6930 C.3    50  LEU50       0.0001
      8  CD2       94.9900   89.9610  -36.8510 C.3    50  LEU50       0.0001
      9  N         94.8510   95.0180  -37.6460 N.am   51  TRP51      -0.1962
     10  CA        94.8060   96.3690  -38.2110 C.3    51  TRP51       0.1771
     11  C         95.7700   96.4790  -39.3680 C.2    51  TRP51       0.2619
     12  O         96.8760   95.9530  -39.2990 O.2    51  TRP51      -0.2715
     13  CB        95.2310   97.3870  -37.1500 C.3    51  TRP51       0.0590
     14  CG        94.2330   97.5740  -36.0500 C.ar   51  TRP51       0.0006
     15  CD1       94.1400   96.8550  -34.8900 C.ar   51  TRP51       0.0946
     16  CD2       93.1760   98.5380  -36.0090 C.ar   51  TRP51       0.0152
     17  NE1       93.1000   97.3200  -34.1230 N.ar   51  TRP51      -0.2442
     18  CE2       92.4900   98.3530  -34.7880 C.ar   51  TRP51       0.0810
     19  CE3       92.7480   99.5430  -36.8800 C.ar   51  TRP51       0.0012
     20  CZ2       91.3990   99.1460  -34.4140 C.ar   51  TRP51       0.0191
     21  CZ3       91.6570  100.3170  -36.5140 C.ar   51  TRP51       0.0001
     22  CH2       90.9990  100.1150  -35.2880 C.ar   51  TRP51       0.0015
     23  N         95.3480   97.1660  -40.4260 N.am   52  VAL52      -0.1963
     24  CA        96.2350   97.4450  -41.5460 C.3    52  VAL52       0.1727
     25  C         96.0440   98.8710  -42.0310 C.2    52  VAL52       0.2616
     26  O         94.9790   99.4770  -41.8350 O.2    52  VAL52      -0.2715
     27  CB        95.9890   96.5050  -42.7480 C.3    52  VAL52       0.0290
     28  CG1       96.2470   95.0330  -42.3560 C.3    52  VAL52       0.0023
     29  CG2       94.5800   96.6800  -43.2860 C.3    52  VAL52       0.0023
     30  N         97.0740   99.3910  -42.6910 N.am   53  ASP53      -0.1957
     31  CA        97.0030  100.7080  -43.3380 C.3    53  ASP53       0.1840
     32  C         96.4510  100.6180  -44.7540 C.2    53  ASP53       0.2623
     33  O         95.9110  101.5940  -45.2720 O.2    53  ASP53      -0.2715
     34  CB        98.3870  101.3410  -43.3930 C.3    53  ASP53       0.1450
     35  CG        98.8890  101.7640  -42.0380 C.2    53  ASP53       0.3671
     36  OD1       98.0560  102.0930  -41.1590 O.co2  53  ASP53      -0.2456
     37  OD2      100.1220  101.7680  -41.8590 O.co2  53  ASP53      -0.2456
     38  N         96.6180   99.4630  -45.3900 N.am   54  SER54      -0.1936
     39  CA        96.0790   99.2520  -46.7270 C.3    54  SER54       0.2055
     40  C         95.6530   97.7970  -46.9150 C.2    54  SER54       0.2644
     41  O         96.1350   96.9010  -46.2220 O.2    54  SER54      -0.2714
     42  CB        97.0710   99.6990  -47.8140 C.3    54  SER54       0.2130
     43  OG        98.3040   99.0100  -47.7110 O.3    54  SER54      -0.2179
     44  N         94.7210   97.5860  -47.8330 N.am   55  THR55      -0.1937
     45  CA        94.1110   96.2780  -48.0500 C.3    55  THR55       0.2013
     46  C         95.0960   95.2810  -48.6630 C.2    55  THR55       0.2484
     47  O         95.6040   95.5020  -49.7570 O.2    55  THR55      -0.2729
     48  CB        92.9050   96.4040  -48.9960 C.3    55  THR55       0.1807
     49  OG1       91.9350   97.3000  -48.4320 O.3    55  THR55      -0.2208
     50  CG2       92.2680   95.0470  -49.2430 C.3    55  THR55       0.0379
     51  N         95.3490   94.1670  -47.9680 N.am   56  PRO56      -0.2715
     52  CA        96.1830   93.1180  -48.5690 C.3    56  PRO56       0.1521
     53  C         95.4270   92.3710  -49.6660 C.2    56  PRO56       0.2440
     54  O         94.1950   92.3820  -49.7090 O.2    56  PRO56      -0.2731
     55  CB        96.4810   92.1650  -47.4000 C.3    56  PRO56       0.0310
     56  CG        95.5870   92.5480  -46.2950 C.3    56  PRO56       0.0237
     57  CD        94.8940   93.8460  -46.6030 C.3    56  PRO56       0.0939
     58  N         96.1680   91.7060  -50.5570 N.am   57  PRO57      -0.2717
     59  CA        95.5270   91.0210  -51.6830 C.3    57  PRO57       0.1521
     60  C         94.5660   89.9230  -51.2490 C.2    57  PRO57       0.2440
     61  O         94.7390   89.3420  -50.1740 O.2    57  PRO57      -0.2731
     62  CB        96.7190   90.4090  -52.4270 C.3    57  PRO57       0.0310
     63  CG        97.8590   91.3260  -52.1160 C.3    57  PRO57       0.0237
     64  CD        97.6360   91.6910  -50.6640 C.3    57  PRO57       0.0939
     65  N         93.5640   89.6250  -52.0840 N.am   58  PRO58      -0.2716
     66  CA        92.7170   88.4610  -51.8210 C.3    58  PRO58       0.1536
     67  C         93.5910   87.2070  -51.7410 C.2    58  PRO58       0.2599
     68  O         94.4980   87.0390  -52.5610 O.2    58  PRO58      -0.2715
     69  CB        91.8130   88.3980  -53.0590 C.3    58  PRO58       0.0310
     70  CG        91.8210   89.7890  -53.6170 C.3    58  PRO58       0.0237
     71  CD        93.1890   90.3320  -53.3220 C.3    58  PRO58       0.0939
     72  N         93.3340   86.3400  -50.7690 N.am   59  GLY59      -0.1941
     73  CA        94.1720   85.1650  -50.6040 C.3    59  GLY59       0.2014
     74  C         95.2070   85.3130  -49.5030 C.2    59  GLY59       0.2639
     75  O         95.8590   84.3380  -49.1230 O.2    59  GLY59      -0.2714
     76  N         95.3630   86.5290  -48.9870 N.am   60  THR60      -0.1950
     77  CA        96.2030   86.7520  -47.8120 C.3    60  THR60       0.1897
     78  C         95.6220   85.9510  -46.6520 C.2    60  THR60       0.2313
     79  O         94.3920   85.8070  -46.5500 O.2    60  THR60      -0.2863
     80  CB        96.2440   88.2460  -47.4680 C.3    60  THR60       0.1794
     81  OG1       96.7820   88.9500  -48.5930 O.3    60  THR60      -0.2208
     82  CG2       97.1150   88.5070  -46.2320 C.3    60  THR60       0.0378
     83  N         92.4920   86.1860  -44.4070 N.3   125  CYS125     -0.1221
     84  CA        92.3980   87.5740  -43.9800 C.3   125  CYS125      0.1808
     85  C         91.1790   88.1790  -44.6720 C.2   125  CYS125      0.2601
     86  O         91.0710   88.1420  -45.9030 O.2   125  CYS125     -0.2717
     87  CB        93.6680   88.3120  -44.3800 C.3   125  CYS125      0.0970
     88  SG        93.7180   90.0360  -43.8590 S.3   125  CYS125     -0.0800
     89  N         90.2490   88.6990  -43.8790 N.am  126  GLU126     -0.1966
     90  CA        89.0310   89.2920  -44.4130 C.3   126  GLU126      0.1718
     91  C         88.8750   90.7350  -43.9490 C.2   126  GLU126      0.2458
     92  O         89.3650   91.1120  -42.8900 O.2   126  GLU126     -0.2730
     93  CB        87.8050   88.4720  -43.9920 C.3   126  GLU126      0.0428
     94  CG        87.7250   87.0890  -44.6240 C.3   126  GLU126      0.1163
     95  CD        87.5300   87.1300  -46.1380 C.2   126  GLU126      0.3649
     96  OE1       87.4460   88.2380  -46.7150 O.co2 126  GLU126     -0.2457
     97  OE2       87.4610   86.0460  -46.7590 O.co2 126  GLU126     -0.2457
     98  N         88.1930   91.5550  -44.7550 N.am  127  PRO127     -0.2716
     99  CA        87.9400   92.9470  -44.3740 C.3   127  PRO127      0.1521
    100  C         86.9790   93.0350  -43.1960 C.2   127  PRO127      0.2440
    101  O         86.2460   92.0850  -42.9000 O.2   127  PRO127     -0.2731
    102  CB        87.2970   93.5530  -45.6310 C.3   127  PRO127      0.0310
    103  CG        87.6080   92.6020  -46.7400 C.3   127  PRO127      0.0237
    104  CD        87.7260   91.2510  -46.1170 C.3   127  PRO127      0.0939
    105  N         86.9970   94.1680  -42.4970 N.am  128  PRO128     -0.2727
    106  CA        86.1140   94.3350  -41.3390 C.3   128  PRO128      0.1402
    107  C         84.6450   94.2600  -41.7360 C.2   128  PRO128      0.2269
    108  O         84.2910   94.4960  -42.9010 O.2   128  PRO128     -0.2865
    109  CB        86.4540   95.7450  -40.8390 C.3   128  PRO128      0.0296
    110  CG        87.8490   95.9940  -41.3330 C.3   128  PRO128      0.0237
    111  CD        87.9620   95.2720  -42.6400 C.3   128  PRO128      0.0939
    112  N         86.3940   99.1220  -38.1780 N.3   133  ASP133     -0.1225
    113  CA        87.6710   99.6090  -38.6910 C.3   133  ASP133      0.1805
    114  C         88.7770   98.5460  -38.6740 C.2   133  ASP133      0.2598
    115  O         89.8650   98.7620  -39.2340 O.2   133  ASP133     -0.2718
    116  CB        88.1190  100.8330  -37.8870 C.3   133  ASP133      0.1424
    117  CG        87.2010  102.0290  -38.0870 C.2   133  ASP133      0.3668
    118  OD1       86.7740  102.2600  -39.2330 O.co2 133  ASP133     -0.2456
    119  OD2       86.9080  102.7210  -37.0920 O.co2 133  ASP133     -0.2456
    120  N         88.5040   97.4130  -38.0280 N.am  134  CYS134     -0.1956
    121  CA        89.4740   96.3280  -37.9610 C.3   134  CYS134      0.1843
    122  C         88.7300   95.0180  -37.9610 C.2   134  CYS134      0.2626
    123  O         87.5110   94.9890  -37.7920 O.2   134  CYS134     -0.2714
    124  CB        90.3130   96.4160  -36.6800 C.3   134  CYS134      0.0997
    125  SG        89.3900   96.1300  -35.1330 S.3   134  CYS134     -0.0797
    126  N         89.4780   93.9380  -38.1580 N.am  135  THR135     -0.1950
    127  CA        88.9180   92.5990  -38.1520 C.3   135  THR135      0.1897
    128  C         89.3240   91.9100  -36.8630 C.2   135  THR135      0.2313
    129  O         90.4410   92.0970  -36.3790 O.2   135  THR135     -0.2863
    130  CB        89.4200   91.8150  -39.3710 C.3   135  THR135      0.1794
    131  OG1       88.8410   92.3900  -40.5510 O.3   135  THR135     -0.2208
    132  CG2       89.0240   90.3440  -39.2910 C.3   135  THR135      0.0378
@<TRIPOS>BOND
     1    70    71    1
     2    70    69    1
     3    71    65    1
     4    69    66    1
     5    68    67    2
     6    62    63    1
     7    62    59    1
     8    63    64    1
     9    65    66    1
    10    65    60   am
    11    66    67    1
    12    67    72   am
    13    59    60    1
    14    59    58    1
    15    60    61    2
    16    72    73    1
    17    64    58    1
    18    73    74    1
    19    58    53   am
    20    47    46    2
    21    54    53    2
    22    53    52    1
    23    74    75    2
    24    74    76   am
    25    50    48    1
    26    48    49    1
    27    48    45    1
    28    76    77    1
    29    46    45    1
    30    46    51   am
    31    81    80    1
    32    52    51    1
    33    52    55    1
    34    45    44    1
    35    51    57    1
    36    44    40   am
    37    42    43    1
    38    42    39    1
    39    77    80    1
    40    77    78    1
    41    80    82    1
    42    55    56    1
    43    40    39    1
    44    40    41    2
    45    97    95   ar
    46   103   104    1
    47   103   102    1
    48    39    38    1
    49    96    95   ar
    50    78    79    2
    51    57    56    1
    52    95    94    1
    53   104    98    1
    54    86    85    2
    55   102    99    1
    56    38    32   am
    57    33    32    2
    58    98    99    1
    59    98    91   am
    60    32    31    1
    61    85    84    1
    62    85    89   am
    63    94    93    1
    64    90    93    1
    65    90    91    1
    66    90    89    1
    67    83    84    1
    68    87    84    1
    69    87    88    1
    70    99   100    1
    71    91    92    2
    72    34    31    1
    73    34    35    1
    74    31    30    1
    75    29    27    1
    76   100   101    2
    77   100   105   am
    78   108   107    2
    79    27    28    1
    80    27    24    1
    81    30    25   am
    82   111   105    1
    83   111   110    1
    84   105   106    1
    85    35    37   ar
    86    35    36   ar
    87    25    26    2
    88    25    24    1
    89   107   106    1
    90    24    23    1
    91   106   109    1
    92   110   109    1
    93   131   130    1
    94    23    11   am
    95   130   132    1
    96   130   127    1
    97    11    12    2
    98    11    10    1
    99   115   114    2
   100   118   117   ar
   101     7     6    1
   102   113   114    1
   103   113   112    1
   104   113   116    1
   105   114   120   am
   106    10     9    1
   107    10    13    1
   108   126   127    1
   109   126   122   am
   110   127   128    1
   111   117   116    1
   112   117   119   ar
   113     5     6    1
   114     5     2    1
   115   120   121    1
   116     4     3    2
   117   122   121    1
   118   122   123    2
   119   121   124    1
   120     9     3   am
   121     3     2    1
   122     6     8    1
   123    13    14    1
   124     2     1    1
   125    19    21   ar
   126    19    16   ar
   127   128   129    2
   128   124   125    1
   129    21    22   ar
   130    14    16   ar
   131    14    15   ar
   132    16    18   ar
   133    22    20   ar
   134    15    17   ar
   135    18    20   ar
   136    18    17   ar
