@<TRIPOS>MOLECULE
tmp/4agoA00.pdb
 132 136 0 0 0
SMALL
GASTEIGER

@<TRIPOS>ATOM
      1  N         92.9880   92.6110  -35.9960 N.3    50  LEU50      -0.1231
      2  CA        93.9730   92.7520  -37.0660 C.3    50  LEU50       0.1693
      3  C         93.7610   94.1080  -37.7010 C.2    50  LEU50       0.2592
      4  O         92.6510   94.4260  -38.1090 O.2    50  LEU50      -0.2718
      5  CB        93.7720   91.6700  -38.1300 C.3    50  LEU50       0.0284
      6  CG        93.6880   90.2130  -37.6610 C.3    50  LEU50       0.0019
      7  CD1       93.4740   89.2950  -38.8590 C.3    50  LEU50       0.0001
      8  CD2       94.9530   89.8370  -36.9240 C.3    50  LEU50       0.0001
      9  N         94.8200   94.9120  -37.7350 N.am   51  TRP51      -0.1962
     10  CA        94.7760   96.2430  -38.3210 C.3    51  TRP51       0.1771
     11  C         95.7320   96.3490  -39.5020 C.2    51  TRP51       0.2619
     12  O         96.8510   95.8520  -39.4400 O.2    51  TRP51      -0.2715
     13  CB        95.1860   97.2780  -37.2710 C.3    51  TRP51       0.0590
     14  CG        94.1910   97.4710  -36.1640 C.ar   51  TRP51       0.0006
     15  CD1       94.1140   96.7730  -34.9930 C.ar   51  TRP51       0.0946
     16  CD2       93.1290   98.4240  -36.1350 C.ar   51  TRP51       0.0152
     17  NE1       93.0750   97.2470  -34.2330 N.ar   51  TRP51      -0.2442
     18  CE2       92.4570   98.2640  -34.9090 C.ar   51  TRP51       0.0810
     19  CE3       92.6880   99.4070  -37.0240 C.ar   51  TRP51       0.0012
     20  CZ2       91.3570   99.0480  -34.5520 C.ar   51  TRP51       0.0191
     21  CZ3       91.6030  100.1820  -36.6710 C.ar   51  TRP51       0.0001
     22  CH2       90.9460   99.9940  -35.4470 C.ar   51  TRP51       0.0015
     23  N         95.2880   97.0070  -40.5690 N.am   52  VAL52      -0.1963
     24  CA        96.1690   97.3050  -41.7060 C.3    52  VAL52       0.1727
     25  C         95.9770   98.7240  -42.2100 C.2    52  VAL52       0.2616
     26  O         94.9120   99.3220  -42.0180 O.2    52  VAL52      -0.2715
     27  CB        95.9410   96.3370  -42.9130 C.3    52  VAL52       0.0290
     28  CG1       96.3030   94.8810  -42.5460 C.3    52  VAL52       0.0023
     29  CG2       94.4970   96.4340  -43.4220 C.3    52  VAL52       0.0023
     30  N         97.0060   99.2460  -42.8690 N.am   53  ASP53      -0.1957
     31  CA        96.9030  100.5670  -43.5020 C.3    53  ASP53       0.1840
     32  C         96.3330  100.4680  -44.9050 C.2    53  ASP53       0.2623
     33  O         95.7900  101.4430  -45.4230 O.2    53  ASP53      -0.2715
     34  CB        98.2630  101.2480  -43.5860 C.3    53  ASP53       0.1450
     35  CG        98.8060  101.6360  -42.2450 C.2    53  ASP53       0.3671
     36  OD1       98.0120  101.9250  -41.3180 O.co2  53  ASP53      -0.2456
     37  OD2      100.0460  101.6700  -42.1170 O.co2  53  ASP53      -0.2456
     38  N         96.4710   99.3040  -45.5380 N.am   54  SER54      -0.1936
     39  CA        95.9130   99.1000  -46.8680 C.3    54  SER54       0.2055
     40  C         95.5140   97.6500  -47.0610 C.2    54  SER54       0.2644
     41  O         96.0270   96.7610  -46.3810 O.2    54  SER54      -0.2714
     42  CB        96.9000   99.5370  -47.9570 C.3    54  SER54       0.2130
     43  OG        98.1220   98.8340  -47.8420 O.3    54  SER54      -0.2179
     44  N         94.5930   97.4220  -47.9820 N.am   55  THR55      -0.1937
     45  CA        94.0100   96.1050  -48.1910 C.3    55  THR55       0.2013
     46  C         95.0120   95.1390  -48.8090 C.2    55  THR55       0.2484
     47  O         95.5490   95.4040  -49.8750 O.2    55  THR55      -0.2729
     48  CB        92.7890   96.2010  -49.1170 C.3    55  THR55       0.1807
     49  OG1       91.8190   97.0930  -48.5480 O.3    55  THR55      -0.2208
     50  CG2       92.1650   94.8380  -49.3170 C.3    55  THR55       0.0379
     51  N         95.2650   94.0060  -48.1380 N.am   56  PRO56      -0.2715
     52  CA        96.1280   92.9820  -48.7380 C.3    56  PRO56       0.1521
     53  C         95.3890   92.2220  -49.8350 C.2    56  PRO56       0.2440
     54  O         94.1570   92.2440  -49.8970 O.2    56  PRO56      -0.2731
     55  CB        96.4170   92.0310  -47.5720 C.3    56  PRO56       0.0310
     56  CG        95.8110   92.6520  -46.3530 C.3    56  PRO56       0.0237
     57  CD        94.7610   93.5970  -46.8180 C.3    56  PRO56       0.0939
     58  N         96.1370   91.5580  -50.7210 N.am   57  PRO57      -0.2717
     59  CA        95.4920   90.8410  -51.8240 C.3    57  PRO57       0.1521
     60  C         94.5280   89.7560  -51.3520 C.2    57  PRO57       0.2440
     61  O         94.7040   89.2040  -50.2710 O.2    57  PRO57      -0.2731
     62  CB        96.6780   90.2090  -52.5590 C.3    57  PRO57       0.0310
     63  CG        97.8230   91.1210  -52.2710 C.3    57  PRO57       0.0237
     64  CD        97.6040   91.5620  -50.8420 C.3    57  PRO57       0.0939
     65  N         93.5230   89.4340  -52.1660 N.am   58  PRO58      -0.2716
     66  CA        92.6880   88.2630  -51.8840 C.3    58  PRO58       0.1536
     67  C         93.5690   87.0120  -51.8260 C.2    58  PRO58       0.2599
     68  O         94.4560   86.8540  -52.6670 O.2    58  PRO58      -0.2715
     69  CB        91.7750   88.1770  -53.1120 C.3    58  PRO58       0.0310
     70  CG        91.8050   89.5370  -53.7220 C.3    58  PRO58       0.0237
     71  CD        93.1400   90.1230  -53.4110 C.3    58  PRO58       0.0939
     72  N         93.3500   86.1340  -50.8500 N.am   59  GLY59      -0.1941
     73  CA        94.2020   84.9680  -50.7120 C.3    59  GLY59       0.2014
     74  C         95.2430   85.1160  -49.6220 C.2    59  GLY59       0.2639
     75  O         95.9030   84.1450  -49.2460 O.2    59  GLY59      -0.2714
     76  N         95.3950   86.3370  -49.1130 N.am   60  THR60      -0.1950
     77  CA        96.2300   86.5860  -47.9420 C.3    60  THR60       0.1897
     78  C         95.6380   85.8050  -46.7800 C.2    60  THR60       0.2313
     79  O         94.4130   85.6610  -46.6970 O.2    60  THR60      -0.2863
     80  CB        96.2680   88.0930  -47.6130 C.3    60  THR60       0.1794
     81  OG1       96.7730   88.8110  -48.7480 O.3    60  THR60      -0.2208
     82  CG2       97.1640   88.3750  -46.4130 C.3    60  THR60       0.0378
     83  N         92.4940   86.0570  -44.5850 N.3   125  CYS125     -0.1221
     84  CA        92.4190   87.4430  -44.1510 C.3   125  CYS125      0.1808
     85  C         91.2120   88.0750  -44.8390 C.2   125  CYS125      0.2601
     86  O         91.0930   88.0140  -46.0560 O.2   125  CYS125     -0.2717
     87  CB        93.6980   88.1720  -44.5610 C.3   125  CYS125      0.0970
     88  SG        93.8060   89.8790  -43.9820 S.3   125  CYS125     -0.0800
     89  N         90.3130   88.6680  -44.0600 N.am  126  GLU126     -0.1966
     90  CA        89.0830   89.2380  -44.6060 C.3   126  GLU126      0.1718
     91  C         88.8990   90.6690  -44.1360 C.2   126  GLU126      0.2458
     92  O         89.3640   91.0190  -43.0530 O.2   126  GLU126     -0.2730
     93  CB        87.8790   88.4240  -44.1420 C.3   126  GLU126      0.0428
     94  CG        87.8770   86.9850  -44.5980 C.3   126  GLU126      0.1163
     95  CD        87.0240   86.1020  -43.7050 C.2   126  GLU126      0.3649
     96  OE1       86.5140   86.6000  -42.6780 O.co2 126  GLU126     -0.2457
     97  OE2       86.8680   84.9040  -44.0220 O.co2 126  GLU126     -0.2457
     98  N         88.2120   91.5010  -44.9420 N.am  127  PRO127     -0.2716
     99  CA        87.9350   92.8770  -44.5100 C.3   127  PRO127      0.1521
    100  C         86.9820   92.9140  -43.3110 C.2   127  PRO127      0.2440
    101  O         86.2890   91.9300  -43.0310 O.2   127  PRO127     -0.2731
    102  CB        87.2750   93.5160  -45.7470 C.3   127  PRO127      0.0310
    103  CG        87.6400   92.6090  -46.9030 C.3   127  PRO127      0.0237
    104  CD        87.7260   91.2360  -46.3080 C.3   127  PRO127      0.0939
    105  N         86.9640   94.0390  -42.5860 N.am  128  PRO128     -0.2727
    106  CA        86.0780   94.1510  -41.4230 C.3   128  PRO128      0.1402
    107  C         84.6050   94.0480  -41.8030 C.2   128  PRO128      0.2269
    108  O         84.2410   94.2910  -42.9540 O.2   128  PRO128     -0.2865
    109  CB        86.3710   95.5630  -40.8950 C.3   128  PRO128      0.0296
    110  CG        87.7200   95.9090  -41.4080 C.3   128  PRO128      0.0237
    111  CD        87.8840   95.1830  -42.7140 C.3   128  PRO128      0.0939
    112  N         86.3440   99.0210  -38.2870 N.3   133  ASP133     -0.1225
    113  CA        87.6170   99.4910  -38.8310 C.3   133  ASP133      0.1805
    114  C         88.7070   98.4220  -38.8130 C.2   133  ASP133      0.2598
    115  O         89.7890   98.6210  -39.3620 O.2   133  ASP133     -0.2718
    116  CB        88.0990  100.7110  -38.0440 C.3   133  ASP133      0.1424
    117  CG        87.1850  101.9130  -38.2100 C.2   133  ASP133      0.3668
    118  OD1       86.7330  102.1700  -39.3430 O.co2 133  ASP133     -0.2456
    119  OD2       86.9250  102.5930  -37.1990 O.co2 133  ASP133     -0.2456
    120  N         88.4290   97.2960  -38.1630 N.am  134  CYS134     -0.1956
    121  CA        89.4210   96.2320  -38.0610 C.3   134  CYS134      0.1843
    122  C         88.7140   94.8930  -38.0440 C.2   134  CYS134      0.2626
    123  O         87.5080   94.8260  -37.8520 O.2   134  CYS134     -0.2714
    124  CB        90.2660   96.3900  -36.7910 C.3   134  CYS134      0.0997
    125  SG        89.3620   96.0560  -35.2520 S.3   134  CYS134     -0.0797
    126  N         89.4760   93.8320  -38.2880 N.am  135  THR135     -0.1950
    127  CA        88.9300   92.4840  -38.2790 C.3   135  THR135      0.1897
    128  C         89.3240   91.7950  -36.9920 C.2   135  THR135      0.2313
    129  O         90.4310   91.9960  -36.4930 O.2   135  THR135     -0.2863
    130  CB        89.4560   91.6990  -39.4740 C.3   135  THR135      0.1794
    131  OG1       88.8940   92.2760  -40.6580 O.3   135  THR135     -0.2208
    132  CG2       89.0450   90.2340  -39.3830 C.3   135  THR135      0.0378
@<TRIPOS>BOND
     1    70    71    1
     2    70    69    1
     3    71    65    1
     4    69    66    1
     5    68    67    2
     6    62    63    1
     7    62    59    1
     8    63    64    1
     9    65    66    1
    10    65    60   am
    11    66    67    1
    12    67    72   am
    13    59    60    1
    14    59    58    1
    15    60    61    2
    16    72    73    1
    17    64    58    1
    18    58    53   am
    19    73    74    1
    20    54    53    2
    21    47    46    2
    22    53    52    1
    23    74    75    2
    24    74    76   am
    25    50    48    1
    26    48    49    1
    27    48    45    1
    28    76    77    1
    29    46    45    1
    30    46    51   am
    31    81    80    1
    32    52    51    1
    33    52    55    1
    34    45    44    1
    35    51    57    1
    36    44    40   am
    37    42    43    1
    38    42    39    1
    39    77    80    1
    40    77    78    1
    41    80    82    1
    42    55    56    1
    43    40    39    1
    44    40    41    2
    45   103   104    1
    46   103   102    1
    47    39    38    1
    48    57    56    1
    49    78    79    2
    50   104    98    1
    51    86    85    2
    52   102    99    1
    53    38    32   am
    54    33    32    2
    55    98    99    1
    56    98    91   am
    57    32    31    1
    58    85    84    1
    59    85    89   am
    60    90    93    1
    61    90    91    1
    62    90    89    1
    63    94    93    1
    64    94    95    1
    65    83    84    1
    66    87    84    1
    67    87    88    1
    68    99   100    1
    69    91    92    2
    70    97    95   ar
    71    95    96   ar
    72    34    31    1
    73    34    35    1
    74    31    30    1
    75    29    27    1
    76   100   101    2
    77   100   105   am
    78   108   107    2
    79    27    28    1
    80    27    24    1
    81    30    25   am
    82   111   105    1
    83   111   110    1
    84   105   106    1
    85    35    37   ar
    86    35    36   ar
    87    25    26    2
    88    25    24    1
    89   107   106    1
    90    24    23    1
    91   106   109    1
    92   110   109    1
    93   131   130    1
    94    23    11   am
    95    11    12    2
    96    11    10    1
    97   130   132    1
    98   130   127    1
    99   115   114    2
   100   118   117   ar
   101     7     6    1
   102   113   114    1
   103   113   112    1
   104   113   116    1
   105   114   120   am
   106    10     9    1
   107    10    13    1
   108   126   127    1
   109   126   122   am
   110   127   128    1
   111   117   116    1
   112   117   119   ar
   113   120   121    1
   114     5     6    1
   115     5     2    1
   116     4     3    2
   117   121   122    1
   118   121   124    1
   119   122   123    2
   120     9     3   am
   121     3     2    1
   122     6     8    1
   123    13    14    1
   124     2     1    1
   125    19    21   ar
   126    19    16   ar
   127   128   129    2
   128   124   125    1
   129    21    22   ar
   130    14    16   ar
   131    14    15   ar
   132    16    18   ar
   133    22    20   ar
   134    15    17   ar
   135    18    20   ar
   136    18    17   ar
