@<TRIPOS>MOLECULE
tmp/4agpA00.pdb
 143 146 0 0 0
SMALL
GASTEIGER

@<TRIPOS>ATOM
      1  N         99.4560   95.2250  -37.9460 N.3    15  ARG15      -0.1245
      2  CA        99.7040   95.1230  -36.5080 C.3    15  ARG15       0.1563
      3  C         98.4560   94.6250  -35.7920 C.2    15  ARG15       0.2260
      4  O         97.3420   94.7510  -36.3150 O.2    15  ARG15      -0.2867
      5  CB       100.1590   96.4640  -35.8910 C.3    15  ARG15       0.0307
      6  CG        99.0780   97.5500  -35.8010 C.3    15  ARG15       0.0489
      7  CD        98.8750   98.2770  -37.1220 C.3    15  ARG15       0.2205
      8  NE        97.9330   99.3900  -36.9780 N.pl3  15  ARG15      -0.0865
      9  CZ        97.5190  100.1330  -37.9980 C.cat  15  ARG15       0.5346
     10  NH1       97.9730   99.8900  -39.2260 N.pl3  15  ARG15       0.1354
     11  NH2       96.6580  101.1270  -37.7950 N.pl3  15  ARG15       0.1354
     12  N         93.0420   92.6010  -35.9840 N.3    50  LEU50      -0.1231
     13  CA        94.0260   92.7930  -37.0570 C.3    50  LEU50       0.1693
     14  C         93.8050   94.1680  -37.6600 C.2    50  LEU50       0.2592
     15  O         92.6860   94.4850  -38.0280 O.2    50  LEU50      -0.2718
     16  CB        93.8520   91.7460  -38.1560 C.3    50  LEU50       0.0284
     17  CG        93.7270   90.3040  -37.6790 C.3    50  LEU50       0.0019
     18  CD1       93.4670   89.3840  -38.8750 C.3    50  LEU50       0.0001
     19  CD2       94.9700   89.8730  -36.9220 C.3    50  LEU50       0.0001
     20  N         94.8640   94.9770  -37.7210 N.am   51  TRP51      -0.1962
     21  CA        94.8100   96.3230  -38.2830 C.3    51  TRP51       0.1771
     22  C         95.8030   96.4390  -39.4310 C.2    51  TRP51       0.2619
     23  O         96.9190   95.9200  -39.3450 O.2    51  TRP51      -0.2715
     24  CB        95.2130   97.3370  -37.2110 C.3    51  TRP51       0.0590
     25  CG        94.2040   97.5030  -36.1150 C.ar   51  TRP51       0.0006
     26  CD1       94.1120   96.7830  -34.9520 C.ar   51  TRP51       0.0946
     27  CD2       93.1390   98.4580  -36.0810 C.ar   51  TRP51       0.0152
     28  NE1       93.0520   97.2390  -34.2000 N.ar   51  TRP51      -0.2442
     29  CE2       92.4420   98.2680  -34.8700 C.ar   51  TRP51       0.0810
     30  CE3       92.7080   99.4590  -36.9610 C.ar   51  TRP51       0.0012
     31  CZ2       91.3360   99.0500  -34.5120 C.ar   51  TRP51       0.0191
     32  CZ3       91.6110  100.2350  -36.6050 C.ar   51  TRP51       0.0001
     33  CH2       90.9350  100.0200  -35.3930 C.ar   51  TRP51       0.0015
     34  N         95.3960   97.1150  -40.5010 N.am   52  VAL52      -0.1963
     35  CA        96.3060   97.3980  -41.6070 C.3    52  VAL52       0.1727
     36  C         96.1190   98.8270  -42.0830 C.2    52  VAL52       0.2616
     37  O         95.0560   99.4220  -41.8820 O.2    52  VAL52      -0.2715
     38  CB        96.1090   96.4410  -42.8250 C.3    52  VAL52       0.0290
     39  CG1       96.4640   94.9880  -42.4600 C.3    52  VAL52       0.0023
     40  CG2       94.6800   96.5350  -43.3670 C.3    52  VAL52       0.0023
     41  N         97.1510   99.3630  -42.7230 N.am   53  ASP53      -0.1957
     42  CA        97.0590  100.6860  -43.3470 C.3    53  ASP53       0.1840
     43  C         96.4980  100.5960  -44.7580 C.2    53  ASP53       0.2623
     44  O         95.8940  101.5500  -45.2510 O.2    53  ASP53      -0.2715
     45  CB        98.4310  101.3470  -43.4130 C.3    53  ASP53       0.1450
     46  CG        98.9430  101.7810  -42.0610 C.2    53  ASP53       0.3671
     47  OD1       98.1170  102.0840  -41.1710 O.co2  53  ASP53      -0.2456
     48  OD2      100.1800  101.8250  -41.8870 O.co2  53  ASP53      -0.2456
     49  N         96.7290   99.4660  -45.4200 N.am   54  SER54      -0.1936
     50  CA        96.1990   99.2510  -46.7600 C.3    54  SER54       0.2055
     51  C         95.7600   97.7990  -46.9560 C.2    54  SER54       0.2644
     52  O         96.2360   96.8910  -46.2690 O.2    54  SER54      -0.2714
     53  CB        97.2120   99.6740  -47.8300 C.3    54  SER54       0.2130
     54  OG        98.4390   98.9820  -47.6990 O.3    54  SER54      -0.2179
     55  N         94.8330   97.5950  -47.8830 N.am   55  THR55      -0.1937
     56  CA        94.2230   96.2920  -48.0980 C.3    55  THR55       0.2013
     57  C         95.1990   95.2960  -48.7170 C.2    55  THR55       0.2484
     58  O         95.7530   95.5480  -49.7820 O.2    55  THR55      -0.2729
     59  CB        92.9990   96.3960  -49.0190 C.3    55  THR55       0.1807
     60  OG1       92.0290   97.2930  -48.4450 O.3    55  THR55      -0.2208
     61  CG2       92.3750   95.0260  -49.2150 C.3    55  THR55       0.0379
     62  N         95.4120   94.1560  -48.0460 N.am   56  PRO56      -0.2715
     63  CA        96.2710   93.1220  -48.6300 C.3    56  PRO56       0.1521
     64  C         95.5010   92.3800  -49.7170 C.2    56  PRO56       0.2440
     65  O         94.2750   92.4570  -49.7720 O.2    56  PRO56      -0.2731
     66  CB        96.5600   92.1840  -47.4480 C.3    56  PRO56       0.0310
     67  CG        96.0430   92.8770  -46.2260 C.3    56  PRO56       0.0237
     68  CD        94.9800   93.8240  -46.6800 C.3    56  PRO56       0.0939
     69  N         96.2170   91.6630  -50.5930 N.am   57  PRO57      -0.2717
     70  CA        95.5600   90.9450  -51.6890 C.3    57  PRO57       0.1521
     71  C         94.6060   89.8480  -51.2280 C.2    57  PRO57       0.2440
     72  O         94.8080   89.2560  -50.1690 O.2    57  PRO57      -0.2731
     73  CB        96.7400   90.3350  -52.4510 C.3    57  PRO57       0.0310
     74  CG        97.8900   91.2310  -52.1590 C.3    57  PRO57       0.0237
     75  CD        97.6840   91.6510  -50.7210 C.3    57  PRO57       0.0939
     76  N         93.5640   89.5710  -52.0190 N.am   58  PRO58      -0.2716
     77  CA        92.7430   88.3930  -51.7520 C.3    58  PRO58       0.1536
     78  C         93.6600   87.1770  -51.6990 C.2    58  PRO58       0.2599
     79  O         94.5780   87.0650  -52.5230 O.2    58  PRO58      -0.2715
     80  CB        91.8390   88.3100  -52.9870 C.3    58  PRO58       0.0310
     81  CG        91.7750   89.7100  -53.4970 C.3    58  PRO58       0.0237
     82  CD        93.1210   90.2990  -53.2220 C.3    58  PRO58       0.0939
     83  N         93.4380   86.2880  -50.7370 N.am   59  GLY59      -0.1941
     84  CA        94.2770   85.1080  -50.6070 C.3    59  GLY59       0.2014
     85  C         95.3260   85.2470  -49.5210 C.2    59  GLY59       0.2639
     86  O         95.9810   84.2750  -49.1580 O.2    59  GLY59      -0.2714
     87  N         95.4950   86.4670  -49.0120 N.am   60  THR60      -0.1950
     88  CA        96.3280   86.6980  -47.8320 C.3    60  THR60       0.1897
     89  C         95.7510   85.8920  -46.6700 C.2    60  THR60       0.2313
     90  O         94.5280   85.7450  -46.5610 O.2    60  THR60      -0.2863
     91  CB        96.3510   88.1980  -47.4740 C.3    60  THR60       0.1794
     92  OG1       96.8310   88.9500  -48.5960 O.3    60  THR60      -0.2208
     93  CG2       97.2600   88.4760  -46.2780 C.3    60  THR60       0.0378
     94  N         92.6450   86.1000  -44.4060 N.3   125  CYS125     -0.1221
     95  CA        92.5500   87.4770  -43.9480 C.3   125  CYS125      0.1808
     96  C         91.3600   88.1020  -44.6630 C.2   125  CYS125      0.2601
     97  O         91.3200   88.1180  -45.8900 O.2   125  CYS125     -0.2717
     98  CB        93.8300   88.2120  -44.3170 C.3   125  CYS125      0.0970
     99  SG        93.8820   89.9230  -43.7490 S.3   125  CYS125     -0.0800
    100  N         90.3880   88.5930  -43.9040 N.am  126  GLU126     -0.1966
    101  CA        89.1660   89.1370  -44.4930 C.3   126  GLU126      0.1718
    102  C         89.0110   90.5960  -44.1060 C.2   126  GLU126      0.2458
    103  O         89.4560   90.9980  -43.0370 O.2   126  GLU126     -0.2730
    104  CB        87.9470   88.3730  -43.9840 C.3   126  GLU126      0.0428
    105  CG        88.0080   86.8780  -44.1760 C.3   126  GLU126      0.1163
    106  CD        86.9580   86.1520  -43.3530 C.2   126  GLU126      0.3649
    107  OE1       86.3160   86.8000  -42.4980 O.co2 126  GLU126     -0.2457
    108  OE2       86.7770   84.9330  -43.5580 O.co2 126  GLU126     -0.2457
    109  N         88.3760   91.3940  -44.9730 N.am  127  PRO127     -0.2716
    110  CA        88.0790   92.7860  -44.6140 C.3   127  PRO127      0.1521
    111  C         87.0930   92.8580  -43.4440 C.2   127  PRO127      0.2440
    112  O         86.3700   91.9010  -43.1770 O.2   127  PRO127     -0.2731
    113  CB        87.4450   93.3490  -45.8920 C.3   127  PRO127      0.0310
    114  CG        87.9400   92.4460  -46.9980 C.3   127  PRO127      0.0237
    115  CD        88.0330   91.0900  -46.3740 C.3   127  PRO127      0.0939
    116  N         87.0850   93.9850  -42.7210 N.am  128  PRO128     -0.2727
    117  CA        86.1940   94.1470  -41.5660 C.3   128  PRO128      0.1402
    118  C         84.7120   94.0380  -41.9230 C.2   128  PRO128      0.2269
    119  O         84.3300   94.2790  -43.0670 O.2   128  PRO128     -0.2865
    120  CB        86.5050   95.5700  -41.0920 C.3   128  PRO128      0.0296
    121  CG        87.9160   95.8080  -41.5230 C.3   128  PRO128      0.0237
    122  CD        88.0660   95.0780  -42.8290 C.3   128  PRO128      0.0939
    123  N         86.3770   98.9980  -38.3860 N.3   133  ASP133     -0.1225
    124  CA        87.6550   99.4870  -38.8990 C.3   133  ASP133      0.1805
    125  C         88.7670   98.4380  -38.8490 C.2   133  ASP133      0.2598
    126  O         89.8700   98.6730  -39.3530 O.2   133  ASP133     -0.2718
    127  CB        88.0940  100.7090  -38.0930 C.3   133  ASP133      0.1424
    128  CG        87.1750  101.8990  -38.2930 C.2   133  ASP133      0.3668
    129  OD1       86.6920  102.0890  -39.4260 O.co2 133  ASP133     -0.2456
    130  OD2       86.9460  102.6370  -37.3140 O.co2 133  ASP133     -0.2456
    131  N         88.4830   97.2970  -38.2250 N.am  134  CYS134     -0.1956
    132  CA        89.4660   96.2260  -38.1080 C.3   134  CYS134      0.1843
    133  C         88.7450   94.8900  -38.1110 C.2   134  CYS134      0.2626
    134  O         87.5210   94.8360  -37.9950 O.2   134  CYS134     -0.2714
    135  CB        90.2820   96.3750  -36.8180 C.3   134  CYS134      0.0997
    136  SG        89.3680   96.0330  -35.2850 S.3   134  CYS134     -0.0797
    137  N         89.5120   93.8150  -38.2820 N.am  135  THR135     -0.1950
    138  CA        88.9680   92.4660  -38.2750 C.3   135  THR135      0.1897
    139  C         89.3820   91.7880  -36.9920 C.2   135  THR135      0.2313
    140  O         90.4910   92.0020  -36.5120 O.2   135  THR135     -0.2863
    141  CB        89.4980   91.6920  -39.4760 C.3   135  THR135      0.1794
    142  OG1       88.9200   92.2700  -40.6570 O.3   135  THR135     -0.2208
    143  CG2       89.1300   90.2170  -39.3980 C.3   135  THR135      0.0378
@<TRIPOS>BOND
     1    81    82    1
     2    81    80    1
     3    82    76    1
     4    80    77    1
     5    79    78    2
     6    73    74    1
     7    73    70    1
     8    74    75    1
     9    76    77    1
    10    76    71   am
    11    77    78    1
    12    78    83   am
    13    70    71    1
    14    70    69    1
    15    71    72    2
    16    83    84    1
    17    75    69    1
    18    84    85    1
    19    69    64   am
    20    58    57    2
    21    65    64    2
    22    64    63    1
    23    85    86    2
    24    85    87   am
    25    61    59    1
    26    59    60    1
    27    59    56    1
    28    87    88    1
    29    57    56    1
    30    57    62   am
    31    63    62    1
    32    63    66    1
    33    92    91    1
    34    56    55    1
    35    62    68    1
    36    55    51   am
    37    88    91    1
    38    88    89    1
    39    53    54    1
    40    53    50    1
    41    91    93    1
    42    66    67    1
    43   114   115    1
    44   114   113    1
    45    51    50    1
    46    51    52    2
    47    50    49    1
    48    68    67    1
    49    89    90    2
    50   115   109    1
    51   113   110    1
    52    97    96    2
    53    49    43   am
    54    44    43    2
    55   109   110    1
    56   109   102   am
    57    43    42    1
    58    96    95    1
    59    96   100   am
    60   110   111    1
    61   101   102    1
    62   101   104    1
    63   101   100    1
    64    94    95    1
    65    98    95    1
    66    98    99    1
    67   105   104    1
    68   105   106    1
    69   102   103    2
    70   108   106   ar
    71   111   112    2
    72   111   116   am
    73    45    42    1
    74    45    46    1
    75    40    38    1
    76   106   107   ar
    77    42    41    1
    78   119   118    2
    79   122   116    1
    80   122   121    1
    81    38    39    1
    82    38    35    1
    83    41    36   am
    84   116   117    1
    85    36    37    2
    86    36    35    1
    87    46    48   ar
    88    46    47   ar
    89   118   117    1
    90    35    34    1
    91   117   120    1
    92   121   120    1
    93   142   141    1
    94    34    22   am
    95   141   143    1
    96   141   138    1
    97    22    23    2
    98    22    21    1
    99   129   128   ar
   100   126   125    2
   101    10     9    1
   102   124   125    1
   103   124   123    1
   104   124   127    1
   105    18    17    1
   106   125   131   am
   107   128   127    1
   108   128   130   ar
   109    21    20    1
   110    21    24    1
   111   137   138    1
   112   137   133   am
   113   138   139    1
   114   131   132    1
   115    16    17    1
   116    16    13    1
   117   133   132    1
   118   133   134    2
   119   132   135    1
   120    15    14    2
   121     9    11    1
   122     9     8    2
   123     1     2    1
   124    20    14   am
   125    17    19    1
   126    14    13    1
   127    24    25    1
   128     7     8    1
   129     7     6    1
   130    13    12    1
   131   139   140    2
   132    30    32   ar
   133    30    27   ar
   134   135   136    1
   135    32    33   ar
   136     2     5    1
   137     2     3    1
   138     4     3    2
   139    25    27   ar
   140    25    26   ar
   141    27    29   ar
   142     5     6    1
   143    33    31   ar
   144    26    28   ar
   145    29    31   ar
   146    29    28   ar
