@<TRIPOS>MOLECULE
tmp/4agqB00.pdb
 132 136 0 0 0
SMALL
GASTEIGER

@<TRIPOS>ATOM
      1  N        126.1670  101.4790  -35.9720 N.3    52  LEU52      -0.1231
      2  CA       127.1910  101.6370  -36.9980 C.3    52  LEU52       0.1693
      3  C        127.0450  103.0350  -37.5810 C.2    52  LEU52       0.2592
      4  O        125.9470  103.4210  -37.9770 O.2    52  LEU52      -0.2718
      5  CB       127.0110  100.6000  -38.1170 C.3    52  LEU52       0.0284
      6  CG       126.7790   99.1620  -37.6680 C.3    52  LEU52       0.0019
      7  CD1      126.5690   98.2790  -38.8930 C.3    52  LEU52       0.0001
      8  CD2      127.9250   98.6580  -36.8150 C.3    52  LEU52       0.0001
      9  N        128.1490  103.7750  -37.6020 N.am   53  TRP53      -0.1962
     10  CA       128.2010  105.1380  -38.1310 C.3    53  TRP53       0.1771
     11  C        129.2090  105.2050  -39.2770 C.2    53  TRP53       0.2619
     12  O        130.3000  104.6480  -39.1800 O.2    53  TRP53      -0.2715
     13  CB       128.6330  106.1240  -37.0250 C.3    53  TRP53       0.0590
     14  CG       127.6200  106.2820  -35.9240 C.ar   53  TRP53       0.0006
     15  CD1      127.4920  105.5240  -34.7970 C.ar   53  TRP53       0.0946
     16  CD2      126.5750  107.2590  -35.8680 C.ar   53  TRP53       0.0152
     17  NE1      126.4280  105.9680  -34.0380 N.ar   53  TRP53      -0.2442
     18  CE2      125.8530  107.0360  -34.6790 C.ar   53  TRP53       0.0810
     19  CE3      126.1730  108.2940  -36.7210 C.ar   53  TRP53       0.0012
     20  CZ2      124.7580  107.8200  -34.3140 C.ar   53  TRP53       0.0191
     21  CZ3      125.0880  109.0740  -36.3470 C.ar   53  TRP53       0.0001
     22  CH2      124.3970  108.8280  -35.1650 C.ar   53  TRP53       0.0015
     23  N        128.8560  105.8990  -40.3550 N.am   54  VAL54      -0.1963
     24  CA       129.8090  106.1590  -41.4360 C.3    54  VAL54       0.1727
     25  C        129.7440  107.6210  -41.8600 C.2    54  VAL54       0.2616
     26  O        128.7320  108.2820  -41.6410 O.2    54  VAL54      -0.2715
     27  CB       129.5470  105.2820  -42.6710 C.3    54  VAL54       0.0290
     28  CG1      129.8610  103.8100  -42.3680 C.3    54  VAL54       0.0023
     29  CG2      128.1060  105.4470  -43.1440 C.3    54  VAL54       0.0023
     30  N        130.8240  108.1090  -42.4640 N.am   55  ASP55      -0.1957
     31  CA       130.8380  109.4480  -43.0600 C.3    55  ASP55       0.1840
     32  C        130.3210  109.4400  -44.4860 C.2    55  ASP55       0.2623
     33  O        129.8790  110.4680  -44.9980 O.2    55  ASP55      -0.2715
     34  CB       132.2480  110.0220  -43.0600 C.3    55  ASP55       0.1450
     35  CG       132.7240  110.3980  -41.6830 C.2    55  ASP55       0.3671
     36  OD1      131.8830  110.7290  -40.8120 O.co2  55  ASP55      -0.2456
     37  OD2      133.9520  110.3640  -41.4750 O.co2  55  ASP55      -0.2456
     38  N        130.4060  108.2910  -45.1450 N.am   56  SER56      -0.1936
     39  CA       129.8940  108.1600  -46.4980 C.3    56  SER56       0.2055
     40  C        129.3890  106.7400  -46.7200 C.2    56  SER56       0.2644
     41  O        129.8480  105.8020  -46.0700 O.2    56  SER56      -0.2714
     42  CB       130.9510  108.5460  -47.5380 C.3    56  SER56       0.2130
     43  OG       132.1020  107.7370  -47.4340 O.3    56  SER56      -0.2179
     44  N        128.4350  106.5990  -47.6320 N.am   57  THR57      -0.1937
     45  CA       127.7770  105.3290  -47.8980 C.3    57  THR57       0.2013
     46  C        128.7210  104.3160  -48.5370 C.2    57  THR57       0.2484
     47  O        129.2960  104.5800  -49.5860 O.2    57  THR57      -0.2729
     48  CB       126.5920  105.5360  -48.8460 C.3    57  THR57       0.1807
     49  OG1      125.6970  106.5070  -48.2880 O.3    57  THR57      -0.2208
     50  CG2      125.8490  104.2310  -49.0700 C.3    57  THR57       0.0379
     51  N        128.8820  103.1390  -47.9040 N.am   58  PRO58      -0.2715
     52  CA       129.6240  102.0520  -48.5560 C.3    58  PRO58       0.1521
     53  C        128.7710  101.3600  -49.6280 C.2    58  PRO58       0.2440
     54  O        127.5520  101.5180  -49.6620 O.2    58  PRO58      -0.2731
     55  CB       129.9310  101.0940  -47.3970 C.3    58  PRO58       0.0310
     56  CG       128.8650  101.3460  -46.3990 C.3    58  PRO58       0.0237
     57  CD       128.4110  102.7810  -46.5550 C.3    58  PRO58       0.0939
     58  N        129.4160  100.5920  -50.5100 N.am   59  PRO59      -0.2717
     59  CA       128.6850   99.9800  -51.6260 C.3    59  PRO59       0.1521
     60  C        127.6660   98.9340  -51.1780 C.2    59  PRO59       0.2440
     61  O        127.8510   98.2740  -50.1490 O.2    59  PRO59      -0.2731
     62  CB       129.7950   99.3030  -52.4360 C.3    59  PRO59       0.0310
     63  CG       131.0330  100.0720  -52.1040 C.3    59  PRO59       0.0237
     64  CD       130.8730  100.4760  -50.6590 C.3    59  PRO59       0.0939
     65  N        126.5820   98.7650  -51.9390 N.am   60  PRO60      -0.2716
     66  CA       125.6720   97.6470  -51.6680 C.3    60  PRO60       0.1536
     67  C        126.4510   96.3250  -51.6860 C.2    60  PRO60       0.2599
     68  O        127.3080   96.1370  -52.5430 O.2    60  PRO60      -0.2715
     69  CB       124.6830   97.6970  -52.8390 C.3    60  PRO60       0.0310
     70  CG       124.7910   99.0770  -53.3930 C.3    60  PRO60       0.0237
     71  CD       126.1990   99.5310  -53.1380 C.3    60  PRO60       0.0939
     72  N        126.1900   95.4440  -50.7210 N.am   61  GLY61      -0.1941
     73  CA       126.9370   94.2030  -50.6090 C.3    61  GLY61       0.2014
     74  C        128.0050   94.2610  -49.5290 C.2    61  GLY61       0.2639
     75  O        128.6070   93.2390  -49.1970 O.2    61  GLY61      -0.2714
     76  N        128.2730   95.4560  -49.0080 N.am   62  THR62      -0.1950
     77  CA       129.1290   95.6120  -47.8390 C.3    62  THR62       0.1897
     78  C        128.4840   94.8340  -46.6920 C.2    62  THR62       0.2313
     79  O        127.2600   94.7700  -46.6070 O.2    62  THR62      -0.2863
     80  CB       129.2540   97.0980  -47.4730 C.3    62  THR62       0.1794
     81  OG1      129.8800   97.7980  -48.5520 O.3    62  THR62      -0.2208
     82  CG2      130.0840   97.2890  -46.2180 C.3    62  THR62       0.0378
     83  N        125.3760   95.1270  -44.5640 N.3   127  CYS127     -0.1221
     84  CA       125.3480   96.5220  -44.1320 C.3   127  CYS127      0.1808
     85  C        124.2110   97.2150  -44.8730 C.2   127  CYS127      0.2601
     86  O        124.1220   97.1160  -46.0920 O.2   127  CYS127     -0.2717
     87  CB       126.6880   97.1860  -44.4460 C.3   127  CYS127      0.0970
     88  SG       126.8190   98.8750  -43.8400 S.3   127  CYS127     -0.0800
     89  N        123.3200   97.8710  -44.1390 N.am  128  GLU128     -0.1966
     90  CA       122.1750   98.5380  -44.7600 C.3   128  GLU128      0.1718
     91  C        122.0900   99.9670  -44.2650 C.2   128  GLU128      0.2458
     92  O        122.5260  100.2590  -43.1600 O.2   128  GLU128     -0.2730
     93  CB       120.8690   97.8110  -44.4290 C.3   128  GLU128      0.0428
     94  CG       120.7660   96.3930  -44.9820 C.3   128  GLU128      0.1163
     95  CD       120.7960   96.3310  -46.5070 C.2   128  GLU128      0.3649
     96  OE1      120.3550   97.2940  -47.1730 O.co2 128  GLU128     -0.2457
     97  OE2      121.2580   95.3030  -47.0490 O.co2 128  GLU128     -0.2457
     98  N        121.5280  100.8640  -45.0890 N.am  129  PRO129     -0.2716
     99  CA       121.3410  102.2510  -44.6520 C.3   129  PRO129      0.1521
    100  C        120.3420  102.3410  -43.5010 C.2   129  PRO129      0.2440
    101  O        119.5240  101.4370  -43.3090 O.2   129  PRO129     -0.2731
    102  CB       120.7800  102.9430  -45.9000 C.3   129  PRO129      0.0310
    103  CG       121.1990  102.0700  -47.0460 C.3   129  PRO129      0.0237
    104  CD       121.1890  100.6720  -46.5090 C.3   129  PRO129      0.0939
    105  N        120.4110  103.4310  -42.7270 N.am  130  PRO130     -0.2727
    106  CA       119.4990  103.6560  -41.6020 C.3   130  PRO130      0.1402
    107  C        118.0470  103.7240  -42.0450 C.2   130  PRO130      0.2269
    108  O        117.7720  104.0880  -43.1810 O.2   130  PRO130     -0.2865
    109  CB       119.9230  105.0340  -41.0840 C.3   130  PRO130      0.0296
    110  CG       121.3580  105.1600  -41.4790 C.3   130  PRO130      0.0237
    111  CD       121.4630  104.4610  -42.8070 C.3   130  PRO130      0.0939
    112  N        119.8860  108.3020  -38.1240 N.3   135  ASP135     -0.1225
    113  CA       121.2030  108.7390  -38.5820 C.3   135  ASP135      0.1805
    114  C        122.2330  107.6120  -38.5920 C.2   135  ASP135      0.2598
    115  O        123.3390  107.7920  -39.0890 O.2   135  ASP135     -0.2718
    116  CB       121.7270  109.8880  -37.7150 C.3   135  ASP135      0.1424
    117  CG       120.8730  111.1450  -37.8250 C.2   135  ASP135      0.3668
    118  OD1      120.5220  111.5220  -38.9590 O.co2 135  ASP135     -0.2456
    119  OD2      120.5580  111.7380  -36.7740 O.co2 135  ASP135     -0.2456
    120  N        121.8760  106.4630  -38.0280 N.am  136  CYS136     -0.1956
    121  CA       122.7920  105.3250  -37.9980 C.3   136  CYS136      0.1843
    122  C        122.0160  104.0240  -38.0930 C.2   136  CYS136      0.2626
    123  O        120.7970  104.0010  -37.9330 O.2   136  CYS136     -0.2714
    124  CB       123.6200  105.3480  -36.7120 C.3   136  CYS136      0.0997
    125  SG       122.6790  105.0600  -35.2040 S.3   136  CYS136     -0.0797
    126  N        122.7350  102.9340  -38.3470 N.am  137  THR137     -0.1950
    127  CA       122.1340  101.6090  -38.3720 C.3   137  THR137      0.1897
    128  C        122.4710  100.8970  -37.0800 C.2   137  THR137      0.2313
    129  O        123.5590  101.0680  -36.5380 O.2   137  THR137     -0.2863
    130  CB       122.6470  100.8300  -39.5710 C.3   137  THR137      0.1794
    131  OG1      122.1710  101.4690  -40.7560 O.3   137  THR137     -0.2208
    132  CG2      122.1470   99.3870  -39.5530 C.3   137  THR137      0.0378
@<TRIPOS>BOND
     1    70    71    1
     2    70    69    1
     3    71    65    1
     4    69    66    1
     5    68    67    2
     6    62    63    1
     7    62    59    1
     8    63    64    1
     9    65    66    1
    10    65    60   am
    11    67    66    1
    12    67    72   am
    13    59    60    1
    14    59    58    1
    15    60    61    2
    16    72    73    1
    17    64    58    1
    18    73    74    1
    19    58    53   am
    20    54    53    2
    21    53    52    1
    22    47    46    2
    23    74    75    2
    24    74    76   am
    25    50    48    1
    26    76    77    1
    27    48    49    1
    28    48    45    1
    29    52    51    1
    30    52    55    1
    31    81    80    1
    32    46    51   am
    33    46    45    1
    34    51    57    1
    35    45    44    1
    36    77    80    1
    37    77    78    1
    38    44    40   am
    39    42    43    1
    40    42    39    1
    41    80    82    1
    42    55    56    1
    43    96    95   ar
    44    97    95   ar
    45   103   104    1
    46   103   102    1
    47    40    39    1
    48    40    41    2
    49    78    79    2
    50    57    56    1
    51   104    98    1
    52    95    94    1
    53    39    38    1
    54    86    85    2
    55   102    99    1
    56    38    32   am
    57    98    99    1
    58    98    91   am
    59    33    32    2
    60    94    93    1
    61    85    89   am
    62    85    84    1
    63    90    93    1
    64    90    91    1
    65    90    89    1
    66    99   100    1
    67    83    84    1
    68    32    31    1
    69    87    84    1
    70    87    88    1
    71    91    92    2
    72   100   101    2
    73   100   105   am
    74   108   107    2
    75    29    27    1
    76    34    31    1
    77    34    35    1
    78    31    30    1
    79   111   105    1
    80   111   110    1
    81   105   106    1
    82    27    28    1
    83    27    24    1
    84    30    25   am
    85   107   106    1
    86    25    26    2
    87    25    24    1
    88    35    37   ar
    89    35    36   ar
    90   106   109    1
    91   110   109    1
    92    24    23    1
    93   131   130    1
    94    23    11   am
    95   130   132    1
    96   130   127    1
    97    11    12    2
    98    11    10    1
    99   115   114    2
   100   118   117   ar
   101     7     6    1
   102   114   113    1
   103   114   120   am
   104   113   112    1
   105   113   116    1
   106   127   126    1
   107   127   128    1
   108   126   122   am
   109    10     9    1
   110    10    13    1
   111     5     6    1
   112     5     2    1
   113   122   121    1
   114   122   123    2
   115   120   121    1
   116   121   124    1
   117     4     3    2
   118   117   116    1
   119   117   119   ar
   120     6     8    1
   121     9     3   am
   122     3     2    1
   123   128   129    2
   124    13    14    1
   125     2     1    1
   126    19    21   ar
   127    19    16   ar
   128   124   125    1
   129    21    22   ar
   130    14    16   ar
   131    14    15   ar
   132    16    18   ar
   133    22    20   ar
   134    15    17   ar
   135    18    20   ar
   136    18    17   ar
