@<TRIPOS>MOLECULE
tmp/4agtA01.pdb
 110 105 0 0 0
SMALL
GASTEIGER

@<TRIPOS>ATOM
      1  N         -1.0810   10.8690    4.7520 N.3    72  ARG72      -0.1245
      2  CA        -0.0450   11.3210    3.8220 C.3    72  ARG72       0.1563
      3  C          0.0330   10.4310    2.5690 C.2    72  ARG72       0.2260
      4  O          0.0730    9.2040    2.6930 O.2    72  ARG72      -0.2867
      5  CB         1.3030   11.4030    4.5280 C.3    72  ARG72       0.0307
      6  CG         1.3040   12.2390    5.8140 C.3    72  ARG72       0.0489
      7  CD         1.4910   13.7190    5.5580 C.3    72  ARG72       0.2205
      8  NE         1.4800   14.5800    6.7760 N.pl3  72  ARG72      -0.0865
      9  CZ         0.4010   14.9230    7.4810 C.cat  72  ARG72       0.5346
     10  NH1       -0.7990   14.4870    7.1670 N.pl3  72  ARG72       0.1354
     11  NH2        0.5200   15.7220    8.5290 N.pl3  72  ARG72       0.1354
     12  N          4.6750   14.9560   -1.5470 N.3    84  GLU84      -0.1245
     13  CA         3.7510   14.5410   -0.4890 C.3    84  GLU84       0.1567
     14  C          2.5300   15.4200   -0.4860 C.2    84  GLU84       0.2260
     15  O          2.6650   16.6470   -0.4690 O.2    84  GLU84      -0.2867
     16  CB         4.4970   14.6330    0.8690 C.3    84  GLU84       0.0388
     17  CG         3.7210   14.2890    2.1440 C.3    84  GLU84       0.1160
     18  CD         4.5360   14.5820    3.4010 C.2    84  GLU84       0.3649
     19  OE1        4.9850   15.7330    3.5220 O.co2  84  GLU84      -0.2457
     20  OE2        4.7400   13.6990    4.2630 O.co2  84  GLU84      -0.2457
     21  N         -4.6470   16.9940    7.3130 N.3    88  ASP88      -0.1239
     22  CA        -4.7910   17.0300    8.7840 C.3    88  ASP88       0.1674
     23  C         -6.2150   17.4750    9.1300 C.2    88  ASP88       0.2266
     24  O         -6.7260   18.4260    8.5360 O.2    88  ASP88      -0.2867
     25  CB        -3.7940   18.0030    9.4080 C.3    88  ASP88       0.1410
     26  CG        -2.3480   17.5740    9.2370 C.2    88  ASP88       0.3668
     27  OD1       -2.0180   16.3980    9.4790 O.co2  88  ASP88      -0.2456
     28  OD2       -1.5030   18.4410    8.8990 O.co2  88  ASP88      -0.2456
     29  N         -7.3530   21.2610    9.1170 N.3    91  THR91      -0.1218
     30  CA        -6.6040   21.9750    8.0740 C.3    91  THR91       0.1862
     31  C         -7.1000   21.6340    6.6620 C.2    91  THR91       0.2287
     32  O         -7.1860   22.5210    5.8300 O.2    91  THR91      -0.2866
     33  CB        -5.1210   21.6240    8.1060 C.3    91  THR91       0.1770
     34  OG1       -4.5730   22.0430    9.3510 O.3    91  THR91      -0.2211
     35  CG2       -4.3460   22.3110    6.9520 C.3    91  THR91       0.0375
     36  N         -3.2140   19.7280    1.7890 N.3    94  TYR94      -0.1241
     37  CA        -2.1710   20.6870    1.4080 C.3    94  TYR94       0.1605
     38  C         -0.9410   19.9730    0.8910 C.2    94  TYR94       0.2264
     39  O         -0.9530   18.7730    0.7620 O.2    94  TYR94      -0.2867
     40  CB        -1.8490   21.6010    2.5880 C.3    94  TYR94       0.0534
     41  CG        -1.2840   20.9240    3.8020 C.ar   94  TYR94      -0.0201
     42  CD1       -2.1150   20.3090    4.7250 C.ar   94  TYR94      -0.0009
     43  CD2        0.0850   20.9220    4.0370 C.ar   94  TYR94      -0.0009
     44  CE1       -1.5970   19.6880    5.8550 C.ar   94  TYR94       0.0417
     45  CE2        0.6140   20.2960    5.1470 C.ar   94  TYR94       0.0417
     46  CZ        -0.2410   19.6820    6.0630 C.ar   94  TYR94       0.1957
     47  OH         0.2590   19.0660    7.1720 O.3    94  TYR94      -0.2866
     48  N          2.6660   18.7960    1.6430 N.3    96  GLY96      -0.1210
     49  CA         3.6120   18.6500    2.7190 C.3    96  GLY96       0.1956
     50  C          5.0250   18.9870    2.2660 C.2    96  GLY96       0.2612
     51  O          5.2750   19.1670    1.0860 O.2    96  GLY96      -0.2717
     52  N          5.9550   19.0320    3.2190 N.am   97  GLY97      -0.1956
     53  CA         7.3400   19.4610    2.9630 C.3    97  GLY97       0.1869
     54  C          8.3100   18.5380    2.2640 C.2    97  GLY97       0.2309
     55  O          9.4330   18.9520    1.9150 O.2    97  GLY97      -0.2863
     56  N          3.5390    5.5080    8.9180 N.3   115  PHE115     -0.1241
     57  CA         3.6920    6.1650   10.2160 C.3   115  PHE115      0.1605
     58  C          4.2520    5.1190   11.1870 C.2   115  PHE115      0.2264
     59  O          3.7430    4.0130   11.2560 O.2   115  PHE115     -0.2867
     60  CB         2.3510    6.6810   10.7400 C.3   115  PHE115      0.0534
     61  CG         1.9890    8.0440   10.2280 C.ar  115  PHE115     -0.0203
     62  CD1        2.6370    9.1590   10.7280 C.ar  115  PHE115     -0.0042
     63  CD2        1.0010    8.2130    9.2670 C.ar  115  PHE115     -0.0042
     64  CE1        2.3210   10.4260   10.2940 C.ar  115  PHE115     -0.0003
     65  CE2        0.6880    9.4770    8.8250 C.ar  115  PHE115     -0.0003
     66  CZ         1.3490   10.5920    9.3390 C.ar  115  PHE115     -0.0000
     67  N          4.0150   12.2780   15.2880 N.3   122  LEU122     -0.1245
     68  CA         3.9530   12.0160   13.8420 C.3   122  LEU122      0.1561
     69  C          5.3730   11.7530   13.3730 C.2   122  LEU122      0.2260
     70  O          6.1940   12.6620   13.3000 O.2   122  LEU122     -0.2867
     71  CB         3.2700   13.1540   13.0510 C.3   122  LEU122      0.0270
     72  CG         1.7250   13.1860   13.0430 C.3   122  LEU122      0.0019
     73  CD1        1.1560   13.4130   14.4410 C.3   122  LEU122      0.0001
     74  CD2        1.1840   14.2440   12.0870 C.3   122  LEU122      0.0001
     75  N          7.5130    9.4290   10.3250 N.3   124  LEU124     -0.1245
     76  CA         7.2950    8.7600    9.0450 C.3   124  LEU124      0.1561
     77  C          8.5860    8.1800    8.5150 C.2   124  LEU124      0.2260
     78  O          9.6540    8.7640    8.7190 O.2   124  LEU124     -0.2867
     79  CB         6.7640    9.7540    8.0070 C.3   124  LEU124      0.0270
     80  CG         5.3420   10.2920    8.2160 C.3   124  LEU124      0.0019
     81  CD1        5.2450   11.7110    7.6250 C.3   124  LEU124      0.0001
     82  CD2        4.2950    9.3750    7.5720 C.3   124  LEU124      0.0001
     83  N         11.1250   11.4640    8.6470 N.3   140  TRP140     -0.1241
     84  CA        10.6080   12.6530    9.2640 C.3   140  TRP140      0.1605
     85  C         10.4380   12.3780   10.7350 C.2   140  TRP140      0.2264
     86  O          9.7150   11.4530   11.1090 O.2   140  TRP140     -0.2867
     87  CB         9.2750   13.0360    8.6670 C.3   140  TRP140      0.0550
     88  CG         8.6050   14.1510    9.4280 C.ar  140  TRP140      0.0003
     89  CD1        7.7150   14.0380   10.4950 C.ar  140  TRP140      0.0946
     90  CD2        8.7490   15.5780    9.2040 C.ar  140  TRP140      0.0152
     91  NE1        7.3170   15.2590   10.9280 N.ar  140  TRP140     -0.2442
     92  CE2        7.9000   16.2340   10.1950 C.ar  140  TRP140      0.0810
     93  CE3        9.4620   16.3500    8.3150 C.ar  140  TRP140      0.0012
     94  CZ2        7.8040   17.6190   10.2800 C.ar  140  TRP140      0.0191
     95  CZ3        9.3440   17.7390    8.3940 C.ar  140  TRP140      0.0001
     96  CH2        8.5460   18.3580    9.3640 C.ar  140  TRP140      0.0015
     97  N         12.9860   16.7580    6.9100 N.3   145  TRP145     -0.1241
     98  CA        13.2110   15.5100    6.2240 C.3   145  TRP145      0.1605
     99  C         14.6700   15.2280    6.1140 C.2   145  TRP145      0.2264
    100  O         15.4300   16.1020    5.7430 O.2   145  TRP145     -0.2867
    101  CB        12.5880   15.5790    4.8240 C.3   145  TRP145      0.0550
    102  CG        11.1090   15.3200    4.8570 C.ar  145  TRP145      0.0003
    103  CD1       10.0810   16.2520    4.8140 C.ar  145  TRP145      0.0946
    104  CD2       10.4490   14.0140    4.9700 C.ar  145  TRP145      0.0152
    105  NE1        8.8610   15.6320    4.8900 N.ar  145  TRP145     -0.2442
    106  CE2        9.0150   14.2830    4.9930 C.ar  145  TRP145      0.0810
    107  CE3       10.8920   12.7000    5.0620 C.ar  145  TRP145      0.0012
    108  CZ2        8.0770   13.2560    5.0930 C.ar  145  TRP145      0.0191
    109  CZ3        9.9500   11.6820    5.1650 C.ar  145  TRP145      0.0001
    110  CH2        8.5730   11.9520    5.1700 C.ar  145  TRP145      0.0015
@<TRIPOS>BOND
     1    12    13    1
     2    13    14    1
     3    13    16    1
     4    14    15    2
     5    39    38    2
     6    16    17    1
     7    38    37    1
     8    51    50    2
     9    37    36    1
    10    37    40    1
    11    48    49    1
    12    55    54    2
    13    17    18    1
    14    54    53    1
    15    50    49    1
    16    50    52   am
    17     3     4    2
    18     3     2    1
    19    40    41    1
    20    53    52    1
    21    18    19   ar
    22    18    20   ar
    23    41    43   ar
    24    41    42   ar
    25     2     5    1
    26     2     1    1
    27    43    45   ar
    28     5     6    1
    29    42    44   ar
    30   103   102   ar
    31   103   105   ar
    32   101   102    1
    33   101    98    1
    34   102   104   ar
    35   105   106   ar
    36   104   106   ar
    37   104   107   ar
    38   106   108   ar
    39   107   109   ar
    40   108   110   ar
    41    45    46   ar
    42   109   110   ar
    43     7     6    1
    44     7     8    1
    45   100    99    2
    46    32    31    2
    47    44    46   ar
    48    46    47    1
    49    99    98    1
    50    98    97    1
    51    31    30    1
    52     8     9    2
    53    35    33    1
    54    10     9    1
    55    21    22    1
    56     9    11    1
    57    82    80    1
    58    81    80    1
    59    79    80    1
    60    79    76    1
    61    30    33    1
    62    30    29    1
    63    33    34    1
    64    93    95   ar
    65    93    90   ar
    66    95    96   ar
    67    77    78    2
    68    77    76    1
    69    24    23    2
    70    83    84    1
    71    87    84    1
    72    87    88    1
    73    22    23    1
    74    22    25    1
    75    65    63   ar
    76    65    66   ar
    77    28    26   ar
    78    56    57    1
    79    76    75    1
    80    90    88   ar
    81    90    92   ar
    82    26    25    1
    83    26    27   ar
    84    84    85    1
    85    63    61   ar
    86    66    64   ar
    87    96    94   ar
    88    88    89   ar
    89    92    94   ar
    90    92    91   ar
    91    57    60    1
    92    57    58    1
    93    61    62   ar
    94    61    60    1
    95    64    62   ar
    96    89    91   ar
    97    85    86    2
    98    58    59    2
    99    74    72    1
   100    72    71    1
   101    72    73    1
   102    71    68    1
   103    70    69    2
   104    69    68    1
   105    68    67    1
