@<TRIPOS>MOLECULE
tmp/4agtB05.pdb
 106 101 0 0 0
SMALL
GASTEIGER

@<TRIPOS>ATOM
      1  N         15.7370   -6.6530  -44.9440 N.3    21  ASN21      -0.1240
      2  CA        16.4020   -6.8660  -43.6430 C.3    21  ASN21       0.1653
      3  C         17.1160   -5.6130  -43.0850 C.2    21  ASN21       0.2266
      4  O         17.9770   -5.7090  -42.2090 O.2    21  ASN21      -0.2867
      5  CB        17.3420   -8.0780  -43.7220 C.3    21  ASN21       0.1155
      6  CG        18.5690   -7.8180  -44.5710 C.2    21  ASN21       0.2627
      7  OD1       18.5760   -6.9260  -45.4240 O.2    21  ASN21      -0.2716
      8  ND2       19.6340   -8.5740  -44.3080 N.am   21  ASN21      -0.0877
      9  N         16.3240   -2.5690  -40.8440 N.3    23  LEU23      -0.1245
     10  CA        15.2790   -2.4230  -39.8120 C.3    23  LEU23       0.1561
     11  C         15.3950   -1.1650  -38.9880 C.2    23  LEU23       0.2260
     12  O         16.5090   -0.6460  -38.7470 O.2    23  LEU23      -0.2867
     13  CB        15.3590   -3.5910  -38.8350 C.3    23  LEU23       0.0270
     14  CG        15.5900   -4.9820  -39.4180 C.3    23  LEU23       0.0019
     15  CD1       15.7270   -5.9920  -38.2810 C.3    23  LEU23       0.0001
     16  CD2       14.4760   -5.3570  -40.4190 C.3    23  LEU23       0.0001
     17  N         18.9470   -1.4980  -37.3480 N.3    39  TYR39      -0.1241
     18  CA        19.7670   -2.6400  -37.7950 C.3    39  TYR39       0.1605
     19  C         20.1760   -2.4390  -39.2600 C.2    39  TYR39       0.2264
     20  O         19.3300   -2.4690  -40.1700 O.2    39  TYR39      -0.2867
     21  CB        19.0220   -3.9770  -37.6130 C.3    39  TYR39       0.0534
     22  CG        19.8150   -5.2120  -37.9720 C.ar   39  TYR39      -0.0201
     23  CD1       20.6510   -5.8400  -37.0420 C.ar   39  TYR39      -0.0009
     24  CD2       19.7460   -5.7480  -39.2530 C.ar   39  TYR39      -0.0009
     25  CE1       21.3920   -6.9690  -37.3890 C.ar   39  TYR39       0.0417
     26  CE2       20.4550   -6.8660  -39.5950 C.ar   39  TYR39       0.0417
     27  CZ        21.2870   -7.4680  -38.6680 C.ar   39  TYR39       0.1957
     28  OH        21.9620   -8.5760  -39.0420 O.3    39  TYR39      -0.2866
     29  N         23.1340   -4.2680  -34.8580 N.3    43  TRP43      -0.1241
     30  CA        22.2540   -3.4250  -34.0330 C.3    43  TRP43       0.1605
     31  C         22.9310   -2.1970  -33.5070 C.2    43  TRP43       0.2264
     32  O         24.0520   -2.2540  -33.0240 O.2    43  TRP43      -0.2867
     33  CB        21.6920   -4.2640  -32.8790 C.3    43  TRP43       0.0550
     34  CG        20.5450   -5.1040  -33.3270 C.ar   43  TRP43       0.0003
     35  CD1       20.5240   -6.4600  -33.5610 C.ar   43  TRP43       0.0946
     36  CD2       19.1970   -4.6450  -33.6510 C.ar   43  TRP43       0.0152
     37  NE1       19.2980   -6.8550  -34.0120 N.ar   43  TRP43      -0.2442
     38  CE2       18.4540   -5.8220  -34.0620 C.ar   43  TRP43       0.0810
     39  CE3       18.5550   -3.4150  -33.6350 C.ar   43  TRP43       0.0012
     40  CZ2       17.1470   -5.7500  -34.4740 C.ar   43  TRP43       0.0191
     41  CZ3       17.2270   -3.3560  -34.0480 C.ar   43  TRP43       0.0001
     42  CH2       16.5380   -4.4970  -34.4460 C.ar   43  TRP43       0.0015
     43  N          8.8260   -9.3480  -44.7010 N.3   270  TRP270     -0.1241
     44  CA         9.1890   -9.0870  -46.0870 C.3   270  TRP270      0.1605
     45  C          9.3150  -10.4280  -46.7390 C.2   270  TRP270      0.2264
     46  O          9.4240  -11.4570  -46.0350 O.2   270  TRP270     -0.2867
     47  CB        10.4710   -8.2710  -46.1960 C.3   270  TRP270      0.0550
     48  CG        11.7330   -8.9200  -45.6260 C.ar  270  TRP270      0.0003
     49  CD1       12.6900   -9.6760  -46.3070 C.ar  270  TRP270      0.0946
     50  CD2       12.2030   -8.8790  -44.2410 C.ar  270  TRP270      0.0152
     51  NE1       13.6900  -10.0810  -45.4570 N.ar  270  TRP270     -0.2442
     52  CE2       13.4640   -9.6270  -44.2100 C.ar  270  TRP270      0.0810
     53  CE3       11.7270   -8.3230  -43.0740 C.ar  270  TRP270      0.0012
     54  CZ2       14.1790   -9.8100  -43.0350 C.ar  270  TRP270      0.0191
     55  CZ3       12.4650   -8.4920  -41.9040 C.ar  270  TRP270      0.0001
     56  CH2       13.6510   -9.2290  -41.8800 C.ar  270  TRP270      0.0015
     57  N          9.8480  -10.5110  -38.2010 N.3   281  ARG281     -0.1245
     58  CA        10.4500  -10.1230  -36.9220 C.3   281  ARG281      0.1563
     59  C          9.3590   -9.5350  -35.9920 C.2   281  ARG281      0.2260
     60  O          8.5600   -8.6850  -36.3840 O.2   281  ARG281     -0.2867
     61  CB        11.6040   -9.1390  -37.1120 C.3   281  ARG281      0.0307
     62  CG        12.6910   -9.5500  -38.1140 C.3   281  ARG281      0.0489
     63  CD        13.6450  -10.6020  -37.5510 C.3   281  ARG281      0.2205
     64  NE        14.7680  -10.8990  -38.4530 N.pl3 281  ARG281     -0.0865
     65  CZ        14.6790  -11.6920  -39.5180 C.cat 281  ARG281      0.5346
     66  NH1       13.5330  -12.2900  -39.8320 N.pl3 281  ARG281      0.1354
     67  NH2       15.7310  -11.9250  -40.2720 N.pl3 281  ARG281      0.1354
     68  N         13.5900   -9.6110  -29.4850 N.3   295  GLU295     -0.1245
     69  CA        13.2180   -9.9460  -30.8620 C.3   295  GLU295      0.1567
     70  C         12.9160  -11.4250  -30.9950 C.2   295  GLU295      0.2260
     71  O         13.5710  -12.2670  -30.3900 O.2   295  GLU295     -0.2867
     72  CB        14.3710   -9.5840  -31.8270 C.3   295  GLU295      0.0388
     73  CG        14.0640   -9.7750  -33.3290 C.3   295  GLU295      0.1160
     74  CD        15.3010   -9.5490  -34.1880 C.2   295  GLU295      0.3649
     75  OE1       16.3280  -10.2050  -33.9380 O.co2 295  GLU295     -0.2457
     76  OE2       15.2700   -8.7060  -35.1020 O.co2 295  GLU295     -0.2457
     77  N         12.2330  -14.1790  -34.2910 N.3   297  VAL297     -0.1245
     78  CA        12.5270  -14.3220  -35.7100 C.3   297  VAL297      0.1561
     79  C         11.8030  -15.5470  -36.2840 C.2   297  VAL297      0.2260
     80  O         11.6880  -16.5990  -35.6150 O.2   297  VAL297     -0.2867
     81  CB        14.0530  -14.5060  -35.9060 C.3   297  VAL297      0.0252
     82  CG1       14.3910  -14.8480  -37.3420 C.3   297  VAL297      0.0019
     83  CG2       14.8350  -13.2800  -35.4500 C.3   297  VAL297      0.0019
     84  N         12.2030  -17.5180  -40.1720 N.3   299  ASN299     -0.1240
     85  CA        12.5880  -17.6530  -41.5880 C.3   299  ASN299      0.1653
     86  C         12.5290  -19.1040  -42.0560 C.2   299  ASN299      0.2266
     87  O         12.2530  -20.0130  -41.2660 O.2   299  ASN299     -0.2867
     88  CB        13.9630  -17.0430  -41.8420 C.3   299  ASN299      0.1155
     89  CG        15.0470  -17.6690  -41.0070 C.2   299  ASN299      0.2627
     90  OD1       14.8960  -18.7720  -40.4870 O.2   299  ASN299     -0.2716
     91  ND2       16.1490  -16.9620  -40.8670 N.am  299  ASN299     -0.0877
     92  N         15.4920  -13.9390  -31.5110 N.3   307  GLY307     -0.1210
     93  CA        16.4870  -13.1690  -32.2270 C.3   307  GLY307      0.1956
     94  C         17.3680  -12.5000  -31.2110 C.2   307  GLY307      0.2611
     95  O         17.7280  -13.1120  -30.2120 O.2   307  GLY307     -0.2717
     96  N         17.7470  -11.2600  -31.5100 N.am  308  ARG308     -0.1979
     97  CA        18.4810  -10.4120  -30.6140 C.3   308  ARG308      0.1597
     98  C         17.7940  -10.3550  -29.2330 C.2   308  ARG308      0.2287
     99  O         16.6450   -9.9110  -29.1120 O.2   308  ARG308     -0.2864
    100  CB        18.6030   -9.0100  -31.2130 C.3   308  ARG308      0.0334
    101  CG        19.2630   -7.9810  -30.3040 C.3   308  ARG308      0.0492
    102  CD        20.7850   -8.0620  -30.2110 C.3   308  ARG308      0.2205
    103  NE        21.2680   -6.8920  -29.4710 N.pl3 308  ARG308     -0.0865
    104  CZ        22.4290   -6.2580  -29.6640 C.cat 308  ARG308      0.5346
    105  NH1       23.2840   -6.6630  -30.5920 N.pl3 308  ARG308      0.1354
    106  NH2       22.7170   -5.1830  -28.9290 N.pl3 308  ARG308      0.1354
@<TRIPOS>BOND
     1    45    44    1
     2    45    46    2
     3    49    48   ar
     4    49    51   ar
     5    47    44    1
     6    47    48    1
     7    44    43    1
     8    48    50   ar
     9    51    52   ar
    10     7     6    2
    11     1     2    1
    12     6     8   am
    13     6     5    1
    14    50    52   ar
    15    50    53   ar
    16    52    54   ar
    17     5     2    1
    18     2     3    1
    19     3     4    2
    20    53    55   ar
    21    54    56   ar
    22    86    85    1
    23    86    87    2
    24    55    56   ar
    25    88    85    1
    26    88    89    1
    27    85    84    1
    28    89    91   am
    29    89    90    2
    30     9    10    1
    31    16    14    1
    32    67    65    1
    33    20    19    2
    34    66    65    1
    35    10    11    1
    36    10    13    1
    37    26    24   ar
    38    26    27   ar
    39    65    64    2
    40    14    13    1
    41    14    15    1
    42    19    18    1
    43    24    22   ar
    44    28    27    1
    45    11    12    2
    46    27    25   ar
    47    64    63    1
    48    57    58    1
    49    62    63    1
    50    62    61    1
    51    22    21    1
    52    22    23   ar
    53    18    21    1
    54    18    17    1
    55    25    23   ar
    56    82    81    1
    57    61    58    1
    58    58    59    1
    59    60    59    2
    60    79    78    1
    61    79    80    2
    62    81    78    1
    63    81    83    1
    64    78    77    1
    65    76    74   ar
    66    29    30    1
    67    40    42   ar
    68    40    38   ar
    69    42    41   ar
    70    74    75   ar
    71    74    73    1
    72    38    37   ar
    73    38    36   ar
    74    41    39   ar
    75    30    31    1
    76    30    33    1
    77    37    35   ar
    78    36    39   ar
    79    36    34   ar
    80    35    34   ar
    81    31    32    2
    82    73    72    1
    83    34    33    1
    84    93    92    1
    85    93    94    1
    86    72    69    1
    87    96    94   am
    88    96    97    1
    89   100    97    1
    90   100   101    1
    91    94    95    2
    92    70    69    1
    93    70    71    2
    94    69    68    1
    95    97    98    1
    96   105   104    1
    97   101   102    1
    98   102   103    1
    99   104   103    2
   100   104   106    1
   101    98    99    2
