@<TRIPOS>MOLECULE
tmp/4agtB03.pdb
 125 118 0 0 0
SMALL
GASTEIGER

@<TRIPOS>ATOM
      1  N         -2.3100   -3.9860  -48.4050 N.3   165  PHE165     -0.1241
      2  CA        -1.6800   -4.7150  -49.4820 C.3   165  PHE165      0.1605
      3  C         -2.4930   -4.4010  -50.7720 C.2   165  PHE165      0.2264
      4  O         -3.5680   -3.7630  -50.7280 O.2   165  PHE165     -0.2867
      5  CB        -1.6270   -6.2190  -49.1650 C.3   165  PHE165      0.0534
      6  CG        -2.9960   -6.8340  -48.8360 C.ar  165  PHE165     -0.0203
      7  CD1       -3.8230   -7.2910  -49.8480 C.ar  165  PHE165     -0.0042
      8  CD2       -3.4310   -6.9500  -47.5210 C.ar  165  PHE165     -0.0042
      9  CE1       -5.0870   -7.8010  -49.5730 C.ar  165  PHE165     -0.0003
     10  CE2       -4.6910   -7.4990  -47.2310 C.ar  165  PHE165     -0.0003
     11  CZ        -5.5050   -7.9190  -48.2590 C.ar  165  PHE165     -0.0000
     12  N         -3.6860   -6.4910  -54.2050 N.3   167  TYR167     -0.1241
     13  CA        -3.7120   -7.6660  -55.0130 C.3   167  TYR167      0.1605
     14  C         -3.3050   -7.3120  -56.4620 C.2   167  TYR167      0.2264
     15  O         -3.7110   -6.2890  -57.0080 O.2   167  TYR167     -0.2867
     16  CB        -5.1050   -8.2660  -55.0580 C.3   167  TYR167      0.0534
     17  CG        -5.7920   -8.7760  -53.8110 C.ar  167  TYR167     -0.0201
     18  CD1       -5.3110   -9.8790  -53.0980 C.ar  167  TYR167     -0.0009
     19  CD2       -7.0350   -8.2540  -53.4220 C.ar  167  TYR167     -0.0009
     20  CE1       -6.0170  -10.3990  -52.0040 C.ar  167  TYR167      0.0417
     21  CE2       -7.7240   -8.7640  -52.3300 C.ar  167  TYR167      0.0417
     22  CZ        -7.2350   -9.8400  -51.6300 C.ar  167  TYR167      0.1957
     23  OH        -7.9780  -10.3320  -50.5290 O.3   167  TYR167     -0.2866
     24  N         -6.6900   -3.8880  -44.1500 N.3   176  ARG176     -0.1245
     25  CA        -7.2640   -4.7070  -43.0990 C.3   176  ARG176      0.1563
     26  C         -6.8690   -4.0930  -41.7640 C.2   176  ARG176      0.2260
     27  O         -5.7290   -3.6600  -41.5780 O.2   176  ARG176     -0.2867
     28  CB        -6.8080   -6.1570  -43.2340 C.3   176  ARG176      0.0307
     29  CG        -7.2020   -6.8390  -44.5360 C.3   176  ARG176      0.0489
     30  CD        -8.6950   -7.1700  -44.6410 C.3   176  ARG176      0.2205
     31  NE        -9.0150   -7.8570  -45.9030 N.pl3 176  ARG176     -0.0865
     32  CZ        -9.2450   -7.2880  -47.0980 C.cat 176  ARG176      0.5346
     33  NH1       -9.2280   -5.9850  -47.2650 N.pl3 176  ARG176      0.1354
     34  NH2       -9.5290   -8.0590  -48.1390 N.pl3 176  ARG176      0.1354
     35  N        -11.7240   -8.5350  -37.1450 N.3   188  GLN188     -0.1245
     36  CA       -11.1930   -7.8770  -38.3270 C.3   188  GLN188      0.1566
     37  C        -12.2490   -7.0170  -38.9740 C.2   188  GLN188      0.2260
     38  O        -13.3940   -7.4290  -39.0690 O.2   188  GLN188     -0.2867
     39  CB       -10.7500   -8.9590  -39.3470 C.3   188  GLN188      0.0367
     40  CG       -10.1870   -8.4650  -40.6870 C.3   188  GLN188      0.0905
     41  CD       -10.4500   -9.4380  -41.8370 C.2   188  GLN188      0.2608
     42  OE1      -11.5750   -9.5130  -42.3700 O.2   188  GLN188     -0.2717
     43  NE2       -9.4320  -10.2110  -42.2020 N.am  188  GLN188     -0.0878
     44  N        -12.4830   -4.7880  -42.8890 N.3   190  ALA190     -0.1245
     45  CA       -11.8630   -4.9460  -44.2080 C.3   190  ALA190      0.1562
     46  C        -12.3380   -3.9260  -45.2250 C.2   190  ALA190      0.2260
     47  O        -13.5310   -3.6560  -45.3100 O.2   190  ALA190     -0.2867
     48  CB       -12.0830   -6.3720  -44.7510 C.3   190  ALA190      0.0290
     49  N        -11.9500   -3.2670  -49.3680 N.3   192  ASP192     -0.1239
     50  CA       -11.5480   -3.5730  -50.7730 C.3   192  ASP192      0.1674
     51  C        -12.1850   -2.5360  -51.7000 C.2   192  ASP192      0.2266
     52  O        -13.2710   -2.0150  -51.3980 O.2   192  ASP192     -0.2867
     53  CB       -12.0200   -4.9790  -51.2250 C.3   192  ASP192      0.1410
     54  CG       -11.1890   -6.1200  -50.6630 C.2   192  ASP192      0.3668
     55  OD1      -10.0140   -5.9160  -50.2820 O.co2 192  ASP192     -0.2456
     56  OD2      -11.7270   -7.2530  -50.6180 O.co2 192  ASP192     -0.2456
     57  N        -16.2320   -3.4360  -45.7930 N.3   198  TYR198     -0.1241
     58  CA       -17.1940   -4.5350  -45.6600 C.3   198  TYR198      0.1605
     59  C        -18.0550   -4.2810  -44.4190 C.2   198  TYR198      0.2264
     60  O        -17.5740   -3.7170  -43.4230 O.2   198  TYR198     -0.2867
     61  CB       -16.5180   -5.8980  -45.5120 C.3   198  TYR198      0.0534
     62  CG       -15.8520   -6.5130  -46.7580 C.ar  198  TYR198     -0.0201
     63  CD1      -14.7020   -5.9520  -47.2950 C.ar  198  TYR198     -0.0009
     64  CD2      -16.3200   -7.7080  -47.3190 C.ar  198  TYR198     -0.0009
     65  CE1      -14.0650   -6.4990  -48.3680 C.ar  198  TYR198      0.0417
     66  CE2      -15.6840   -8.2790  -48.4080 C.ar  198  TYR198      0.0417
     67  CZ       -14.5440   -7.6580  -48.9240 C.ar  198  TYR198      0.1957
     68  OH       -13.8660   -8.1450  -50.0040 O.3   198  TYR198     -0.2866
     69  N        -19.3360   -6.6590  -42.4300 N.3   200  ASP200     -0.1239
     70  CA       -19.1380   -7.6120  -41.3470 C.3   200  ASP200      0.1674
     71  C        -17.8290   -7.4160  -40.5760 C.2   200  ASP200      0.2266
     72  O        -16.7680   -7.1140  -41.1530 O.2   200  ASP200     -0.2867
     73  CB       -19.2610   -9.0610  -41.8280 C.3   200  ASP200      0.1410
     74  CG       -18.2120   -9.4450  -42.8710 C.2   200  ASP200      0.3668
     75  OD1      -17.7140   -8.5470  -43.5770 O.co2 200  ASP200     -0.2456
     76  OD2      -17.9000  -10.6650  -43.0050 O.co2 200  ASP200     -0.2456
     77  N        -15.3160   -9.7000  -38.6850 N.3   202  VAL202     -0.1245
     78  CA       -14.9940  -11.1310  -38.7040 C.3   202  VAL202      0.1561
     79  C        -14.2020  -11.4660  -37.4520 C.2   202  VAL202      0.2260
     80  O        -13.1400  -10.8730  -37.2240 O.2   202  VAL202     -0.2867
     81  CB       -14.1900  -11.4900  -39.9710 C.3   202  VAL202      0.0252
     82  CG1      -13.5310  -12.8550  -39.8350 C.3   202  VAL202      0.0019
     83  CG2      -15.1020  -11.4520  -41.2010 C.3   202  VAL202      0.0019
     84  N         -3.4780  -13.4540  -50.6070 N.3   226  ILE226     -0.1245
     85  CA        -2.7600  -12.6930  -49.5660 C.3   226  ILE226      0.1561
     86  C         -2.4350  -13.6190  -48.3930 C.2   226  ILE226      0.2260
     87  O         -3.0780  -14.6400  -48.2380 O.2   226  ILE226     -0.2867
     88  CB        -3.5920  -11.4600  -49.1010 C.3   226  ILE226      0.0252
     89  CG1       -2.7230  -10.4480  -48.3560 C.3   226  ILE226      0.0019
     90  CG2       -4.8230  -11.8800  -48.2850 C.3   226  ILE226      0.0019
     91  CD1       -1.4420  -10.0630  -49.0770 C.3   226  ILE226      0.0001
     92  N         -1.5950  -13.1600  -44.1460 N.3   228  MET228     -0.1245
     93  CA        -1.6380  -12.2050  -43.0220 C.3   228  MET228      0.1570
     94  C         -1.3280  -12.9070  -41.7020 C.2   228  MET228      0.2261
     95  O         -1.5920  -14.0920  -41.5510 O.2   228  MET228     -0.2867
     96  CB        -3.0020  -11.5070  -42.9270 C.3   228  MET228      0.0387
     97  CG        -3.5470  -11.0090  -44.2680 C.3   228  MET228      0.0595
     98  SD        -5.0350   -9.9700  -44.1940 S.3   228  MET228     -0.1393
     99  CE        -6.2870  -11.1220  -43.6280 C.3   228  MET228      0.0692
    100  N         -3.8300  -16.0880  -41.5360 N.3   244  TRP244     -0.1241
    101  CA        -4.5810  -16.1960  -42.7780 C.3   244  TRP244      0.1605
    102  C         -3.6260  -16.6710  -43.8210 C.2   244  TRP244      0.2264
    103  O         -2.6060  -16.0410  -44.0540 O.2   244  TRP244     -0.2867
    104  CB        -5.1680  -14.8670  -43.2200 C.3   244  TRP244      0.0550
    105  CG        -5.8530  -14.9820  -44.5760 C.ar  244  TRP244      0.0003
    106  CD1       -5.2520  -15.0020  -45.8400 C.ar  244  TRP244      0.0946
    107  CD2       -7.2790  -15.1610  -44.8390 C.ar  244  TRP244      0.0152
    108  NE1       -6.1880  -15.1520  -46.8320 N.ar  244  TRP244     -0.2442
    109  CE2       -7.4240  -15.2560  -46.2970 C.ar  244  TRP244      0.0810
    110  CE3       -8.4200  -15.2310  -44.0450 C.ar  244  TRP244      0.0012
    111  CZ2       -8.6590  -15.4290  -46.9000 C.ar  244  TRP244      0.0191
    112  CZ3       -9.6690  -15.4180  -44.6750 C.ar  244  TRP244      0.0001
    113  CH2       -9.7770  -15.5090  -46.0630 C.ar  244  TRP244      0.0015
    114  N         -8.6690  -18.1910  -42.2600 N.3   250  TYR250     -0.1241
    115  CA        -8.2140  -18.0400  -40.8970 C.3   250  TYR250      0.1605
    116  C         -8.1890  -19.4320  -40.3230 C.2   250  TYR250      0.2264
    117  O         -9.2160  -19.9480  -39.9080 O.2   250  TYR250     -0.2867
    118  CB        -9.1360  -17.1260  -40.1080 C.3   250  TYR250      0.0534
    119  CG        -8.7860  -15.6410  -40.2620 C.ar  250  TYR250     -0.0201
    120  CD1       -7.5520  -15.1510  -39.8470 C.ar  250  TYR250     -0.0009
    121  CD2       -9.6860  -14.7480  -40.7860 C.ar  250  TYR250     -0.0009
    122  CE1       -7.2250  -13.8090  -39.9630 C.ar  250  TYR250      0.0417
    123  CE2       -9.3710  -13.4180  -40.9080 C.ar  250  TYR250      0.0417
    124  CZ        -8.1340  -12.9500  -40.4840 C.ar  250  TYR250      0.1957
    125  OH        -7.8380  -11.6260  -40.6070 O.3   250  TYR250     -0.2866
@<TRIPOS>BOND
     1    15    14    2
     2    14    13    1
     3    16    13    1
     4    16    17    1
     5    13    12    1
     6    17    19   ar
     7    17    18   ar
     8    19    21   ar
     9    18    20   ar
    10    21    22   ar
    11    20    22   ar
    12    51    52    2
    13    51    50    1
    14    22    23    1
    15    53    50    1
    16    53    54    1
    17    50    49    1
    18     3     4    2
    19     3     2    1
    20    54    56   ar
    21    54    55   ar
    22    84    85    1
    23    68    67    1
    24     7     9   ar
    25     7     6   ar
    26     9    11   ar
    27    85    88    1
    28    85    86    1
    29     2     5    1
    30     2     1    1
    31     5     6    1
    32    88    89    1
    33    88    90    1
    34    91    89    1
    35    67    66   ar
    36    67    65   ar
    37     6     8   ar
    38    66    64   ar
    39    86    87    2
    40    65    63   ar
    41    11    10   ar
    42    34    32    1
    43     8    10   ar
    44    64    62   ar
    45    63    62   ar
    46    33    32    1
    47    32    31    2
    48   111   109   ar
    49   111   113   ar
    50   108   109   ar
    51   108   106   ar
    52    62    61    1
    53   109   107   ar
    54   113   112   ar
    55    31    30    1
    56   106   105   ar
    57    57    58    1
    58    58    61    1
    59    58    59    1
    60    47    46    2
    61    46    45    1
    62   107   105   ar
    63   107   110   ar
    64    48    45    1
    65   112   110   ar
    66    30    29    1
    67   105   104    1
    68    29    28    1
    69    59    60    2
    70    97    98    1
    71    97    96    1
    72    45    44    1
    73    98    99    1
    74    24    25    1
    75    92    93    1
    76   103   102    2
    77   102   101    1
    78    75    74   ar
    79    28    25    1
    80   104   101    1
    81    25    26    1
    82    93    96    1
    83    93    94    1
    84    76    74   ar
    85    74    73    1
    86   101   100    1
    87    69    70    1
    88    42    41    2
    89   114   115    1
    90    43    41   am
    91    41    40    1
    92    73    70    1
    93    26    27    2
    94    94    95    2
    95    70    71    1
    96    83    81    1
    97    72    71    2
    98   123   121   ar
    99   123   124   ar
   100   115   116    1
   101   115   118    1
   102   121   119   ar
   103    40    39    1
   104   125   124    1
   105   124   122   ar
   106   116   117    2
   107   119   118    1
   108   119   120   ar
   109    81    82    1
   110    81    78    1
   111   122   120   ar
   112    39    36    1
   113    38    37    2
   114    37    36    1
   115    78    77    1
   116    78    79    1
   117    36    35    1
   118    79    80    2
