@<TRIPOS>MOLECULE
tmp/4agtB02.pdb
 96 90 0 0 0
SMALL
GASTEIGER

@<TRIPOS>ATOM
      1  N         -0.6490    3.3490  -48.0100 N.3   116  LEU116     -0.1245
      2  CA        -1.4510    2.4750  -48.8790 C.3   116  LEU116      0.1561
      3  C         -0.5000    1.7690  -49.8470 C.2   116  LEU116      0.2260
      4  O          0.3890    2.4170  -50.4180 O.2   116  LEU116     -0.2867
      5  CB        -2.5050    3.2920  -49.6540 C.3   116  LEU116      0.0270
      6  CG        -3.6390    3.9590  -48.8660 C.3   116  LEU116      0.0019
      7  CD1       -4.6830    4.5980  -49.7850 C.3   116  LEU116      0.0001
      8  CD2       -4.2870    2.9310  -47.9830 C.3   116  LEU116      0.0001
      9  N         -3.2120    6.3610  -44.0530 N.3   125  ARG125     -0.1245
     10  CA        -4.4200    6.1400  -43.2600 C.3   125  ARG125      0.1563
     11  C         -3.9790    5.7790  -41.8580 C.2   125  ARG125      0.2260
     12  O         -3.2260    4.7990  -41.6720 O.2   125  ARG125     -0.2867
     13  CB        -5.2510    5.0040  -43.8040 C.3   125  ARG125      0.0307
     14  CG        -5.7460    5.1940  -45.2260 C.3   125  ARG125      0.0489
     15  CD        -6.6530    6.3940  -45.3570 C.3   125  ARG125      0.2205
     16  NE        -7.1680    6.5140  -46.7160 N.pl3 125  ARG125     -0.0865
     17  CZ        -6.5780    7.1870  -47.7060 C.cat 125  ARG125      0.5346
     18  NH1       -5.4290    7.8420  -47.5200 N.pl3 125  ARG125      0.1354
     19  NH2       -7.1650    7.2200  -48.8980 N.pl3 125  ARG125      0.1354
     20  N        -10.8150    6.7050  -38.7380 N.3   137  GLU137     -0.1245
     21  CA        -9.7890    6.7560  -39.7560 C.3   137  GLU137      0.1567
     22  C         -9.5040    8.2110  -40.0830 C.2   137  GLU137      0.2260
     23  O        -10.4310    9.0440  -40.1530 O.2   137  GLU137     -0.2867
     24  CB       -10.2740    6.0480  -41.0250 C.3   137  GLU137      0.0388
     25  CG        -9.2440    5.9920  -42.1590 C.3   137  GLU137      0.1160
     26  CD        -9.8510    5.4650  -43.4720 C.2   137  GLU137      0.3649
     27  OE1      -10.7540    6.1250  -44.0420 O.co2 137  GLU137     -0.2457
     28  OE2       -9.4260    4.3890  -43.9380 O.co2 137  GLU137     -0.2457
     29  N         -6.9940   10.5860  -42.8170 N.3   139  MET139     -0.1245
     30  CA        -6.4220   10.4180  -44.1550 C.3   139  MET139      0.1570
     31  C         -5.5470   11.5800  -44.5770 C.2   139  MET139      0.2261
     32  O         -5.8940   12.7600  -44.3980 O.2   139  MET139     -0.2867
     33  CB        -7.4930   10.3550  -45.2400 C.3   139  MET139      0.0387
     34  CG        -8.6430    9.4060  -45.0750 C.3   139  MET139      0.0595
     35  SD        -9.6770    9.4240  -46.5800 S.3   139  MET139     -0.1393
     36  CE       -10.0640   11.1550  -46.7810 C.3   139  MET139      0.0692
     37  N         -4.0400   12.4280  -48.3950 N.3   141  ASN141     -0.1240
     38  CA        -3.9170   12.1040  -49.8060 C.3   141  ASN141      0.1653
     39  C         -3.1440   13.1900  -50.5820 C.2   141  ASN141      0.2266
     40  O         -3.4660   13.4820  -51.7360 O.2   141  ASN141     -0.2867
     41  CB        -5.3160   11.8940  -50.3960 C.3   141  ASN141      0.1155
     42  CG        -5.9790   10.6470  -49.8590 C.2   141  ASN141      0.2627
     43  OD1       -5.4190    9.5420  -49.9500 O.2   141  ASN141     -0.2716
     44  ND2       -7.1560   10.8060  -49.2850 N.am  141  ASN141     -0.0877
     45  N        -11.4230   10.3340  -42.4440 N.3   148  GLY148     -0.1210
     46  CA       -12.0080    9.4150  -43.3960 C.3   148  GLY148      0.1956
     47  C        -13.1490    8.7100  -42.7210 C.2   148  GLY148      0.2612
     48  O        -13.8920    9.3260  -41.9720 O.2   148  GLY148     -0.2717
     49  N        -13.2790    7.4050  -42.9440 N.am  149  THR149     -0.1952
     50  CA       -14.4310    6.6700  -42.4670 C.3   149  THR149      0.1897
     51  C        -14.3480    6.3860  -40.9670 C.2   149  THR149      0.2313
     52  O        -13.2580    6.0890  -40.4310 O.2   149  THR149     -0.2863
     53  CB       -14.5890    5.3430  -43.2370 C.3   149  THR149      0.1794
     54  OG1      -14.5130    5.6020  -44.6470 O.3   149  THR149     -0.2208
     55  CG2      -15.9140    4.6650  -42.8970 C.3   149  THR149      0.0378
     56  N         -5.6420   -0.3360  -53.7560 N.3   173  PRO173     -0.2116
     57  CA        -5.2230   -0.9880  -52.5130 C.3   173  PRO173      0.1372
     58  C         -6.3510   -1.5190  -51.6370 C.2   173  PRO173      0.2244
     59  O         -7.4840   -1.0020  -51.6570 O.2   173  PRO173     -0.2868
     60  CB        -4.4320    0.1070  -51.7880 C.3   173  PRO173      0.0268
     61  CG        -4.9540    1.3930  -52.3340 C.3   173  PRO173      0.0207
     62  CD        -5.3290    1.1080  -53.7630 C.3   173  PRO173      0.0892
     63  N         -7.1680   -2.5800  -47.4120 N.3   175  ILE175     -0.1245
     64  CA        -6.8110   -2.3280  -46.0110 C.3   175  ILE175      0.1561
     65  C         -7.4490   -3.4000  -45.1440 C.2   175  ILE175      0.2260
     66  O         -8.5950   -3.8350  -45.4030 O.2   175  ILE175     -0.2867
     67  CB        -7.3080   -0.9600  -45.4770 C.3   175  ILE175      0.0252
     68  CG1       -7.0360    0.1610  -46.4820 C.3   175  ILE175      0.0019
     69  CG2       -6.6720   -0.6550  -44.1180 C.3   175  ILE175      0.0019
     70  CD1       -7.7260    1.4750  -46.1400 C.3   175  ILE175      0.0001
     71  N        -11.3830   -3.3370  -45.9640 N.3   191  TYR191     -0.1241
     72  CA       -11.6420   -2.4240  -47.0890 C.3   191  TYR191      0.1605
     73  C        -11.0730   -3.0380  -48.3800 C.2   191  TYR191      0.2264
     74  O         -9.8570   -3.3570  -48.4400 O.2   191  TYR191     -0.2867
     75  CB       -11.0210   -1.0330  -46.8370 C.3   191  TYR191      0.0534
     76  CG       -11.2550   -0.0760  -47.9730 C.ar  191  TYR191     -0.0201
     77  CD1      -10.4320   -0.0810  -49.1020 C.ar  191  TYR191     -0.0009
     78  CD2      -12.3260    0.7910  -47.9580 C.ar  191  TYR191     -0.0009
     79  CE1      -10.6750    0.7500  -50.1800 C.ar  191  TYR191      0.0417
     80  CE2      -12.5730    1.6330  -49.0410 C.ar  191  TYR191      0.0417
     81  CZ       -11.7460    1.6020  -50.1350 C.ar  191  TYR191      0.1957
     82  OH       -12.0030    2.4300  -51.1800 O.3   191  TYR191     -0.2866
     83  N        -15.6260   -0.3870  -47.1810 N.3   197  TRP197     -0.1241
     84  CA       -15.5840   -1.1140  -45.9070 C.3   197  TRP197      0.1605
     85  C        -16.6480   -2.1720  -45.8700 C.2   197  TRP197      0.2264
     86  O        -17.8370   -1.8730  -45.9420 O.2   197  TRP197     -0.2867
     87  CB       -15.6820   -0.1730  -44.7300 C.3   197  TRP197      0.0550
     88  CG       -14.4200    0.6410  -44.6120 C.ar  197  TRP197      0.0003
     89  CD1      -14.2020    1.9430  -45.0380 C.ar  197  TRP197      0.0946
     90  CD2      -13.1330    0.1920  -44.0690 C.ar  197  TRP197      0.0152
     91  NE1      -12.9090    2.3280  -44.7770 N.ar  197  TRP197     -0.2442
     92  CE2      -12.2190    1.3130  -44.1910 C.ar  197  TRP197      0.0810
     93  CE3      -12.6770   -0.9870  -43.4860 C.ar  197  TRP197      0.0012
     94  CZ2      -10.9010    1.2340  -43.7600 C.ar  197  TRP197      0.0191
     95  CZ3      -11.3400   -1.0520  -43.0520 C.ar  197  TRP197      0.0001
     96  CH2      -10.4830    0.0270  -43.1990 C.ar  197  TRP197      0.0015
@<TRIPOS>BOND
     1    62    56    1
     2    62    61    1
     3    56    57    1
     4    57    60    1
     5    57    58    1
     6    61    60    1
     7    40    39    2
     8    59    58    2
     9    82    81    1
    10    39    38    1
    11     4     3    2
    12    41    42    1
    13    41    38    1
    14    79    81   ar
    15    79    77   ar
    16    81    80   ar
    17    43    42    2
    18    42    44   am
    19     3     2    1
    20    38    37    1
    21     7     6    1
    22     5     2    1
    23     5     6    1
    24    77    76   ar
    25    80    78   ar
    26    19    17    1
    27     2     1    1
    28     6     8    1
    29    74    73    2
    30    73    72    1
    31    76    78   ar
    32    76    75    1
    33    17    18    1
    34    17    16    2
    35    63    64    1
    36    83    84    1
    37    72    75    1
    38    72    71    1
    39    36    35    1
    40    16    15    1
    41    35    34    1
    42    68    70    1
    43    68    67    1
    44    64    67    1
    45    64    65    1
    46    86    85    2
    47    84    85    1
    48    84    87    1
    49    67    69    1
    50    66    65    2
    51    15    14    1
    52    33    34    1
    53    33    30    1
    54    14    13    1
    55    89    91   ar
    56    89    88   ar
    57    91    92   ar
    58    87    88    1
    59    54    53    1
    60    88    90   ar
    61    31    32    2
    62    31    30    1
    63    92    90   ar
    64    92    94   ar
    65    30    29    1
    66    90    93   ar
    67     9    10    1
    68    27    26   ar
    69    28    26   ar
    70    13    10    1
    71    94    96   ar
    72    93    95   ar
    73    26    25    1
    74    46    47    1
    75    46    45    1
    76    10    11    1
    77    53    55    1
    78    53    50    1
    79    96    95   ar
    80    49    47   am
    81    49    50    1
    82    47    48    2
    83    50    51    1
    84    25    24    1
    85    11    12    2
    86    24    21    1
    87    51    52    2
    88    23    22    2
    89    22    21    1
    90    21    20    1
