@<TRIPOS>MOLECULE
tmp/4agtB01.pdb
 100 96 0 0 0
SMALL
GASTEIGER

@<TRIPOS>ATOM
      1  N          7.1280    7.3180  -41.1030 N.3    72  ARG72      -0.1245
      2  CA         6.2310    8.1420  -40.2780 C.3    72  ARG72       0.1563
      3  C          5.9710    7.4660  -38.9070 C.2    72  ARG72       0.2260
      4  O          5.6570    6.2660  -38.8390 O.2    72  ARG72      -0.2867
      5  CB         4.9070    8.3760  -41.0090 C.3    72  ARG72       0.0307
      6  CG         5.0280    9.0890  -42.3660 C.3    72  ARG72       0.0489
      7  CD         5.6030   10.4990  -42.2250 C.3    72  ARG72       0.2205
      8  NE         5.6740   11.2370  -43.4810 N.pl3  72  ARG72      -0.0865
      9  CZ         6.7240   11.2630  -44.3060 C.cat  72  ARG72       0.5346
     10  NH1        7.8410   10.5810  -44.0450 N.pl3  72  ARG72       0.1354
     11  NH2        6.6600   12.0020  -45.4100 N.pl3  72  ARG72       0.1354
     12  N          2.9880   13.4950  -35.3010 N.3    84  GLU84      -0.1245
     13  CA         3.7280   12.7710  -36.3090 C.3    84  GLU84       0.1567
     14  C          5.2090   13.1690  -36.3400 C.2    84  GLU84       0.2260
     15  O          5.5600   14.3410  -36.4300 O.2    84  GLU84      -0.2867
     16  CB         3.0480   13.0430  -37.6620 C.3    84  GLU84       0.0388
     17  CG         3.5810   12.3150  -38.8940 C.3    84  GLU84       0.1160
     18  CD         2.8940   12.7940  -40.1780 C.2    84  GLU84       0.3649
     19  OE1        2.6940   14.0250  -40.3380 O.co2  84  GLU84      -0.2457
     20  OE2        2.5330   11.9560  -41.0140 O.co2  84  GLU84      -0.2457
     21  N          8.3280   12.5970  -38.9130 N.3    86  ALA86      -0.1245
     22  CA         8.4780   12.1710  -40.3040 C.3    86  ALA86       0.1562
     23  C          9.9510   12.1520  -40.7270 C.2    86  ALA86       0.2260
     24  O         10.7170   13.0600  -40.3800 O.2    86  ALA86      -0.2867
     25  CB         7.6820   13.0820  -41.2260 C.3    86  ALA86       0.0290
     26  N         11.7130   15.4740  -39.2260 N.3    94  TYR94      -0.1241
     27  CA        10.9700   16.6930  -38.9580 C.3    94  TYR94       0.1605
     28  C          9.5950   16.4060  -38.4130 C.2    94  TYR94       0.2264
     29  O          9.0410   15.3380  -38.6160 O.2    94  TYR94      -0.2867
     30  CB        10.8460   17.5580  -40.2280 C.3    94  TYR94       0.0534
     31  CG        10.0460   16.9190  -41.3580 C.ar   94  TYR94      -0.0201
     32  CD1       10.6230   15.9610  -42.1810 C.ar   94  TYR94      -0.0009
     33  CD2        8.7100   17.2710  -41.5940 C.ar   94  TYR94      -0.0009
     34  CE1        9.9090   15.3710  -43.2150 C.ar   94  TYR94       0.0417
     35  CE2        7.9800   16.6770  -42.6260 C.ar   94  TYR94       0.0417
     36  CZ         8.5900   15.7150  -43.4370 C.ar   94  TYR94       0.1957
     37  OH         7.9120   15.0930  -44.4820 O.3    94  TYR94      -0.2866
     38  N          5.8690   16.3670  -38.6680 N.3    96  GLY96      -0.1210
     39  CA         4.9760   16.3810  -39.7960 C.3    96  GLY96       0.1956
     40  C          3.7580   17.2310  -39.5460 C.2    96  GLY96       0.2612
     41  O          3.4710   17.6270  -38.4090 O.2    96  GLY96      -0.2717
     42  N          3.0190   17.4410  -40.6280 N.am   97  GLY97      -0.1956
     43  CA         1.8410   18.2900  -40.6450 C.3    97  GLY97       0.1869
     44  C          0.6630   17.8140  -39.8230 C.2    97  GLY97       0.2309
     45  O         -0.2530   18.5740  -39.6090 O.2    97  GLY97      -0.2863
     46  N          0.8780    3.2360  -44.8490 N.3   115  PHE115     -0.1241
     47  CA         0.9400    3.7810  -46.2020 C.3   115  PHE115      0.1605
     48  C          0.1250    2.8240  -47.0710 C.2   115  PHE115      0.2264
     49  O          0.1700    1.6150  -46.8660 O.2   115  PHE115     -0.2867
     50  CB         2.3790    3.8250  -46.7210 C.3   115  PHE115      0.0534
     51  CG         3.1460    5.0540  -46.3180 C.ar  115  PHE115     -0.0203
     52  CD1        2.9310    6.2550  -46.9630 C.ar  115  PHE115     -0.0042
     53  CD2        4.1050    4.9990  -45.3140 C.ar  115  PHE115     -0.0042
     54  CE1        3.6430    7.3870  -46.6250 C.ar  115  PHE115     -0.0003
     55  CE2        4.8350    6.1220  -44.9680 C.ar  115  PHE115     -0.0003
     56  CZ         4.5910    7.3330  -45.6100 C.ar  115  PHE115     -0.0000
     57  N          2.3230    9.1250  -51.9100 N.3   122  LEU122     -0.1245
     58  CA         2.2650    9.0400  -50.4370 C.3   122  LEU122      0.1561
     59  C          0.8450    9.2590  -49.8680 C.2   122  LEU122      0.2260
     60  O          0.4080   10.3830  -49.6590 O.2   122  LEU122     -0.2867
     61  CB         3.2580   10.0010  -49.7900 C.3   122  LEU122      0.0270
     62  CG         4.6980    9.4890  -49.7600 C.3   122  LEU122      0.0019
     63  CD1        5.2810    9.3610  -51.1590 C.3   122  LEU122      0.0001
     64  CD2        5.5430   10.4140  -48.9090 C.3   122  LEU122      0.0001
     65  N         -1.7100    8.1550  -46.6840 N.3   124  LEU124     -0.1245
     66  CA        -1.6540    7.5870  -45.3460 C.3   124  LEU124      0.1561
     67  C         -3.0530    7.4130  -44.8350 C.2   124  LEU124      0.2260
     68  O         -3.9560    8.2000  -45.1620 O.2   124  LEU124     -0.2867
     69  CB        -0.8400    8.4610  -44.3930 C.3   124  LEU124      0.0270
     70  CG         0.6730    8.4590  -44.6480 C.3   124  LEU124      0.0019
     71  CD1        1.2540    9.7710  -44.1780 C.3   124  LEU124      0.0001
     72  CD2        1.3700    7.2980  -43.9390 C.3   124  LEU124      0.0001
     73  N         -4.4520   11.2190  -45.2250 N.3   140  TRP140     -0.1241
     74  CA        -3.6790   12.1570  -46.0190 C.3   140  TRP140      0.1605
     75  C         -3.5680   11.6360  -47.4370 C.2   140  TRP140      0.2264
     76  O         -3.0410   10.5520  -47.6700 O.2   140  TRP140     -0.2867
     77  CB        -2.3040   12.3190  -45.4190 C.3   140  TRP140      0.0550
     78  CG        -1.3290   13.0150  -46.3210 C.ar  140  TRP140      0.0003
     79  CD1       -0.5840   12.4630  -47.3580 C.ar  140  TRP140      0.0946
     80  CD2       -0.9480   14.4080  -46.2760 C.ar  140  TRP140      0.0152
     81  NE1        0.2180   13.4070  -47.9460 N.ar  140  TRP140     -0.2442
     82  CE2        0.0490   14.5990  -47.3390 C.ar  140  TRP140      0.0810
     83  CE3       -1.2990   15.4770  -45.4820 C.ar  140  TRP140      0.0012
     84  CZ2        0.6270   15.8190  -47.5860 C.ar  140  TRP140      0.0191
     85  CZ3       -0.7230   16.7160  -45.7480 C.ar  140  TRP140      0.0001
     86  CH2        0.2270   16.8790  -46.7790 C.ar  140  TRP140      0.0015
     87  N         -4.6180   16.8580  -44.1490 N.3   145  TRP145     -0.1241
     88  CA        -5.2050   15.8160  -43.3260 C.3   145  TRP145      0.1605
     89  C         -6.6750   16.0390  -43.1680 C.2   145  TRP145      0.2264
     90  O         -7.0810   17.1650  -42.9750 O.2   145  TRP145     -0.2867
     91  CB        -4.5490   15.8060  -41.9330 C.3   145  TRP145      0.0550
     92  CG        -3.2240   15.1100  -41.9330 C.ar  145  TRP145      0.0003
     93  CD1       -1.9710   15.6750  -42.1000 C.ar  145  TRP145      0.0946
     94  CD2       -2.9840   13.6740  -41.8340 C.ar  145  TRP145      0.0152
     95  NE1       -1.0000   14.7230  -42.0990 N.ar  145  TRP145     -0.2442
     96  CE2       -1.5410   13.4960  -41.9320 C.ar  145  TRP145      0.0810
     97  CE3       -3.7890   12.5640  -41.6830 C.ar  145  TRP145      0.0012
     98  CZ2       -0.9590   12.2560  -41.8710 C.ar  145  TRP145      0.0191
     99  CZ3       -3.1930   11.3220  -41.6230 C.ar  145  TRP145      0.0001
    100  CH2       -1.8080   11.1630  -41.7260 C.ar  145  TRP145      0.0015
@<TRIPOS>BOND
     1    57    58    1
     2    63    62    1
     3    58    59    1
     4    58    61    1
     5    59    60    2
     6    61    62    1
     7    62    64    1
     8    81    79   ar
     9    81    82   ar
    10    76    75    2
    11    84    82   ar
    12    84    86   ar
    13    75    74    1
    14    79    78   ar
    15    82    80   ar
    16    48    49    2
    17    48    47    1
    18    52    54   ar
    19    52    51   ar
    20    86    85   ar
    21    50    51    1
    22    50    47    1
    23    65    66    1
    24    54    56   ar
    25    78    80   ar
    26    78    77    1
    27    51    53   ar
    28    80    83   ar
    29    47    46    1
    30    74    77    1
    31    74    73    1
    32    85    83   ar
    33    56    55   ar
    34    11     9    1
    35    66    67    1
    36    66    69    1
    37    53    55   ar
    38    68    67    2
    39    70    69    1
    40    70    71    1
    41    70    72    1
    42    37    36    1
    43     9    10    1
    44     9     8    2
    45    87    88    1
    46     8     7    1
    47    36    34   ar
    48    36    35   ar
    49    88    89    1
    50    88    91    1
    51    34    32   ar
    52    89    90    2
    53    35    33   ar
    54     6     7    1
    55     6     5    1
    56    32    31   ar
    57    93    95   ar
    58    93    92   ar
    59    95    96   ar
    60    91    92    1
    61    92    94   ar
    62    96    98   ar
    63    96    94   ar
    64    98   100   ar
    65    94    97   ar
    66   100    99   ar
    67    97    99   ar
    68    33    31   ar
    69    31    30    1
    70    25    22    1
    71     1     2    1
    72    20    18   ar
    73     5     2    1
    74    23    24    2
    75    23    22    1
    76    43    42    1
    77    43    44    1
    78    42    40   am
    79    19    18   ar
    80    22    21    1
    81     2     3    1
    82    30    27    1
    83    18    17    1
    84    44    45    2
    85    39    40    1
    86    39    38    1
    87    40    41    2
    88    26    27    1
    89    27    28    1
    90     3     4    2
    91    17    16    1
    92    29    28    2
    93    16    13    1
    94    15    14    2
    95    14    13    1
    96    13    12    1
