@<TRIPOS>MOLECULE
tmp/4agwB00.pdb
 233 222 0 0 0
SMALL
GASTEIGER

@<TRIPOS>ATOM
      1  N          3.2360   49.0410  -38.3240 N.3    16  LEU16      -0.1245
      2  CA         3.3510   48.4600  -36.9950 C.3    16  LEU16       0.1561
      3  C          4.6520   48.8970  -36.3490 C.2    16  LEU16       0.2260
      4  O          4.7060   49.1510  -35.1460 O.2    16  LEU16      -0.2867
      5  CB         3.2860   46.9390  -37.0760 C.3    16  LEU16       0.0270
      6  CG         1.9350   46.3770  -37.5130 C.3    16  LEU16       0.0019
      7  CD1        2.0170   44.8720  -37.7320 C.3    16  LEU16       0.0001
      8  CD2        0.8820   46.7200  -36.4740 C.3    16  LEU16       0.0001
      9  N          7.6230   47.6670  -40.5310 N.3    24  VAL24      -0.1245
     10  CA         6.6960   46.5550  -40.4090 C.3    24  VAL24       0.1561
     11  C          5.2660   47.0580  -40.5350 C.2    24  VAL24       0.2260
     12  O          4.9210   48.1460  -40.0700 O.2    24  VAL24      -0.2867
     13  CB         6.8690   45.8120  -39.0680 C.3    24  VAL24       0.0252
     14  CG1        5.5760   45.1320  -38.6570 C.3    24  VAL24       0.0019
     15  CG2        7.9900   44.8000  -39.1650 C.3    24  VAL24       0.0019
     16  N          1.8750   39.7530  -41.4470 N.3    36  ALA36      -0.1245
     17  CA         2.9170   40.6660  -41.0510 C.3    36  ALA36       0.1562
     18  C          3.7500   40.8670  -42.2950 C.2    36  ALA36       0.2260
     19  O          4.1730   39.9040  -42.9380 O.2    36  ALA36      -0.2867
     20  CB         3.7470   40.0870  -39.9310 C.3    36  ALA36       0.0290
     21  N          7.1070   42.6950  -43.7640 N.3    38  LYS38      -0.1245
     22  CA         8.3360   43.3440  -43.3260 C.3    38  LYS38       0.1561
     23  C          9.0210   44.0770  -44.4640 C.2    38  LYS38       0.2260
     24  O          9.4090   43.4800  -45.4670 O.2    38  LYS38      -0.2867
     25  CB         9.3030   42.3330  -42.7200 C.3    38  LYS38       0.0271
     26  CG        10.2370   42.9390  -41.7040 C.3    38  LYS38       0.0035
     27  CD        11.4280   42.0270  -41.4720 C.3    38  LYS38       0.0206
     28  CE        12.2400   42.4810  -40.2770 C.3    38  LYS38       0.1093
     29  NZ        13.6530   42.0480  -40.4110 N.3    38  LYS38      -0.1314
     30  N         17.5150   36.6640  -43.3470 N.3    53  GLU53      -0.1245
     31  CA        16.6100   36.3070  -42.2640 C.3    53  GLU53       0.1567
     32  C         15.3320   35.6370  -42.7700 C.2    53  GLU53       0.2260
     33  O         14.7310   34.8280  -42.0670 O.2    53  GLU53      -0.2867
     34  CB        16.3000   37.5370  -41.4000 C.3    53  GLU53       0.0388
     35  CG        15.1830   37.3530  -40.3810 C.3    53  GLU53       0.1160
     36  CD        13.9320   38.1350  -40.7440 C.2    53  GLU53       0.3649
     37  OE1       14.0810   39.2250  -41.3290 O.co2  53  GLU53      -0.2457
     38  OE2       12.8090   37.6730  -40.4380 O.co2  53  GLU53      -0.2457
     39  N         16.3890   32.0600  -43.5110 N.3    56  VAL56      -0.1231
     40  CA        16.3630   31.2640  -42.2880 C.3    56  VAL56       0.1692
     41  C         14.9360   30.8210  -41.9900 C.2    56  VAL56       0.2591
     42  O         14.6930   29.7070  -41.5260 O.2    56  VAL56      -0.2718
     43  CB        16.8910   32.0600  -41.0730 C.3    56  VAL56       0.0266
     44  CG1       16.5570   31.3380  -39.7880 C.3    56  VAL56       0.0020
     45  CG2       18.3890   32.2670  -41.1690 C.3    56  VAL56       0.0020
     46  N         13.9840   31.6980  -42.2730 N.am   57  MET57      -0.1979
     47  CA        12.6030   31.4390  -41.9050 C.3    57  MET57       0.1605
     48  C         11.9300   30.4230  -42.8120 C.2    57  MET57       0.2287
     49  O         10.8510   29.9130  -42.4990 O.2    57  MET57      -0.2864
     50  CB        11.8180   32.7380  -41.8910 C.3    57  MET57       0.0413
     51  CG        12.2860   33.6910  -40.8280 C.3    57  MET57       0.0598
     52  SD        11.0650   34.9720  -40.6850 S.3    57  MET57      -0.1393
     53  CE         9.5930   33.9580  -40.8570 C.3    57  MET57       0.0692
     54  N         12.6630   27.0470  -41.4940 N.3    60  LEU60      -0.1245
     55  CA        12.0300   26.8980  -40.1840 C.3    60  LEU60       0.1561
     56  C         10.5060   26.9960  -40.1810 C.2    60  LEU60       0.2260
     57  O          9.9420   28.0400  -39.8590 O.2    60  LEU60      -0.2867
     58  CB        12.6230   27.9020  -39.1930 C.3    60  LEU60       0.0270
     59  CG        14.0810   27.6260  -38.8180 C.3    60  LEU60       0.0019
     60  CD1       14.6320   28.6700  -37.8450 C.3    60  LEU60       0.0001
     61  CD2       14.2200   26.2160  -38.2490 C.3    60  LEU60       0.0001
     62  N          6.5550   28.5690  -34.4730 N.3    65  LEU65      -0.1231
     63  CA         7.4330   29.5490  -35.0690 C.3    65  LEU65       0.1693
     64  C          6.6070   30.4540  -35.9620 C.2    65  LEU65       0.2591
     65  O          5.8620   29.9710  -36.8150 O.2    65  LEU65      -0.2718
     66  CB         8.4970   28.8620  -35.9010 C.3    65  LEU65       0.0284
     67  CG         9.8450   28.7380  -35.2150 C.3    65  LEU65       0.0019
     68  CD1        9.6910   28.0330  -33.8890 C.3    65  LEU65       0.0001
     69  CD2       10.8200   28.0220  -36.1290 C.3    65  LEU65       0.0001
     70  N          6.7140   31.7630  -35.7470 N.am   66  VAL66      -0.1980
     71  CA         6.2540   32.7100  -36.7420 C.3    66  VAL66       0.1595
     72  C          6.5840   32.0850  -38.0770 C.2    66  VAL66       0.2287
     73  O          7.7370   31.7480  -38.3440 O.2    66  VAL66      -0.2864
     74  CB         6.9920   34.0580  -36.6320 C.3    66  VAL66       0.0276
     75  CG1        6.8830   34.8290  -37.9290 C.3    66  VAL66       0.0022
     76  CG2        6.4120   34.8720  -35.5080 C.3    66  VAL66       0.0022
     77  N          9.3750   40.9620  -46.3120 N.3    79  ILE79      -0.1245
     78  CA         9.2290   39.6100  -45.7990 C.3    79  ILE79       0.1561
     79  C          7.8220   39.5180  -45.2550 C.2    79  ILE79       0.2260
     80  O          7.3670   40.4160  -44.5570 O.2    79  ILE79      -0.2867
     81  CB        10.2380   39.2960  -44.6850 C.3    79  ILE79       0.0252
     82  CG1       11.6570   39.2080  -45.2530 C.3    79  ILE79       0.0019
     83  CG2        9.8790   37.9920  -44.0040 C.3    79  ILE79       0.0019
     84  CD1       12.7290   38.9990  -44.1930 C.3    79  ILE79       0.0001
     85  N          4.7900   37.0730  -43.3000 N.3    81  THR81      -0.1203
     86  CA         4.7270   35.9900  -42.3490 C.3    81  THR81       0.1994
     87  C          3.3250   35.8970  -41.8130 C.2    81  THR81       0.2618
     88  O          2.5490   36.8480  -41.9300 O.2    81  THR81      -0.2717
     89  CB         5.6470   36.2840  -41.1690 C.3    81  THR81       0.1784
     90  OG1        5.1390   37.4190  -40.4610 O.3    81  THR81      -0.2211
     91  CG2        7.0430   36.6170  -41.6680 C.3    81  THR81       0.0376
     92  N          2.9890   34.7540  -41.2250 N.am   82  GLU82      -0.1965
     93  CA         1.7130   34.6550  -40.5520 C.3    82  GLU82       0.1733
     94  C          1.6500   35.8340  -39.6070 C.2    82  GLU82       0.2616
     95  O          2.6660   36.2690  -39.0720 O.2    82  GLU82      -0.2715
     96  CB         1.5870   33.3510  -39.7790 C.3    82  GLU82       0.0429
     97  CG         2.6590   33.1500  -38.7430 C.3    82  GLU82       0.1163
     98  CD         2.4180   31.9070  -37.9470 C.2    82  GLU82       0.3649
     99  OE1        1.2590   31.7080  -37.5250 O.co2  82  GLU82      -0.2457
    100  OE2        3.3740   31.1260  -37.7600 O.co2  82  GLU82      -0.2457
    101  N          0.4580   36.3790  -39.4330 N.am   83  TYR83      -0.1960
    102  CA         0.2790   37.4950  -38.5330 C.3    83  TYR83       0.1771
    103  C         -0.1910   36.9590  -37.1970 C.2    83  TYR83       0.2619
    104  O         -0.8770   35.9370  -37.1280 O.2    83  TYR83      -0.2715
    105  CB        -0.7460   38.4570  -39.1040 C.3    83  TYR83       0.0574
    106  CG        -1.0560   39.6220  -38.2090 C.ar   83  TYR83      -0.0198
    107  CD1       -0.1860   40.7020  -38.1180 C.ar   83  TYR83      -0.0009
    108  CD2       -2.2200   39.6510  -37.4560 C.ar   83  TYR83      -0.0009
    109  CE1       -0.4680   41.7810  -37.2950 C.ar   83  TYR83       0.0417
    110  CE2       -2.5120   40.7270  -36.6310 C.ar   83  TYR83       0.0417
    111  CZ        -1.6340   41.7890  -36.5560 C.ar   83  TYR83       0.1957
    112  OH        -1.9230   42.8590  -35.7400 O.3    83  TYR83      -0.2866
    113  N          0.1970   37.6380  -36.1320 N.am   84  MET84      -0.1963
    114  CA        -0.2040   37.2380  -34.8000 C.3    84  MET84       0.1736
    115  C         -0.9420   38.3920  -34.1770 C.2    84  MET84       0.2617
    116  O         -0.3670   39.4480  -33.9210 O.2    84  MET84      -0.2715
    117  CB         1.0180   36.8640  -33.9890 C.3    84  MET84       0.0427
    118  CG         1.8380   35.7930  -34.6740 C.3    84  MET84       0.0599
    119  SD         0.9510   34.2270  -34.7070 S.3    84  MET84      -0.1393
    120  CE         1.0530   33.7690  -32.9710 C.3    84  MET84       0.0692
    121  N         -2.2340   38.1860  -33.9580 N.am   85  SER85      -0.1936
    122  CA        -3.1190   39.2560  -33.5350 C.3    85  SER85       0.2055
    123  C         -2.6250   40.0450  -32.3240 C.2    85  SER85       0.2643
    124  O         -2.6760   41.2710  -32.3290 O.2    85  SER85      -0.2714
    125  CB        -4.5270   38.7020  -33.2800 C.3    85  SER85       0.2130
    126  OG        -4.4750   37.4310  -32.6600 O.3    85  SER85      -0.2179
    127  N         -2.1440   39.3500  -31.2980 N.am   86  LYS86      -0.1963
    128  CA        -1.8890   39.9760  -29.9990 C.3    86  LYS86       0.1728
    129  C         -0.5280   40.6790  -29.8660 C.2    86  LYS86       0.2616
    130  O         -0.1990   41.2600  -28.8200 O.2    86  LYS86      -0.2715
    131  CB        -2.0780   38.9520  -28.8740 C.3    86  LYS86       0.0311
    132  CG        -3.3850   38.1680  -28.9640 C.3    86  LYS86       0.0038
    133  CD        -4.6020   39.0900  -28.9570 C.3    86  LYS86       0.0206
    134  CE        -5.8900   38.3260  -28.6400 C.3    86  LYS86       0.1093
    135  NZ        -5.9090   37.7590  -27.2520 N.3    86  LYS86      -0.1314
    136  N          0.2600   40.6430  -30.9280 N.am   87  GLY87      -0.1955
    137  CA         1.5480   41.3070  -30.9040 C.3    87  GLY87       0.1869
    138  C          2.5510   40.5220  -30.0890 C.2    87  GLY87       0.2309
    139  O          2.4050   39.3220  -29.9090 O.2    87  GLY87      -0.2863
    140  N          4.4720   42.7600  -25.0360 N.3    91  ASP91      -0.1239
    141  CA         3.3780   43.7330  -25.0300 C.3    91  ASP91       0.1674
    142  C          2.1380   43.1230  -24.4040 C.2    91  ASP91       0.2266
    143  O          1.2920   43.8180  -23.8430 O.2    91  ASP91      -0.2867
    144  CB         3.0580   44.1650  -26.4560 C.3    91  ASP91       0.1410
    145  CG         4.1970   44.9180  -27.0930 C.2    91  ASP91       0.3668
    146  OD1        5.0180   45.5130  -26.3520 O.co2  91  ASP91      -0.2456
    147  OD2        4.2700   44.9030  -28.3370 O.co2  91  ASP91      -0.2456
    148  N         13.3920   24.4330  -33.1290 N.3   120  VAL120     -0.1245
    149  CA        14.6180   25.1610  -33.4390 C.3   120  VAL120      0.1561
    150  C         15.8430   24.3480  -33.0520 C.2   120  VAL120      0.2260
    151  O         16.8550   24.3290  -33.7520 O.2   120  VAL120     -0.2867
    152  CB        14.6320   26.5000  -32.6990 C.3   120  VAL120      0.0252
    153  CG1       16.0180   27.1560  -32.7650 C.3   120  VAL120      0.0019
    154  CG2       13.5780   27.4080  -33.2740 C.3   120  VAL120      0.0019
    155  N         19.4000   24.8000  -35.0070 N.3   125  TYR125     -0.1227
    156  CA        19.4130   26.2480  -35.1370 C.3   125  TYR125      0.1736
    157  C         19.5690   26.9040  -33.7860 C.2   125  TYR125      0.2595
    158  O         19.3890   26.2740  -32.7450 O.2   125  TYR125     -0.2718
    159  CB        18.1340   26.7620  -35.7830 C.3   125  TYR125      0.0548
    160  CG        18.1530   26.7340  -37.2810 C.ar  125  TYR125     -0.0200
    161  CD1       18.0710   25.5370  -37.9590 C.ar  125  TYR125     -0.0009
    162  CD2       18.2450   27.9010  -38.0200 C.ar  125  TYR125     -0.0009
    163  CE1       18.0810   25.4910  -39.3330 C.ar  125  TYR125      0.0417
    164  CE2       18.2520   27.8670  -39.3990 C.ar  125  TYR125      0.0417
    165  CZ        18.1700   26.6520  -40.0500 C.ar  125  TYR125      0.1957
    166  OH        18.1840   26.5770  -41.4230 O.3   125  TYR125     -0.2866
    167  N         19.9090   28.1840  -33.8200 N.am  126  VAL126     -0.1966
    168  CA        20.0230   28.9820  -32.6210 C.3   126  VAL126      0.1727
    169  C         19.1820   30.2380  -32.8140 C.2   126  VAL126      0.2616
    170  O         18.9790   30.7250  -33.9270 O.2   126  VAL126     -0.2715
    171  CB        21.4820   29.3620  -32.3430 C.3   126  VAL126      0.0290
    172  CG1       21.5630   30.3880  -31.2330 C.3   126  VAL126      0.0023
    173  CG2       22.3020   28.1330  -31.9860 C.3   126  VAL126      0.0023
    174  N         18.6540   30.7610  -31.7310 N.am  127  HIS127     -0.1959
    175  CA        17.8420   31.9380  -31.8750 C.3   127  HIS127      0.1787
    176  C         18.6500   33.1530  -31.5010 C.2   127  HIS127      0.2620
    177  O         18.7220   34.1030  -32.2730 O.2   127  HIS127     -0.2715
    178  CB        16.5850   31.8600  -31.0190 C.3   127  HIS127      0.0785
    179  CG        15.6720   33.0260  -31.2050 C.ar  127  HIS127      0.0821
    180  ND1       16.0460   34.3250  -30.9090 N.ar  127  HIS127     -0.2267
    181  CD2       14.4060   33.1040  -31.6760 C.ar  127  HIS127      0.1154
    182  CE1       15.0500   35.1390  -31.1750 C.ar  127  HIS127      0.1986
    183  NE2       14.0390   34.4240  -31.6420 N.ar  127  HIS127     -0.2212
    184  N         19.2390   33.1170  -30.3070 N.am  128  ARG128     -0.1977
    185  CA        20.1610   34.1620  -29.8440 C.3   128  ARG128      0.1597
    186  C         19.4690   35.3410  -29.2090 C.2   128  ARG128      0.2287
    187  O         20.1020   36.2190  -28.6500 O.2   128  ARG128     -0.2864
    188  CB        20.9890   34.7070  -30.9870 C.3   128  ARG128      0.0334
    189  CG        22.0170   33.7900  -31.5320 C.3   128  ARG128      0.0492
    190  CD        22.7880   34.6020  -32.5240 C.3   128  ARG128      0.2205
    191  NE        23.9080   33.8720  -32.9980 N.pl3 128  ARG128     -0.0865
    192  CZ        25.2010   34.1390  -32.9670 C.cat 128  ARG128      0.5346
    193  NH1       25.7540   35.2470  -32.4880 N.pl3 128  ARG128      0.1354
    194  NH2       25.9520   33.1920  -33.4850 N.pl3 128  ARG128      0.1354
    195  N          5.5680   36.0540  -30.1890 N.3   136  LEU136     -0.1245
    196  CA         4.3060   36.6310  -30.5950 C.3   136  LEU136      0.1561
    197  C          3.1560   35.8280  -30.0170 C.2   136  LEU136      0.2260
    198  O          3.2120   34.6020  -29.9330 O.2   136  LEU136     -0.2867
    199  CB         4.2220   36.6780  -32.1200 C.3   136  LEU136      0.0270
    200  CG         5.1200   37.7710  -32.6970 C.3   136  LEU136      0.0019
    201  CD1        5.4170   37.5180  -34.1570 C.3   136  LEU136      0.0001
    202  CD2        4.4940   39.1470  -32.4780 C.3   136  LEU136      0.0001
    203  N          7.6780   31.5100  -31.5590 N.3   145  VAL145     -0.1231
    204  CA         8.9650   32.1630  -31.5460 C.3   145  VAL145      0.1692
    205  C          9.0680   33.0220  -32.7910 C.2   145  VAL145      0.2592
    206  O          8.7980   32.5650  -33.9050 O.2   145  VAL145     -0.2718
    207  CB        10.1160   31.1530  -31.5480 C.3   145  VAL145      0.0266
    208  CG1       11.4370   31.8890  -31.4360 C.3   145  VAL145      0.0020
    209  CG2        9.9450   30.1580  -30.4120 C.3   145  VAL145      0.0020
    210  N          9.4390   34.2780  -32.5920 N.am  146  ALA146     -0.1966
    211  CA         9.6990   35.1950  -33.6940 C.3   146  ALA146      0.1728
    212  C         11.0500   35.8210  -33.4530 C.2   146  ALA146      0.2616
    213  O         11.6940   35.5430  -32.4440 O.2   146  ALA146     -0.2715
    214  CB         8.6460   36.2720  -33.7500 C.3   146  ALA146      0.0334
    215  N         11.4740   36.6790  -34.3690 N.am  147  ASP147     -0.1957
    216  CA        12.6800   37.4530  -34.1500 C.3   147  ASP147      0.1840
    217  C         12.5790   38.7930  -34.8470 C.2   147  ASP147      0.2622
    218  O         11.9300   38.9010  -35.8800 O.2   147  ASP147     -0.2715
    219  CB        13.9050   36.6960  -34.6390 C.3   147  ASP147      0.1450
    220  CG        15.2000   37.3970  -34.2780 C.2   147  ASP147      0.3671
    221  OD1       15.1900   38.2110  -33.3280 O.co2 147  ASP147     -0.2456
    222  OD2       16.2270   37.1320  -34.9470 O.co2 147  ASP147     -0.2456
    223  N         13.2230   39.8100  -34.2770 N.am  148  PHE148     -0.1974
    224  CA        13.2340   41.1440  -34.8680 C.3   148  PHE148      0.1639
    225  C         14.6450   41.7350  -34.8360 C.2   148  PHE148      0.2290
    226  O         14.8290   42.9320  -34.6100 O.2   148  PHE148     -0.2864
    227  CB        12.2260   42.0660  -34.1570 C.3   148  PHE148      0.0560
    228  CG        10.8600   41.4390  -33.9480 C.ar  148  PHE148     -0.0200
    229  CD1       10.0770   41.0630  -35.0310 C.ar  148  PHE148     -0.0042
    230  CD2       10.3640   41.2300  -32.6710 C.ar  148  PHE148     -0.0042
    231  CE1        8.8260   40.4790  -34.8440 C.ar  148  PHE148     -0.0003
    232  CE2        9.1210   40.6440  -32.4760 C.ar  148  PHE148     -0.0003
    233  CZ         8.3510   40.2680  -33.5670 C.ar  148  PHE148     -0.0000
@<TRIPOS>BOND
     1    77    78    1
     2    78    79    1
     3    78    81    1
     4    24    23    2
     5    79    80    2
     6    82    81    1
     7    82    84    1
     8    81    83    1
     9    23    22    1
    10    21    22    1
    11    39    40    1
    12    30    31    1
    13    22    25    1
    14    85    86    1
    15    19    18    2
    16    48    49    2
    17    48    47    1
    18    32    31    1
    19    32    33    2
    20    25    26    1
    21    86    87    1
    22    86    89    1
    23    18    17    1
    24    40    41    1
    25    40    43    1
    26    46    41   am
    27    46    47    1
    28    31    34    1
    29    41    42    2
    30    88    87    2
    31    47    50    1
    32    50    51    1
    33    87    92   am
    34    26    27    1
    35    91    89    1
    36    54    55    1
    37    27    28    1
    38    16    17    1
    39   166   165    1
    40    34    35    1
    41    37    36   ar
    42    92    93    1
    43    89    90    1
    44    45    43    1
    45    43    44    1
    46    17    20    1
    47    53    52    1
    48    51    52    1
    49    36    38   ar
    50    36    35    1
    51    93    96    1
    52    93    94    1
    53    11    10    1
    54    11    12    2
    55     9    10    1
    56    29    28    1
    57    10    13    1
    58    55    56    1
    59    55    58    1
    60    56    57    2
    61   165   164   ar
    62   165   163   ar
    63    96    97    1
    64    94   101   am
    65    94    95    2
    66   101   102    1
    67   164   162   ar
    68   163   161   ar
    69    58    59    1
    70    15    13    1
    71   105   102    1
    72   105   106    1
    73    13    14    1
    74    59    61    1
    75    59    60    1
    76    97    98    1
    77   102   103    1
    78    73    72    2
    79     1     2    1
    80   106   107   ar
    81   106   108   ar
    82   107   109   ar
    83    72    71    1
    84   162   160   ar
    85   161   160   ar
    86    98   100   ar
    87    98    99   ar
    88    75    74    1
    89     7     6    1
    90     6     5    1
    91     6     8    1
    92   108   110   ar
    93   109   111   ar
    94   160   159    1
    95   103   104    2
    96   103   113   am
    97     5     2    1
    98     2     3    1
    99    65    64    2
   100    71    74    1
   101    71    70    1
   102    74    76    1
   103   110   111   ar
   104   111   112    1
   105     3     4    2
   106   113   114    1
   107    69    67    1
   108    64    70   am
   109    64    63    1
   110    66    67    1
   111    66    63    1
   112   218   217    2
   113   159   156    1
   114    67    68    1
   115   156   155    1
   116   156   157    1
   117    63    62    1
   118   229   231   ar
   119   229   228   ar
   120   222   220   ar
   121   224   225    1
   122   224   223    1
   123   224   227    1
   124   217   223   am
   125   217   216    1
   126   231   233   ar
   127   225   226    2
   128   114   115    1
   129   114   117    1
   130   119   118    1
   131   119   120    1
   132   118   117    1
   133   219   220    1
   134   219   216    1
   135   215   216    1
   136   215   212   am
   137   220   221   ar
   138   115   121   am
   139   115   116    2
   140   201   200    1
   141   227   228    1
   142   121   122    1
   143   228   230   ar
   144   170   169    2
   145   206   205    2
   146   167   157   am
   147   167   168    1
   148   157   158    2
   149   151   150    2
   150   214   211    1
   151   211   212    1
   152   211   210    1
   153   233   232   ar
   154   122   125    1
   155   122   123    1
   156   194   192    1
   157   212   213    2
   158   149   148    1
   159   149   150    1
   160   149   152    1
   161   125   126    1
   162   154   152    1
   163   191   192    2
   164   191   190    1
   165   192   193    1
   166   169   168    1
   167   169   174   am
   168   205   210   am
   169   205   204    1
   170   153   152    1
   171   200   202    1
   172   200   199    1
   173   230   232   ar
   174   168   171    1
   175   190   189    1
   176   171   173    1
   177   171   172    1
   178   124   123    2
   179   123   127   am
   180   177   176    2
   181   199   196    1
   182   175   174    1
   183   175   176    1
   184   175   178    1
   185   181   183   ar
   186   181   179   ar
   187   183   182   ar
   188   203   204    1
   189   207   204    1
   190   207   208    1
   191   207   209    1
   192   189   188    1
   193   176   184   am
   194   127   128    1
   195   179   178    1
   196   179   180   ar
   197   182   180   ar
   198   188   185    1
   199   136   137    1
   200   136   129   am
   201   137   138    1
   202   196   195    1
   203   196   197    1
   204   184   185    1
   205   138   139    2
   206   197   198    2
   207   128   129    1
   208   128   131    1
   209   129   130    2
   210   185   186    1
   211   186   187    2
   212   132   133    1
   213   132   131    1
   214   133   134    1
   215   134   135    1
   216   147   145   ar
   217   145   144    1
   218   145   146   ar
   219   144   141    1
   220   140   141    1
   221   141   142    1
   222   142   143    2
