@<TRIPOS>MOLECULE
tmp/4ah3B00.pdb
 114 107 0 0 0
SMALL
GASTEIGER

@<TRIPOS>ATOM
      1  N         37.6080   34.9960   36.5490 N.3    55  LEU55      -0.1245
      2  CA        36.6100   34.0500   36.0990 C.3    55  LEU55       0.1561
      3  C         35.9630   34.5770   34.8110 C.2    55  LEU55       0.2260
      4  O         34.7830   35.0060   34.7860 O.2    55  LEU55      -0.2867
      5  CB        35.5970   33.7400   37.1970 C.3    55  LEU55       0.0270
      6  CG        34.8350   32.4340   36.9770 C.3    55  LEU55       0.0019
      7  CD1       35.7650   31.2580   36.6860 C.3    55  LEU55       0.0001
      8  CD2       34.0100   32.1540   38.2330 C.3    55  LEU55       0.0001
      9  N         25.0210   40.7390   39.9720 N.3   115  SER115     -0.1202
     10  CA        25.6900   39.5360   39.4870 C.3   115  SER115      0.2020
     11  C         25.0540   39.0940   38.1680 C.2   115  SER115      0.2619
     12  O         23.9380   39.4860   37.8520 O.2   115  SER115     -0.2717
     13  CB        25.5520   38.3940   40.4830 C.3   115  SER115      0.2103
     14  OG        24.1660   38.0130   40.6080 O.3   115  SER115     -0.2182
     15  N         25.7360   38.2310   37.4300 N.am  116  GLY116     -0.1942
     16  CA        25.1410   37.6240   36.2370 C.3   116  GLY116      0.2014
     17  C         23.9210   36.7830   36.5750 C.2   116  GLY116      0.2639
     18  O         22.9670   36.7250   35.7950 O.2   116  GLY116     -0.2714
     19  N         23.9400   36.1450   37.7520 N.am  117  SER117     -0.1949
     20  CA        22.8710   35.2690   38.1670 C.3   117  SER117      0.1924
     21  C         21.6230   36.0710   38.4630 C.2   117  SER117      0.2314
     22  O         20.5030   35.6970   38.0320 O.2   117  SER117     -0.2863
     23  CB        23.2770   34.4580   39.3900 C.3   117  SER117      0.2116
     24  OG        24.3150   33.5430   39.0510 O.3   117  SER117     -0.2180
     25  N         20.1170   37.1080   35.1490 N.3   120  VAL120     -0.1245
     26  CA        19.3160   36.0560   34.5480 C.3   120  VAL120      0.1561
     27  C         17.9520   35.9630   35.2320 C.2   120  VAL120      0.2260
     28  O         16.9420   35.8640   34.5280 O.2   120  VAL120     -0.2867
     29  CB        20.0610   34.6980   34.5720 C.3   120  VAL120      0.0252
     30  CG1       19.1680   33.5640   34.0790 C.3   120  VAL120      0.0019
     31  CG2       21.3070   34.7170   33.6930 C.3   120  VAL120      0.0019
     32  N         24.8770   27.4060   30.6470 N.3   149  TYR149     -0.1227
     33  CA        25.0570   27.8910   32.0000 C.3   149  TYR149      0.1736
     34  C         24.5440   29.3090   32.0920 C.2   149  TYR149      0.2595
     35  O         24.9300   30.1750   31.3180 O.2   149  TYR149     -0.2718
     36  CB        26.5490   27.8980   32.4090 C.3   149  TYR149      0.0548
     37  CG        26.7000   28.2550   33.8730 C.ar  149  TYR149     -0.0200
     38  CD1       26.4510   27.3080   34.8550 C.ar  149  TYR149     -0.0009
     39  CD2       27.0740   29.5380   34.2770 C.ar  149  TYR149     -0.0009
     40  CE1       26.5560   27.6220   36.2140 C.ar  149  TYR149      0.0417
     41  CE2       27.2000   29.8570   35.6270 C.ar  149  TYR149      0.0417
     42  CZ        26.9500   28.9020   36.5930 C.ar  149  TYR149      0.1957
     43  OH        27.0700   29.2260   37.9240 O.3   149  TYR149     -0.2866
     44  N         23.6190   29.5240   33.0360 N.am  150  HIS150     -0.1961
     45  CA        22.9460   30.8310   33.2080 C.3   150  HIS150      0.1787
     46  C         22.8940   31.2340   34.6510 C.2   150  HIS150      0.2621
     47  O         21.9940   31.9530   35.1090 O.2   150  HIS150     -0.2715
     48  CB        21.5540   30.8040   32.5730 C.3   150  HIS150      0.0785
     49  CG        21.6000   30.5160   31.0990 C.ar  150  HIS150      0.0821
     50  ND1       22.1400   31.3730   30.2400 N.ar  150  HIS150     -0.2267
     51  CD2       21.2480   29.3780   30.3650 C.ar  150  HIS150      0.1154
     52  CE1       22.0920   30.8440   28.9960 C.ar  150  HIS150      0.1986
     53  NE2       21.5830   29.6100   29.0890 N.ar  150  HIS150     -0.2212
     54  N         23.8830   30.7600   35.4020 N.am  151  GLY151     -0.1940
     55  CA        24.0700   31.2370   36.7580 C.3   151  GLY151      0.2014
     56  C         23.6160   30.2480   37.7940 C.2   151  GLY151      0.2639
     57  O         23.3070   29.0970   37.4960 O.2   151  GLY151     -0.2714
     58  N         23.5340   30.7590   39.0160 N.am  152  SER152     -0.1949
     59  CA        23.4040   29.9490   40.1910 C.3   152  SER152      0.1924
     60  C         22.2300   30.2660   41.0970 C.2   152  SER152      0.2314
     61  O         22.1130   29.6650   42.1550 O.2   152  SER152     -0.2863
     62  CB        24.6770   30.0100   41.0130 C.3   152  SER152      0.2116
     63  OG        24.6710   28.9200   41.8710 O.3   152  SER152     -0.2180
     64  N         23.8300   31.4270   25.5810 N.3   222  GLU222     -0.1245
     65  CA        25.1420   32.0220   25.4830 C.3   222  GLU222      0.1567
     66  C         25.5790   31.9850   24.0120 C.2   222  GLU222      0.2260
     67  O         25.4750   30.9500   23.3680 O.2   222  GLU222     -0.2867
     68  CB        26.0890   31.1780   26.3130 C.3   222  GLU222      0.0388
     69  CG        25.7980   31.0930   27.7850 C.3   222  GLU222      0.1160
     70  CD        26.5160   29.8880   28.3450 C.2   222  GLU222      0.3649
     71  OE1       25.9960   28.7750   28.2590 O.co2 222  GLU222     -0.2457
     72  OE2       27.6640   30.1220   28.7790 O.co2 222  GLU222     -0.2457
     73  N         30.9890   28.0590   30.4290 N.3   227  ALA227     -0.1245
     74  CA        31.1740   26.9830   31.4040 C.3   227  ALA227      0.1562
     75  C         31.0600   25.5550   30.8560 C.2   227  ALA227      0.2260
     76  O         31.6260   24.6590   31.4530 O.2   227  ALA227     -0.2867
     77  CB        30.2250   27.1800   32.5910 C.3   227  ALA227      0.0290
     78  N         22.7430   35.4480   26.4930 N.3   255  ASP255     -0.1239
     79  CA        23.3910   35.5730   27.7670 C.3   255  ASP255      0.1674
     80  C         24.8390   35.9670   27.4950 C.2   255  ASP255      0.2266
     81  O         25.6890   35.1470   27.1030 O.2   255  ASP255     -0.2867
     82  CB        23.3030   34.3190   28.6030 C.3   255  ASP255      0.1410
     83  CG        23.8750   34.5040   29.9980 C.2   255  ASP255      0.3668
     84  OD1       24.5510   35.5330   30.2700 O.co2 255  ASP255     -0.2456
     85  OD2       23.6380   33.6160   30.8330 O.co2 255  ASP255     -0.2456
     86  N         27.0420   37.2250   29.5910 N.3   257  VAL257     -0.1231
     87  CA        27.8030   37.4350   30.8340 C.3   257  VAL257      0.1692
     88  C         29.2750   37.1410   30.5410 C.2   257  VAL257      0.2591
     89  O         30.1340   37.9320   30.9680 O.2   257  VAL257     -0.2718
     90  CB        27.2370   36.6790   32.0350 C.3   257  VAL257      0.0266
     91  CG1       28.1930   36.7750   33.1990 C.3   257  VAL257      0.0020
     92  CG2       25.8990   37.3030   32.4430 C.3   257  VAL257      0.0020
     93  N         29.5710   36.0690   29.7960 N.am  258  ILE258     -0.1980
     94  CA        30.9840   35.8470   29.3910 C.3   258  ILE258      0.1595
     95  C         31.3940   36.6040   28.1200 C.2   258  ILE258      0.2287
     96  O         32.4580   37.2790   28.0630 O.2   258  ILE258     -0.2864
     97  CB        31.3480   34.3500   29.2400 C.3   258  ILE258      0.0276
     98  CG1       31.4400   33.7190   30.6230 C.3   258  ILE258      0.0022
     99  CG2       32.6610   34.1960   28.4740 C.3   258  ILE258      0.0022
    100  CD1       31.7560   32.2450   30.6520 C.3   258  ILE258      0.0001
    101  N         27.4420   40.9110   32.9580 N.3   283  ALA283     -0.1231
    102  CA        28.1290   41.0960   34.2440 C.3   283  ALA283      0.1694
    103  C         29.6000   40.9190   33.9200 C.2   283  ALA283      0.2592
    104  O         30.0670   41.3910   32.8750 O.2   283  ALA283     -0.2718
    105  CB        27.6550   40.0880   35.2690 C.3   283  ALA283      0.0304
    106  N         30.3320   40.2220   34.7880 N.am  284  LYS284     -0.1976
    107  CA        31.7400   39.8700   34.4940 C.3   284  LYS284      0.1639
    108  C         32.5370   41.0750   33.9660 C.2   284  LYS284      0.2290
    109  O         32.8790   41.9920   34.7250 O.2   284  LYS284     -0.2864
    110  CB        31.7530   38.5840   33.6120 C.3   284  LYS284      0.0554
    111  CG        31.5770   37.3110   34.4550 C.2   284  LYS284     -0.0270
    112  CD        31.6630   35.9290   33.7640 C.2   284  LYS284     -0.0102
    113  CE        31.3760   34.7090   34.6870 C.3   284  LYS284      0.1350
    114  NZ        30.2360   33.8430   34.3060 N.3   284  LYS284     -0.1262
@<TRIPOS>BOND
     1    67    66    2
     2    66    65    1
     3    65    64    1
     4    65    68    1
     5    68    69    1
     6    78    79    1
     7    81    80    2
     8    80    79    1
     9    79    82    1
    10    69    70    1
    11    96    95    2
    12    95    94    1
    13    71    70   ar
    14    70    72   ar
    15    99    97    1
    16    82    83    1
    17    52    53   ar
    18    52    50   ar
    19    53    51   ar
    20    97    94    1
    21    97    98    1
    22    94    93    1
    23    86    87    1
    24    93    88   am
    25    83    84   ar
    26    83    85   ar
    27    50    49   ar
    28    51    49   ar
    29    73    74    1
    30    88    87    1
    31    88    89    2
    32    98   100    1
    33    32    33    1
    34    87    90    1
    35    75    74    1
    36    75    76    2
    37    49    48    1
    38    35    34    2
    39    74    77    1
    40    33    34    1
    41    33    36    1
    42    90    92    1
    43    90    91    1
    44    34    44   am
    45    36    37    1
    46    48    45    1
    47   104   103    2
    48   101   102    1
    49    44    45    1
    50    45    46    1
    51   110   111    1
    52   110   107    1
    53    31    29    1
    54   112   111    2
    55   112   113    1
    56    37    39   ar
    57    37    38   ar
    58   103   102    1
    59   103   106   am
    60   108   107    1
    61   108   109    2
    62    30    29    1
    63   102   105    1
    64    39    41   ar
    65   114   113    1
    66   107   106    1
    67    28    27    2
    68    26    29    1
    69    26    25    1
    70    26    27    1
    71    46    47    2
    72    46    54   am
    73     4     3    2
    74     3     2    1
    75    38    40   ar
    76    54    55    1
    77    41    42   ar
    78    18    17    2
    79     2     1    1
    80     2     5    1
    81    40    42   ar
    82    16    17    1
    83    16    15    1
    84    17    19   am
    85    42    43    1
    86     7     6    1
    87    55    56    1
    88     6     5    1
    89     6     8    1
    90    15    11   am
    91    57    56    2
    92    19    20    1
    93    56    58   am
    94    12    11    2
    95    22    21    2
    96    20    21    1
    97    20    23    1
    98    11    10    1
    99    58    59    1
   100    24    23    1
   101    10     9    1
   102    10    13    1
   103    59    62    1
   104    59    60    1
   105    13    14    1
   106    62    63    1
   107    60    61    2
