@<TRIPOS>MOLECULE
tmp/4ah4A03.pdb
 168 161 0 0 0
SMALL
GASTEIGER

@<TRIPOS>ATOM
      1  N          4.5010   -1.6570  -12.6480 N.3   165  PHE165     -0.1241
      2  CA         4.7620   -0.6940  -13.6950 C.3   165  PHE165      0.1605
      3  C          5.0350   -1.4800  -14.9820 C.2   165  PHE165      0.2264
      4  O          5.2790   -2.6890  -14.9540 O.2   165  PHE165     -0.2867
      5  CB         5.9540    0.2040  -13.3580 C.3   165  PHE165      0.0534
      6  CG         7.1700   -0.5340  -12.9470 C.ar  165  PHE165     -0.0203
      7  CD1        8.0930   -0.9570  -13.8820 C.ar  165  PHE165     -0.0042
      8  CD2        7.3990   -0.8120  -11.5910 C.ar  165  PHE165     -0.0042
      9  CE1        9.2290   -1.6610  -13.4600 C.ar  165  PHE165     -0.0003
     10  CE2        8.5280   -1.4780  -11.1810 C.ar  165  PHE165     -0.0003
     11  CZ         9.4440   -1.8900  -12.1230 C.ar  165  PHE165     -0.0000
     12  N          7.5240   -1.0660  -18.3010 N.3   167  TYR167     -0.1241
     13  CA         8.5180   -0.3790  -19.0860 C.3   167  TYR167      0.1605
     14  C          7.9930   -0.2320  -20.5080 C.2   167  TYR167      0.2264
     15  O          7.3120   -1.1240  -21.0450 O.2   167  TYR167     -0.2867
     16  CB         9.7970   -1.1850  -19.1380 C.3   167  TYR167      0.0534
     17  CG        10.5590   -1.4450  -17.8670 C.ar  167  TYR167     -0.0201
     18  CD1       11.1680   -0.4180  -17.1780 C.ar  167  TYR167     -0.0009
     19  CD2       10.7930   -2.7430  -17.4250 C.ar  167  TYR167     -0.0009
     20  CE1       11.9360   -0.6710  -16.0460 C.ar  167  TYR167      0.0417
     21  CE2       11.5780   -3.0070  -16.3070 C.ar  167  TYR167      0.0417
     22  CZ        12.1310   -1.9740  -15.6070 C.ar  167  TYR167      0.1957
     23  OH        12.9480   -2.2180  -14.5080 O.3   167  TYR167     -0.2866
     24  N          8.9720   -2.9310  -22.8810 N.3   170  TYR170     -0.1241
     25  CA         8.5510   -4.2960  -22.5540 C.3   170  TYR170      0.1605
     26  C          7.1510   -4.5830  -23.0670 C.2   170  TYR170      0.2264
     27  O          6.3440   -3.6800  -23.3120 O.2   170  TYR170     -0.2867
     28  CB         8.6120   -4.5160  -21.0430 C.3   170  TYR170      0.0534
     29  CG         9.9530   -4.8210  -20.4220 C.ar  170  TYR170     -0.0201
     30  CD1       11.1060   -4.1680  -20.8140 C.ar  170  TYR170     -0.0009
     31  CD2       10.0370   -5.7100  -19.3310 C.ar  170  TYR170     -0.0009
     32  CE1       12.3110   -4.4300  -20.1920 C.ar  170  TYR170      0.0417
     33  CE2       11.2260   -5.9930  -18.7260 C.ar  170  TYR170      0.0417
     34  CZ        12.3570   -5.3370  -19.1380 C.ar  170  TYR170      0.1957
     35  OH        13.5620   -5.5700  -18.5340 O.3   170  TYR170     -0.2866
     36  N          7.0420   -5.2630   -8.2780 N.3   176  ARG176     -0.1245
     37  CA         8.0070   -5.2540   -7.2150 C.3   176  ARG176      0.1563
     38  C          7.2550   -5.2730   -5.8910 C.2   176  ARG176      0.2260
     39  O          6.2610   -4.5350   -5.7530 O.2   176  ARG176     -0.2867
     40  CB         8.9170   -4.0370   -7.2760 C.3   176  ARG176      0.0307
     41  CG         9.6860   -3.7990   -8.5710 C.3   176  ARG176      0.0489
     42  CD        10.8730   -4.7440   -8.6840 C.3   176  ARG176      0.2205
     43  NE        11.6270   -4.6010   -9.9230 N.pl3 176  ARG176     -0.0865
     44  CZ        11.3240   -5.1190  -11.1080 C.cat 176  ARG176      0.5346
     45  NH1       10.2270   -5.8270  -11.3190 N.pl3 176  ARG176      0.1354
     46  NH2       12.1240   -4.8770  -12.1390 N.pl3 176  ARG176      0.1354
     47  N         13.4090   -6.4630   -1.0140 N.3   188  GLN188     -0.1245
     48  CA        12.6270   -6.4250   -2.2440 C.3   188  GLN188      0.1566
     49  C         12.6770   -7.7830   -2.8850 C.2   188  GLN188      0.2260
     50  O         13.7330   -8.4320   -2.8790 O.2   188  GLN188     -0.2867
     51  CB        13.2670   -5.4170   -3.2430 C.3   188  GLN188      0.0367
     52  CG        12.5390   -5.2610   -4.6080 C.3   188  GLN188      0.0905
     53  CD        13.4670   -4.7340   -5.7050 C.2   188  GLN188      0.2608
     54  OE1       13.4740   -3.5210   -6.0250 O.2   188  GLN188     -0.2717
     55  NE2       14.3020   -5.6440   -6.2600 N.am  188  GLN188     -0.0878
     56  N         11.2810   -9.2130   -6.9070 N.3   190  ALA190     -0.1245
     57  CA        11.0570   -8.5920   -8.1980 C.3   190  ALA190      0.1562
     58  C         10.6400   -9.5810   -9.2160 C.2   190  ALA190      0.2260
     59  O         11.1900  -10.6750   -9.2780 O.2   190  ALA190     -0.2867
     60  CB        12.3310   -7.9070   -8.6880 C.3   190  ALA190      0.0290
     61  N          9.9150   -9.6700  -13.4530 N.3   192  ASP192     -0.1239
     62  CA         9.9270   -9.1510  -14.8180 C.3   192  ASP192      0.1674
     63  C          9.4770  -10.2780  -15.7620 C.2   192  ASP192      0.2266
     64  O          9.6380  -11.4810  -15.4320 O.2   192  ASP192     -0.2867
     65  CB        11.3230   -8.6610  -15.2350 C.3   192  ASP192      0.1410
     66  CG        11.7050   -7.3210  -14.6550 C.2   192  ASP192      0.3668
     67  OD1       10.7930   -6.5000  -14.3170 O.co2 192  ASP192     -0.2456
     68  OD2       12.9500   -7.0350  -14.5850 O.co2 192  ASP192     -0.2456
     69  N         10.6990  -11.5440  -18.4240 N.3   194  HIS194     -0.1226
     70  CA        11.7310  -12.4660  -18.9340 C.3   194  HIS194      0.1752
     71  C         12.4050  -13.2960  -17.9130 C.2   194  HIS194      0.2595
     72  O         12.9230  -14.3700  -18.2150 O.2   194  HIS194     -0.2718
     73  CB        12.8110  -11.7310  -19.7390 C.3   194  HIS194      0.0759
     74  CG        13.5180  -10.6530  -18.9880 C.ar  194  HIS194      0.0818
     75  ND1       12.8970   -9.8580  -18.1120 N.ar  194  HIS194     -0.2268
     76  CD2       14.8470  -10.2280  -19.0350 C.ar  194  HIS194      0.1154
     77  CE1       13.7730   -8.9780  -17.6250 C.ar  194  HIS194      0.1986
     78  NE2       14.9720   -9.2200  -18.1800 N.ar  194  HIS194     -0.2212
     79  N         12.4490  -12.8070  -16.6830 N.am  195  LYS195     -0.1980
     80  CA        13.1420  -13.5170  -15.5880 C.3   195  LYS195      0.1596
     81  C         12.1750  -14.1400  -14.6300 C.2   195  LYS195      0.2287
     82  O         12.5820  -14.9410  -13.7740 O.2   195  LYS195     -0.2864
     83  CB        14.0660  -12.5820  -14.7950 C.3   195  LYS195      0.0298
     84  CG        15.0380  -11.7140  -15.5710 C.3   195  LYS195      0.0038
     85  CD        16.4530  -12.2470  -15.6360 C.3   195  LYS195      0.0206
     86  CE        17.3900  -11.3240  -16.3940 C.3   195  LYS195      0.1093
     87  NZ        18.3010  -10.5140  -15.5430 N.3   195  LYS195     -0.1314
     88  N         12.8010  -12.9450   -9.7340 N.3   198  TYR198     -0.1241
     89  CA        14.2260  -13.0500   -9.5420 C.3   198  TYR198      0.1605
     90  C         14.4940  -13.9230   -8.3110 C.2   198  TYR198      0.2264
     91  O         13.7960  -13.7870   -7.2960 O.2   198  TYR198     -0.2867
     92  CB        14.8880  -11.6880   -9.3290 C.3   198  TYR198      0.0534
     93  CG        14.9390  -10.7100  -10.5390 C.ar  198  TYR198     -0.0201
     94  CD1       13.7900  -10.2610  -11.1660 C.ar  198  TYR198     -0.0009
     95  CD2       16.1440  -10.2340  -11.0070 C.ar  198  TYR198     -0.0009
     96  CE1       13.8480   -9.3840  -12.2340 C.ar  198  TYR198      0.0417
     97  CE2       16.2110   -9.3220  -12.0610 C.ar  198  TYR198      0.0417
     98  CZ        15.0680   -8.9050  -12.6710 C.ar  198  TYR198      0.1957
     99  OH        15.1470   -8.0220  -13.7430 O.3   198  TYR198     -0.2866
    100  N         16.7250   -8.5740   -2.4480 N.3   202  VAL202     -0.1245
    101  CA        17.5960   -7.4070   -2.4340 C.3   202  VAL202      0.1561
    102  C         17.2780   -6.6180   -1.1640 C.2   202  VAL202      0.2260
    103  O         16.1280   -6.2110   -0.9510 O.2   202  VAL202     -0.2867
    104  CB        17.3870   -6.5020   -3.6870 C.3   202  VAL202      0.0252
    105  CG1       17.9900   -5.1310   -3.5020 C.3   202  VAL202      0.0019
    106  CG2       17.9680   -7.1750   -4.9180 C.3   202  VAL202      0.0019
    107  N         13.3190    0.6180  -20.1190 N.3   224  SER224     -0.1217
    108  CA        14.1290   -0.0660  -19.1230 C.3   224  SER224      0.1889
    109  C         14.4530    0.8560  -17.9110 C.2   224  SER224      0.2288
    110  O         15.5000    0.7270  -17.2600 O.2   224  SER224     -0.2866
    111  CB        15.3770   -0.6650  -19.7840 C.3   224  SER224      0.2089
    112  OG        14.9750   -1.7230  -20.6130 O.3   224  SER224     -0.2183
    113  N         12.7230    3.1350  -14.4210 N.3   226  ILE226     -0.1245
    114  CA        11.6660    3.3070  -13.4300 C.3   226  ILE226      0.1561
    115  C         12.2080    4.1370  -12.2760 C.2   226  ILE226      0.2260
    116  O         13.4100    4.2470  -12.0780 O.2   226  ILE226     -0.2867
    117  CB        11.0710    1.9270  -13.0260 C.3   226  ILE226      0.0252
    118  CG1        9.7090    2.0650  -12.3510 C.3   226  ILE226      0.0019
    119  CG2       12.0270    1.1510  -12.1430 C.3   226  ILE226      0.0019
    120  CD1        8.6000    2.7000  -13.1850 C.3   226  ILE226      0.0001
    121  N         11.1520    4.5460   -8.0510 N.3   228  MET228     -0.1196
    122  CA        10.3690    3.9140   -6.9950 C.3   228  MET228      0.1786
    123  C         10.6430    4.5990   -5.6720 C.2   228  MET228      0.2306
    124  O         11.7270    5.1240   -5.4130 O.2   228  MET228     -0.2863
    125  CB        10.6280    2.4180   -6.9360 C.2   228  MET228      0.0070
    126  CG        10.4990    1.6220   -8.2430 C.2   228  MET228      0.0282
    127  SD        10.7050   -0.1410   -8.1150 S.3   228  MET228     -0.1125
    128  CE        12.4340   -0.1340   -7.5710 C.3   228  MET228      0.0742
    129  N         14.7470    4.5550   -5.1510 N.3   243  TRP243     -0.1241
    130  CA        15.2790    4.0140   -6.4070 C.3   243  TRP243      0.1605
    131  C         15.1220    5.0760   -7.4770 C.2   243  TRP243      0.2264
    132  O         14.0040    5.5410   -7.7610 O.2   243  TRP243     -0.2867
    133  CB        14.5340    2.7320   -6.8330 C.3   243  TRP243      0.0550
    134  CG        15.0310    2.2310   -8.1800 C.ar  243  TRP243      0.0003
    135  CD1       14.6860    2.7190   -9.4450 C.ar  243  TRP243      0.0946
    136  CD2       16.0000    1.1680   -8.4320 C.ar  243  TRP243      0.0152
    137  NE1       15.3630    2.0450  -10.4260 N.ar  243  TRP243     -0.2442
    138  CE2       16.1660    1.0970   -9.8870 C.ar  243  TRP243      0.0810
    139  CE3       16.7090    0.3030   -7.6340 C.ar  243  TRP243      0.0012
    140  CZ2       17.0050    0.1810  -10.4850 C.ar  243  TRP243      0.0191
    141  CZ3       17.5960   -0.5980   -8.2510 C.ar  243  TRP243      0.0001
    142  CH2       17.7460   -0.6430   -9.6430 C.ar  243  TRP243      0.0015
    143  N         16.3760    5.8180  -11.5720 N.3   245  HIS245     -0.1241
    144  CA        16.9610    5.2260  -12.7700 C.3   245  HIS245      0.1621
    145  C         18.3490    5.7610  -12.9470 C.2   245  HIS245      0.2264
    146  O         18.5820    6.9640  -12.7600 O.2   245  HIS245     -0.2867
    147  CB        16.1280    5.4680  -14.0460 C.3   245  HIS245      0.0745
    148  CG        16.7570    4.8620  -15.2760 C.ar  245  HIS245      0.0817
    149  ND1       16.9180    3.5260  -15.4330 N.ar  245  HIS245     -0.2268
    150  CD2       17.3650    5.4600  -16.3730 C.ar  245  HIS245      0.1154
    151  CE1       17.5610    3.2910  -16.5880 C.ar  245  HIS245      0.1986
    152  NE2       17.8210    4.4630  -17.1690 N.ar  245  HIS245     -0.2212
    153  N         20.0330    3.4080   -9.0200 N.3   248  GLY248     -0.1210
    154  CA        19.6030    2.2630   -8.2000 C.3   248  GLY248      0.1956
    155  C         19.1060    2.7290   -6.8510 C.2   248  GLY248      0.2611
    156  O         18.6260    3.8610   -6.7340 O.2   248  GLY248     -0.2717
    157  N         19.2850    1.8820   -5.8360 N.am  249  TYR249     -0.1976
    158  CA        18.8610    2.1740   -4.4520 C.3   249  TYR249      0.1639
    159  C         19.9930    2.9490   -3.8190 C.2   249  TYR249      0.2290
    160  O         20.8710    2.3500   -3.2320 O.2   249  TYR249     -0.2864
    161  CB        18.6090    0.8910   -3.6680 C.3   249  TYR249      0.0560
    162  CG        17.2490    0.2830   -3.9000 C.ar  249  TYR249     -0.0198
    163  CD1       16.0840    0.9680   -3.5620 C.ar  249  TYR249     -0.0009
    164  CD2       17.1250   -0.9950   -4.3930 C.ar  249  TYR249     -0.0009
    165  CE1       14.8290    0.3710   -3.7720 C.ar  249  TYR249      0.0417
    166  CE2       15.9070   -1.5690   -4.5930 C.ar  249  TYR249      0.0417
    167  CZ        14.7530   -0.8750   -4.2910 C.ar  249  TYR249      0.1957
    168  OH        13.5330   -1.5280   -4.5070 O.3   249  TYR249     -0.2866
@<TRIPOS>BOND
     1    27    26    2
     2    26    25    1
     3    24    25    1
     4    25    28    1
     5    15    14    2
     6    28    29    1
     7    30    29   ar
     8    30    32   ar
     9   112   111    1
    10    14    13    1
    11    29    31   ar
    12    32    34   ar
    13   107   108    1
    14   111   108    1
    15    73    74    1
    16    73    70    1
    17    31    33   ar
    18    16    13    1
    19    16    17    1
    20    34    33   ar
    21    34    35    1
    22   108   109    1
    23    13    12    1
    24    76    74   ar
    25    76    78   ar
    26    74    75   ar
    27    70    69    1
    28    70    71    1
    29    72    71    2
    30    78    77   ar
    31    75    77   ar
    32    71    79   am
    33   109   110    2
    34    17    19   ar
    35    17    18   ar
    36    19    21   ar
    37    18    20   ar
    38   152   151   ar
    39   152   150   ar
    40    79    80    1
    41   151   149   ar
    42    86    85    1
    43    86    87    1
    44   150   148   ar
    45    21    22   ar
    46    20    22   ar
    47    63    64    2
    48    63    62    1
    49    85    84    1
    50    22    23    1
    51    80    83    1
    52    80    81    1
    53    84    83    1
    54   149   148   ar
    55   148   147    1
    56    65    62    1
    57    65    66    1
    58     3     4    2
    59     3     2    1
    60    62    61    1
    61    66    68   ar
    62    66    67   ar
    63    81    82    2
    64   113   114    1
    65   147   144    1
    66     7     9   ar
    67     7     6   ar
    68    99    98    1
    69     2     5    1
    70     2     1    1
    71     9    11   ar
    72   114   117    1
    73   114   115    1
    74     5     6    1
    75   120   118    1
    76   117   118    1
    77   117   119    1
    78     6     8   ar
    79   145   144    1
    80   145   146    2
    81   144   143    1
    82    98    96   ar
    83    98    97   ar
    84   115   116    2
    85    96    94   ar
    86    46    44    1
    87    11    10   ar
    88    97    95   ar
    89     8    10   ar
    90    45    44    1
    91    94    93   ar
    92    44    43    2
    93    95    93   ar
    94    93    92    1
    95   140   138   ar
    96   140   142   ar
    97   137   138   ar
    98   137   135   ar
    99    43    42    1
   100   138   136   ar
   101    88    89    1
   102   142   141   ar
   103    89    92    1
   104    89    90    1
   105   135   134   ar
   106    59    58    2
   107    58    57    1
   108   153   154    1
   109    60    57    1
   110    42    41    1
   111    41    40    1
   112   136   134   ar
   113   136   139   ar
   114    90    91    2
   115    36    37    1
   116   141   139   ar
   117   126   127    1
   118   126   125    2
   119   154   155    1
   120    57    56    1
   121   134   133    1
   122   127   128    1
   123   121   122    1
   124   132   131    2
   125   131   130    1
   126    40    37    1
   127    37    38    1
   128   122   125    1
   129   122   123    1
   130   155   156    2
   131   155   157   am
   132   133   130    1
   133   130   129    1
   134    55    53   am
   135    54    53    2
   136    38    39    2
   137   157   158    1
   138    53    52    1
   139   123   124    2
   140   106   104    1
   141    52    51    1
   142   166   164   ar
   143   166   167   ar
   144   168   167    1
   145   158   159    1
   146   158   161    1
   147   164   162   ar
   148   167   165   ar
   149   162   161    1
   150   162   163   ar
   151   159   160    2
   152   165   163   ar
   153   104   105    1
   154   104   101    1
   155    51    48    1
   156    49    50    2
   157    49    48    1
   158   100   101    1
   159   101   102    1
   160    48    47    1
   161   102   103    2
