@<TRIPOS>MOLECULE
tmp/4ah4A00.pdb
 112 103 0 0 0
SMALL
GASTEIGER

@<TRIPOS>ATOM
      1  N         -8.8490    9.0620   -3.0720 N.3    24  ARG24      -0.1245
      2  CA        -9.6580    8.3090   -2.1380 C.3    24  ARG24       0.1563
      3  C         -8.7420    7.6740   -1.0910 C.2    24  ARG24       0.2260
      4  O         -7.6670    7.1490   -1.4180 O.2    24  ARG24      -0.2867
      5  CB       -10.5260    7.2380   -2.8090 C.3    24  ARG24       0.0307
      6  CG       -11.4310    7.7590   -3.9220 C.3    24  ARG24       0.0489
      7  CD       -12.5750    8.6480   -3.4750 C.3    24  ARG24       0.2205
      8  NE       -13.4040    9.0270   -4.6090 N.pl3  24  ARG24      -0.0865
      9  CZ       -13.2280   10.0870   -5.3910 C.cat  24  ARG24       0.5346
     10  NH1      -12.2030   10.9020   -5.1830 N.pl3  24  ARG24       0.1354
     11  NH2      -14.0710   10.3060   -6.4230 N.pl3  24  ARG24       0.1354
     12  N        -14.4440    5.4680    3.5470 N.3    36  GLU36      -0.1245
     13  CA       -13.7450    6.1510    2.4810 C.3    36  GLU36       0.1567
     14  C        -13.8880    7.6450    2.6530 C.2    36  GLU36       0.2260
     15  O        -14.9880    8.1910    2.7470 O.2    36  GLU36      -0.2867
     16  CB       -14.3050    5.7500    1.1140 C.3    36  GLU36       0.0388
     17  CG       -13.6240    6.3760   -0.0880 C.3    36  GLU36       0.1160
     18  CD       -14.4720    6.2590   -1.3530 C.2    36  GLU36       0.3649
     19  OE1      -15.5910    6.8850   -1.3940 O.co2  36  GLU36      -0.2457
     20  OE2      -14.0080    5.5730   -2.3090 O.co2  36  GLU36      -0.2457
     21  N        -12.6410   11.3140    0.7100 N.3    38  LEU38      -0.1245
     22  CA       -12.4610   11.7020   -0.6640 C.3    38  LEU38       0.1561
     23  C        -11.8990   13.1410   -0.8130 C.2    38  LEU38       0.2260
     24  O        -12.1370   14.0360    0.0250 O.2    38  LEU38      -0.2867
     25  CB       -13.8250   11.4810   -1.3850 C.3    38  LEU38       0.0270
     26  CG       -14.3840   12.2120   -2.5730 C.3    38  LEU38       0.0019
     27  CD1      -15.6720   11.4670   -3.0010 C.3    38  LEU38       0.0001
     28  CD2      -14.6530   13.6820   -2.2930 C.3    38  LEU38       0.0001
     29  N        -11.9280   15.7600   -3.9590 N.3    40  GLU40      -0.1245
     30  CA       -12.3600   16.2220   -5.2740 C.3    40  GLU40       0.1567
     31  C        -12.4040   17.7560   -5.2010 C.2    40  GLU40       0.2260
     32  O        -13.4650   18.3380   -4.9660 O.2    40  GLU40      -0.2867
     33  CB       -13.7550   15.6670   -5.5780 C.3    40  GLU40       0.0388
     34  CG       -13.7900   14.1690   -5.8840 C.3    40  GLU40       0.1160
     35  CD       -13.1190   13.8070   -7.1970 C.2    40  GLU40       0.3649
     36  OE1      -12.9240   14.7100   -8.0480 O.co2  40  GLU40      -0.2457
     37  OE2      -12.7850   12.6070   -7.3960 O.co2  40  GLU40      -0.2457
     38  N        -13.7840   15.4900    1.7910 N.3    44  ALA44      -0.1231
     39  CA       -15.1280   15.1880    2.2680 C.3    44  ALA44       0.1694
     40  C        -15.2460   13.7440    2.7530 C.2    44  ALA44       0.2592
     41  O        -14.3580   12.9020    2.5220 O.2    44  ALA44      -0.2718
     42  CB       -16.1910   15.4750    1.1840 C.3    44  ALA44       0.0304
     43  N        -16.3620   13.4520    3.4050 N.am   45  ASN45      -0.1974
     44  CA       -16.7640   12.1020    3.6980 C.3    45  ASN45       0.1688
     45  C        -16.0390   11.4700    4.9080 C.2    45  ASN45       0.2292
     46  O        -15.9540   12.0940    5.9380 O.2    45  ASN45      -0.2864
     47  CB       -16.7750   11.2500    2.4240 C.3    45  ASN45       0.1181
     48  CG       -17.8500   11.7180    1.4350 C.2    45  ASN45       0.2629
     49  OD1      -18.6760   12.5920    1.7600 O.2    45  ASN45      -0.2716
     50  ND2      -17.8190   11.1740    0.2180 N.am   45  ASN45      -0.0877
     51  N        -20.1950    6.6040    4.7770 N.3    50  ASN50      -0.1240
     52  CA       -19.2350    6.2960    3.7410 C.3    50  ASN50       0.1653
     53  C        -18.5890    4.9510    4.0520 C.2    50  ASN50       0.2266
     54  O        -17.4210    4.7200    3.7430 O.2    50  ASN50      -0.2867
     55  CB       -18.2480    7.4490    3.6390 C.3    50  ASN50       0.1155
     56  CG       -18.9430    8.7790    3.4380 C.2    50  ASN50       0.2627
     57  OD1      -18.8450    9.6870    4.2650 O.2    50  ASN50      -0.2716
     58  ND2      -19.7230    8.8720    2.3580 N.am   50  ASN50      -0.0877
     59  N        -17.9580    1.1270    3.3680 N.3    52  ILE52      -0.1245
     60  CA       -17.9120    0.2420    2.2110 C.3    52  ILE52       0.1561
     61  C        -17.8950   -1.2380    2.6020 C.2    52  ILE52       0.2260
     62  O        -17.9770   -2.1060    1.7350 O.2    52  ILE52      -0.2867
     63  CB       -16.7510    0.5750    1.2530 C.3    52  ILE52       0.0252
     64  CG1      -15.3870    0.4000    1.9590 C.3    52  ILE52       0.0019
     65  CG2      -16.9080    1.9900    0.6460 C.3    52  ILE52       0.0019
     66  CD1      -14.1960    0.3660    1.0190 C.3    52  ILE52       0.0001
     67  N         -9.9680    6.0970  -11.2730 N.3    68  LEU68      -0.1245
     68  CA       -11.0780    5.8600  -10.3400 C.3    68  LEU68       0.1561
     69  C        -12.2590    5.2050  -11.0180 C.2    68  LEU68       0.2260
     70  O        -13.3900    5.2890  -10.5440 O.2    68  LEU68      -0.2867
     71  CB       -11.4980    7.1660   -9.6540 C.3    68  LEU68       0.0270
     72  CG       -10.4410    7.8640   -8.8080 C.3    68  LEU68       0.0019
     73  CD1      -11.0280    9.1840   -8.2960 C.3    68  LEU68       0.0001
     74  CD2      -10.0260    6.9630   -7.6470 C.3    68  LEU68       0.0001
     75  N        -11.9840    0.3290   -8.4470 N.3    71  ILE71      -0.1245
     76  CA       -11.2900    0.3710   -7.1510 C.3    71  ILE71       0.1561
     77  C        -11.5060   -0.9100   -6.4210 C.2    71  ILE71       0.2260
     78  O        -12.6320   -1.4740   -6.4230 O.2    71  ILE71      -0.2867
     79  CB       -11.7390    1.5390   -6.2320 C.3    71  ILE71       0.0252
     80  CG1      -11.7550    2.8660   -6.9950 C.3    71  ILE71       0.0019
     81  CG2      -10.8880    1.5390   -4.9340 C.3    71  ILE71       0.0019
     82  CD1      -12.4460    4.0180   -6.2700 C.3    71  ILE71       0.0001
     83  N        -15.5240   -1.3780   -6.2930 N.3    87  TYR87      -0.1241
     84  CA       -16.2400   -0.2800   -6.9430 C.3    87  TYR87       0.1605
     85  C        -15.9400   -0.2980   -8.4580 C.2    87  TYR87       0.2264
     86  O        -14.7580   -0.2560   -8.8650 O.2    87  TYR87      -0.2867
     87  CB       -15.8700    1.0750   -6.3610 C.3    87  TYR87       0.0534
     88  CG       -16.4480    2.2600   -7.1380 C.ar   87  TYR87      -0.0201
     89  CD1      -15.8020    2.7690   -8.2500 C.ar   87  TYR87      -0.0009
     90  CD2      -17.6840    2.8260   -6.7910 C.ar   87  TYR87      -0.0009
     91  CE1      -16.3380    3.7920   -8.9880 C.ar   87  TYR87       0.0417
     92  CE2      -18.1990    3.8980   -7.4980 C.ar   87  TYR87       0.0417
     93  CZ       -17.5330    4.3700   -8.5970 C.ar   87  TYR87       0.1957
     94  OH       -18.0610    5.3980   -9.3550 O.3    87  TYR87      -0.2866
     95  N        -20.3710    3.2680  -12.4940 N.3    90  GLY90      -0.1225
     96  CA       -21.6790    2.8590  -12.9960 C.3    90  GLY90       0.1811
     97  C        -22.3760    1.7820  -12.2020 C.2    90  GLY90       0.2280
     98  O        -23.5940    1.6020  -12.3360 O.2    90  GLY90      -0.2866
     99  N        -20.4870    0.1920   -5.1940 N.3    93  TRP93      -0.1241
    100  CA       -19.7280   -0.6950   -4.3150 C.3    93  TRP93       0.1605
    101  C        -20.4220   -2.0260   -4.2070 C.2    93  TRP93       0.2264
    102  O        -21.6440   -2.0760   -4.0650 O.2    93  TRP93      -0.2867
    103  CB       -19.5590   -0.0610   -2.9100 C.3    93  TRP93       0.0550
    104  CG       -18.5130    1.0460   -2.9110 C.ar   93  TRP93       0.0003
    105  CD1      -18.7270    2.4210   -3.0610 C.ar   93  TRP93       0.0946
    106  CD2      -17.0570    0.8720   -2.8830 C.ar   93  TRP93       0.0152
    107  NE1      -17.5170    3.1060   -3.0780 N.ar   93  TRP93      -0.2442
    108  CE2      -16.4740    2.2130   -2.9910 C.ar   93  TRP93       0.0810
    109  CE3      -16.2170   -0.2180   -2.8020 C.ar   93  TRP93       0.0012
    110  CZ2      -15.0990    2.4250   -2.9800 C.ar   93  TRP93       0.0191
    111  CZ3      -14.8160    0.0050   -2.7880 C.ar   93  TRP93       0.0001
    112  CH2      -14.2750    1.3080   -2.8730 C.ar   93  TRP93       0.0015
@<TRIPOS>BOND
     1    96    95    1
     2    96    97    1
     3    98    97    2
     4    67    68    1
     5    69    70    2
     6    69    68    1
     7    68    71    1
     8    71    72    1
     9    94    93    1
    10    91    93   ar
    11    91    89   ar
    12    86    85    2
    13    72    73    1
    14    72    74    1
    15    93    92   ar
    16    85    84    1
    17    75    76    1
    18    89    88   ar
    19    36    35   ar
    20    92    90   ar
    21    37    35   ar
    22    35    34    1
    23    76    77    1
    24    76    79    1
    25    88    90   ar
    26    88    87    1
    27    80    82    1
    28    80    79    1
    29    84    87    1
    30    84    83    1
    31    11     9    1
    32    78    77    2
    33    79    81    1
    34    34    33    1
    35    33    30    1
    36     9    10    1
    37     9     8    2
    38    30    31    1
    39    30    29    1
    40    31    32    2
    41    99   100    1
    42     8     7    1
    43   100   101    1
    44   100   103    1
    45   101   102    2
    46     6     7    1
    47     6     5    1
    48   107   105   ar
    49   107   108   ar
    50     1     2    1
    51   105   104   ar
    52    27    26    1
    53   108   110   ar
    54   108   106   ar
    55   110   112   ar
    56   104   103    1
    57   104   106   ar
    58   106   109   ar
    59   112   111   ar
    60     5     2    1
    61   109   111   ar
    62    26    28    1
    63    26    25    1
    64    20    18   ar
    65     2     3    1
    66     4     3    2
    67    19    18   ar
    68    25    22    1
    69    18    17    1
    70    23    22    1
    71    23    24    2
    72    22    21    1
    73    17    16    1
    74    50    48   am
    75    65    63    1
    76    66    64    1
    77    16    13    1
    78    42    39    1
    79    63    64    1
    80    63    60    1
    81    48    49    2
    82    48    47    1
    83    62    61    2
    84    38    39    1
    85    60    61    1
    86    60    59    1
    87    39    40    1
    88    58    56   am
    89    47    44    1
    90    13    14    1
    91    13    12    1
    92    41    40    2
    93    14    15    2
    94    40    43   am
    95    43    44    1
    96    56    55    1
    97    56    57    2
    98    55    52    1
    99    44    45    1
   100    52    53    1
   101    52    51    1
   102    54    53    2
   103    45    46    2
