@<TRIPOS>MOLECULE
tmp/4ah4A01.pdb
 118 114 0 0 0
SMALL
GASTEIGER

@<TRIPOS>ATOM
      1  N        -10.4400   -1.3840   -5.7900 N.3    72  ARG72      -0.1245
      2  CA       -10.5180   -2.6400   -5.0190 C.3    72  ARG72       0.1563
      3  C         -9.8710   -2.4350   -3.6710 C.2    72  ARG72       0.2260
      4  O         -8.7530   -1.9240   -3.6090 O.2    72  ARG72      -0.2867
      5  CB        -9.8930   -3.8140   -5.7730 C.3    72  ARG72       0.0307
      6  CG       -10.4820   -4.0860   -7.1660 C.3    72  ARG72       0.0489
      7  CD       -11.9060   -4.6600   -7.0240 C.3    72  ARG72       0.2205
      8  NE       -12.4940   -5.0380   -8.3030 N.pl3  72  ARG72      -0.0865
      9  CZ       -13.1430   -4.2140   -9.1430 C.cat  72  ARG72       0.5346
     10  NH1      -13.2580   -2.9210   -8.8940 N.pl3  72  ARG72       0.1354
     11  NH2      -13.6310   -4.6940  -10.2880 N.pl3  72  ARG72       0.1354
     12  N        -12.6210   -8.6300   -0.1960 N.3    84  GLU84      -0.1245
     13  CA       -12.5400   -7.5620   -1.1790 C.3    84  GLU84       0.1567
     14  C        -13.8320   -6.7590   -1.3000 C.2    84  GLU84       0.2260
     15  O        -14.9250   -7.3190   -1.4430 O.2    84  GLU84      -0.2867
     16  CB       -12.2130   -8.1970   -2.5490 C.3    84  GLU84       0.0388
     17  CG       -12.0640   -7.2430   -3.7270 C.3    84  GLU84       0.1160
     18  CD       -11.8810   -8.0220   -5.0110 C.2    84  GLU84       0.3649
     19  OE1      -12.7670   -8.8800   -5.2440 O.co2  84  GLU84      -0.2457
     20  OE2      -10.8800   -7.7670   -5.7420 O.co2  84  GLU84      -0.2457
     21  N        -16.9860   -0.3540   -9.2920 N.3    88  ASP88      -0.1239
     22  CA       -16.8290   -0.0400  -10.7320 C.3    88  ASP88       0.1674
     23  C        -17.7160    1.1280  -11.0870 C.2    88  ASP88       0.2266
     24  O        -18.8570    1.1630  -10.6390 O.2    88  ASP88      -0.2867
     25  CB       -17.1450   -1.2080  -11.6510 C.3    88  ASP88       0.1410
     26  CG       -16.4110   -2.4670  -11.2950 C.2    88  ASP88       0.3668
     27  OD1      -15.1630   -2.4590  -11.2070 O.co2  88  ASP88      -0.2456
     28  OD2      -17.0540   -3.5110  -11.1570 O.co2  88  ASP88      -0.2456
     29  N        -21.6160    1.0440  -11.3810 N.3    91  THR91      -0.1218
     30  CA       -22.1520   -0.0010  -10.5220 C.3    91  THR91       0.1862
     31  C        -22.1250    0.4260   -9.0530 C.2    91  THR91       0.2287
     32  O        -23.0360    0.1030   -8.3060 O.2    91  THR91      -0.2866
     33  CB       -21.3460   -1.2990  -10.6870 C.3    91  THR91       0.1770
     34  OG1      -21.4290   -1.7140  -12.0380 O.3    91  THR91      -0.2211
     35  CG2      -21.8410   -2.3990   -9.7750 C.3    91  THR91       0.0375
     36  N        -19.6520   -3.1130   -4.1940 N.3    94  TYR94      -0.1227
     37  CA       -20.1880   -4.4320   -3.9070 C.3    94  TYR94       0.1736
     38  C        -19.1270   -5.3030   -3.2860 C.2    94  TYR94       0.2595
     39  O        -17.9310   -4.9510   -3.2840 O.2    94  TYR94      -0.2718
     40  CB       -20.7500   -5.1180   -5.1700 C.3    94  TYR94       0.0548
     41  CG       -19.7580   -5.2160   -6.2950 C.ar   94  TYR94      -0.0200
     42  CD1      -19.5000   -4.1230   -7.1130 C.ar   94  TYR94      -0.0009
     43  CD2      -19.0240   -6.3930   -6.5120 C.ar   94  TYR94      -0.0009
     44  CE1      -18.5850   -4.2040   -8.1460 C.ar   94  TYR94       0.0417
     45  CE2      -18.1040   -6.4720   -7.5380 C.ar   94  TYR94       0.0417
     46  CZ       -17.8810   -5.3700   -8.3390 C.ar   94  TYR94       0.1957
     47  OH       -16.9880   -5.4880   -9.3580 O.3    94  TYR94      -0.2866
     48  N        -19.5680   -6.4590   -2.8010 N.am   95  ASN95      -0.1960
     49  CA       -18.6890   -7.4260   -2.2070 C.3    95  ASN95       0.1819
     50  C        -18.0180   -8.1930   -3.3390 C.2    95  ASN95       0.2622
     51  O        -18.6820   -8.8630   -4.1370 O.2    95  ASN95      -0.2715
     52  CB       -19.5060   -8.3300   -1.2680 C.3    95  ASN95       0.1195
     53  CG       -18.6520   -9.1420   -0.3190 C.2    95  ASN95       0.2630
     54  OD1      -18.6890  -10.3820   -0.3390 O.2    95  ASN95      -0.2716
     55  ND2      -17.9170   -8.4620    0.5560 N.am   95  ASN95      -0.0877
     56  N        -16.6980   -8.0650   -3.4400 N.am   96  GLY96      -0.1940
     57  CA       -15.9290   -8.7760   -4.4340 C.3    96  GLY96       0.2014
     58  C        -15.8410  -10.2790   -4.2280 C.2    96  GLY96       0.2639
     59  O        -16.0650  -10.8030   -3.1280 O.2    96  GLY96      -0.2714
     60  N        -15.4500  -10.9610   -5.2960 N.am   97  GLY97      -0.1954
     61  CA       -15.4240  -12.4210   -5.3400 C.3    97  GLY97       0.1869
     62  C        -14.2900  -13.0230   -4.5380 C.2    97  GLY97       0.2309
     63  O        -14.2830  -14.2150   -4.3120 O.2    97  GLY97      -0.2863
     64  N         -3.2190   -3.7230   -9.3490 N.3   115  PHE115     -0.1241
     65  CA        -3.6000   -3.9990  -10.7460 C.3   115  PHE115      0.1605
     66  C         -2.3180   -4.0350  -11.5840 C.2   115  PHE115      0.2264
     67  O         -1.4040   -3.2210  -11.3950 O.2   115  PHE115     -0.2867
     68  CB        -4.5390   -2.9160  -11.3250 C.3   115  PHE115      0.0534
     69  CG        -6.0050   -3.0800  -10.9590 C.ar  115  PHE115     -0.0203
     70  CD1       -6.8170   -4.0020  -11.6210 C.ar  115  PHE115     -0.0042
     71  CD2       -6.5780   -2.2720   -9.9970 C.ar  115  PHE115     -0.0042
     72  CE1       -8.1520   -4.1220  -11.2900 C.ar  115  PHE115     -0.0003
     73  CE2       -7.9340   -2.3430   -9.6880 C.ar  115  PHE115     -0.0003
     74  CZ        -8.7330   -3.2820  -10.3220 C.ar  115  PHE115     -0.0000
     75  N         -8.4860   -6.1300  -16.4880 N.3   122  LEU122     -0.1245
     76  CA        -8.4480   -6.0860  -15.0060 C.3   122  LEU122      0.1561
     77  C         -7.7930   -7.3590  -14.4820 C.2   122  LEU122      0.2260
     78  O         -8.4510   -8.4260  -14.3530 O.2   122  LEU122     -0.2867
     79  CB        -9.8370   -5.9430  -14.3860 C.3   122  LEU122      0.0270
     80  CG       -10.5320   -4.5800  -14.4810 C.3   122  LEU122      0.0019
     81  CD1      -10.6410   -4.1080  -15.9160 C.3   122  LEU122      0.0001
     82  CD2      -11.9230   -4.7010  -13.8410 C.3   122  LEU122      0.0001
     83  N         -5.3120   -8.6140  -11.3060 N.3   124  LEU124     -0.1245
     84  CA        -4.9470   -8.2750   -9.9540 C.3   124  LEU124      0.1561
     85  C         -3.9700   -9.2870   -9.4000 C.2   124  LEU124      0.2260
     86  O         -4.0630  -10.4980   -9.6990 O.2   124  LEU124     -0.2867
     87  CB        -6.1810   -8.2400   -9.0630 C.3   124  LEU124      0.0270
     88  CG        -7.0490   -7.0150   -9.2790 C.3   124  LEU124      0.0019
     89  CD1       -8.4810   -7.4560   -8.9790 C.3   124  LEU124      0.0001
     90  CD2       -6.6200   -5.8150   -8.4370 C.3   124  LEU124      0.0001
     91  N         -6.0340  -12.7400   -9.9220 N.3   140  TRP140     -0.1241
     92  CA        -7.2760  -12.6810  -10.6740 C.3   140  TRP140      0.1605
     93  C         -6.9070  -12.3190  -12.0850 C.2   140  TRP140      0.2264
     94  O         -6.3760  -11.2230  -12.3370 O.2   140  TRP140     -0.2867
     95  CB        -8.2280  -11.6520  -10.1190 C.3   140  TRP140      0.0550
     96  CG        -9.4260  -11.3860  -11.0180 C.ar  140  TRP140      0.0003
     97  CD1       -9.5070  -10.5050  -12.0980 C.ar  140  TRP140      0.0946
     98  CD2      -10.7170  -12.0380  -10.9760 C.ar  140  TRP140      0.0152
     99  NE1      -10.7420  -10.5460  -12.6920 N.ar  140  TRP140     -0.2442
    100  CE2      -11.5160  -11.4480  -12.0640 C.ar  140  TRP140      0.0810
    101  CE3      -11.2940  -12.9730  -10.1530 C.ar  140  TRP140      0.0012
    102  CZ2      -12.8100  -11.8120  -12.2930 C.ar  140  TRP140      0.0191
    103  CZ3      -12.6260  -13.3520  -10.4050 C.ar  140  TRP140      0.0001
    104  CH2      -13.3610  -12.7660  -11.4250 C.ar  140  TRP140      0.0015
    105  N        -10.4040  -16.5100   -8.8560 N.3   145  TRP145     -0.1241
    106  CA        -9.2580  -16.3000   -8.0390 C.3   145  TRP145      0.1605
    107  C         -8.5190  -17.5620   -7.8870 C.2   145  TRP145      0.2264
    108  O         -9.1350  -18.6130   -7.6070 O.2   145  TRP145     -0.2867
    109  CB        -9.6950  -15.8140   -6.6550 C.3   145  TRP145      0.0550
    110  CG       -10.0590  -14.3750   -6.6830 C.ar  145  TRP145      0.0003
    111  CD1      -11.3120  -13.8120   -6.7600 C.ar  145  TRP145      0.0946
    112  CD2       -9.1260  -13.2740   -6.5910 C.ar  145  TRP145      0.0152
    113  NE1      -11.2200  -12.4450   -6.7590 N.ar  145  TRP145     -0.2442
    114  CE2       -9.9150  -12.0680   -6.6440 C.ar  145  TRP145      0.0810
    115  CE3       -7.7570  -13.1880   -6.4990 C.ar  145  TRP145      0.0012
    116  CZ2       -9.3330  -10.8010   -6.6000 C.ar  145  TRP145      0.0191
    117  CZ3       -7.1630  -11.9110   -6.4360 C.ar  145  TRP145      0.0001
    118  CH2       -7.9340  -10.7570   -6.4920 C.ar  145  TRP145      0.0015
@<TRIPOS>BOND
     1    75    76    1
     2    81    80    1
     3    76    77    1
     4    76    79    1
     5    77    78    2
     6    80    79    1
     7    80    82    1
     8    99    97   ar
     9    99   100   ar
    10    94    93    2
    11   102   100   ar
    12   102   104   ar
    13    97    96   ar
    14    93    92    1
    15   100    98   ar
    16    34    33    1
    17    25    26    1
    18    25    22    1
    19    70    72   ar
    20    70    69   ar
    21    66    67    2
    22    66    65    1
    23   104   103   ar
    24    29    30    1
    25    68    69    1
    26    68    65    1
    27    83    84    1
    28    26    27   ar
    29    26    28   ar
    30    72    74   ar
    31    23    22    1
    32    23    24    2
    33    96    98   ar
    34    96    95    1
    35    98   101   ar
    36    69    71   ar
    37    65    64    1
    38    22    21    1
    39    33    30    1
    40    33    35    1
    41    92    95    1
    42    92    91    1
    43    30    31    1
    44   103   101   ar
    45    74    73   ar
    46    11     9    1
    47    71    73   ar
    48    84    85    1
    49    84    87    1
    50    86    85    2
    51    47    46    1
    52    88    87    1
    53    88    89    1
    54    88    90    1
    55     9    10    1
    56     9     8    2
    57    31    32    2
    58   105   106    1
    59    46    44   ar
    60    46    45   ar
    61     8     7    1
    62    44    42   ar
    63   106   107    1
    64   106   109    1
    65   107   108    2
    66    45    43   ar
    67     6     7    1
    68     6     5    1
    69    42    41   ar
    70   111   113   ar
    71   111   110   ar
    72   113   114   ar
    73   110   109    1
    74   110   112   ar
    75   114   116   ar
    76   114   112   ar
    77   116   118   ar
    78   112   115   ar
    79    43    41   ar
    80   115   117   ar
    81   118   117   ar
    82    41    40    1
    83     1     2    1
    84     5     2    1
    85    20    18   ar
    86    61    60    1
    87    61    62    1
    88    60    58   am
    89    19    18   ar
    90    40    37    1
    91     2     3    1
    92    18    17    1
    93    62    63    2
    94    57    58    1
    95    57    56    1
    96    58    59    2
    97    36    37    1
    98    51    50    2
    99    37    38    1
   100    17    16    1
   101     3     4    2
   102    56    50   am
   103    50    49    1
   104    38    39    2
   105    38    48   am
   106    48    49    1
   107    16    13    1
   108    49    52    1
   109    15    14    2
   110    14    13    1
   111    52    53    1
   112    13    12    1
   113    54    53    2
   114    53    55   am
