@<TRIPOS>MOLECULE
tmp/4ah4A04.pdb
 139 134 0 0 0
SMALL
GASTEIGER

@<TRIPOS>ATOM
      1  N          6.7530    5.4070  -10.3930 N.3   219  PHE219     -0.1241
      2  CA         6.3280    6.3750  -11.3820 C.3   219  PHE219      0.1605
      3  C          7.3780    6.5760  -12.4840 C.2   219  PHE219      0.2264
      4  O          8.5690    6.1900  -12.3580 O.2   219  PHE219     -0.2867
      5  CB         6.0220    7.7210  -10.7270 C.3   219  PHE219      0.0534
      6  CG         7.1780    8.2870   -9.9580 C.ar  219  PHE219     -0.0203
      7  CD1        8.1480    9.0310  -10.6040 C.ar  219  PHE219     -0.0042
      8  CD2        7.3120    8.0800   -8.5910 C.ar  219  PHE219     -0.0042
      9  CE1        9.2020    9.5440   -9.9120 C.ar  219  PHE219     -0.0003
     10  CE2        8.3780    8.6040   -7.8840 C.ar  219  PHE219     -0.0003
     11  CZ         9.3270    9.3290   -8.5530 C.ar  219  PHE219     -0.0000
     12  N          9.6410    4.5750   -4.8020 N.3   229  ARG229     -0.1245
     13  CA         9.7590    5.0880   -3.4830 C.3   229  ARG229      0.1563
     14  C          9.1440    4.1260   -2.5010 C.2   229  ARG229      0.2260
     15  O          7.9970    3.6990   -2.6910 O.2   229  ARG229     -0.2867
     16  CB         9.0530    6.4360   -3.3660 C.3   229  ARG229      0.0307
     17  CG         9.5770    7.5170   -4.2900 C.3   229  ARG229      0.0489
     18  CD        10.9600    8.0040   -3.8560 C.3   229  ARG229      0.2205
     19  NE        11.5210    9.0670   -4.6800 N.pl3 229  ARG229     -0.0865
     20  CZ        12.3430    8.9100   -5.7280 C.cat 229  ARG229      0.5346
     21  NH1       12.6910    7.7130   -6.1510 N.pl3 229  ARG229      0.1354
     22  NH2       12.8260    9.9830   -6.3440 N.pl3 229  ARG229      0.1354
     23  N         11.8970    7.3180    3.8780 N.3   241  GLN241     -0.1245
     24  CA        11.7640    7.1010    2.4460 C.3   241  GLN241      0.1566
     25  C         13.0290    6.3990    1.9560 C.2   241  GLN241      0.2260
     26  O         14.1190    6.7840    2.3620 O.2   241  GLN241     -0.2867
     27  CB        11.6220    8.4670    1.7480 C.3   241  GLN241      0.0367
     28  CG        11.5230    8.4340    0.2460 C.3   241  GLN241      0.0905
     29  CD        11.2320    9.7940   -0.4050 C.2   241  GLN241      0.2608
     30  OE1       10.1820   10.0050   -0.9990 O.2   241  GLN241     -0.2717
     31  NE2       12.1710   10.7000   -0.3130 N.am  241  GLN241     -0.0878
     32  N         16.2430    5.5030   -8.0720 N.3   244  ASP244     -0.1239
     33  CA        16.2090    6.3760   -9.2400 C.3   244  ASP244      0.1674
     34  C         16.9840    5.7610  -10.3920 C.2   244  ASP244      0.2266
     35  O         18.0650    5.1390  -10.1870 O.2   244  ASP244     -0.2867
     36  CB        16.6970    7.7430   -8.8640 C.3   244  ASP244      0.1410
     37  CG        15.7710    8.3980   -7.8870 C.2   244  ASP244      0.3668
     38  OD1       14.6930    8.8550   -8.2910 O.co2 244  ASP244     -0.2456
     39  OD2       16.0690    8.3800   -6.6910 O.co2 244  ASP244     -0.2456
     40  N         20.8090    5.2300  -10.9760 N.3   247  LYS247     -0.1245
     41  CA        21.5240    5.2200   -9.6820 C.3   247  LYS247      0.1561
     42  C         21.1850    4.0370   -8.7910 C.2   247  LYS247      0.2260
     43  O         21.9370    3.7100   -7.8910 O.2   247  LYS247     -0.2867
     44  CB        21.2500    6.5050   -8.9170 C.3   247  LYS247      0.0271
     45  CG        21.7110    7.7570   -9.6490 C.3   247  LYS247      0.0035
     46  CD        21.1540    9.0380   -9.0550 C.3   247  LYS247      0.0206
     47  CE        21.3340   10.1850  -10.0450 C.3   247  LYS247      0.1093
     48  NZ        21.6030   11.4980   -9.3820 N.3   247  LYS247     -0.1314
     49  N         19.9670    4.2600   -3.9650 N.3   250  HIS250     -0.1226
     50  CA        21.1170    5.1340   -3.6850 C.3   250  HIS250      0.1752
     51  C         20.9260    6.0830   -2.5350 C.2   250  HIS250      0.2596
     52  O         21.8860    6.7490   -2.1030 O.2   250  HIS250     -0.2718
     53  CB        21.4140    5.9670   -4.9350 C.3   250  HIS250      0.0759
     54  CG        20.3850    7.0160   -5.2210 C.ar  250  HIS250      0.0818
     55  ND1       20.6220    8.3120   -5.0760 N.ar  250  HIS250     -0.2268
     56  CD2       19.0620    6.9120   -5.6660 C.ar  250  HIS250      0.1154
     57  CE1       19.5250    9.0020   -5.3700 C.ar  250  HIS250      0.1986
     58  NE2       18.5810    8.1400   -5.7570 N.ar  250  HIS250     -0.2212
     59  N         19.6910    6.2550   -2.0390 N.am  251  ASP251     -0.1974
     60  CA        19.4620    7.1930   -0.9420 C.3   251  ASP251      0.1709
     61  C         18.2960    6.7650   -0.0650 C.2   251  ASP251      0.2293
     62  O         17.4990    5.9090   -0.4450 O.2   251  ASP251     -0.2864
     63  CB        19.1710    8.6030   -1.4750 C.3   251  ASP251      0.1436
     64  CG        19.6960    9.7240   -0.5560 C.2   251  ASP251      0.3671
     65  OD1       20.3210    9.4570    0.4720 O.co2 251  ASP251     -0.2456
     66  OD2       19.4660   10.9030   -0.8680 O.co2 251  ASP251     -0.2456
     67  N         11.2550   11.4540    6.6020 N.3   255  ILE255     -0.1245
     68  CA        10.2640   12.3070    5.9650 C.3   255  ILE255      0.1561
     69  C          9.4310   13.1250    6.9910 C.2   255  ILE255      0.2260
     70  O          9.3500   14.3600    6.9250 O.2   255  ILE255     -0.2867
     71  CB         9.3500   11.4650    5.0270 C.3   255  ILE255      0.0252
     72  CG1       10.1620   10.8040    3.8840 C.3   255  ILE255      0.0019
     73  CG2        8.2000   12.3270    4.5120 C.3   255  ILE255      0.0019
     74  CD1       10.8400   11.7630    2.9080 C.3   255  ILE255      0.0001
     75  N          9.1800   12.9830  -13.3810 N.3   272  PHE272     -0.1241
     76  CA        10.1870   14.0240  -13.4410 C.3   272  PHE272      0.1605
     77  C         10.2250   14.7250  -14.8150 C.2   272  PHE272      0.2264
     78  O         10.5210   15.9170  -14.8700 O.2   272  PHE272     -0.2867
     79  CB        11.5830   13.4710  -13.1240 C.3   272  PHE272      0.0534
     80  CG        11.8100   13.1510  -11.6640 C.ar  272  PHE272     -0.0203
     81  CD1       11.6400   14.1150  -10.6950 C.ar  272  PHE272     -0.0042
     82  CD2       12.2710   11.9110  -11.2790 C.ar  272  PHE272     -0.0042
     83  CE1       11.8710   13.8370   -9.3500 C.ar  272  PHE272     -0.0003
     84  CE2       12.4670   11.6030   -9.9350 C.ar  272  PHE272     -0.0003
     85  CZ        12.2720   12.5650   -8.9710 C.ar  272  PHE272     -0.0000
     86  N          7.2160   14.1730  -10.1030 N.3   277  PRO277     -0.2116
     87  CA         5.9140   13.5890   -9.8260 C.3   277  PRO277      0.1372
     88  C          5.1980   14.3550   -8.7220 C.2   277  PRO277      0.2244
     89  O          5.7140   15.3300   -8.1860 O.2   277  PRO277     -0.2868
     90  CB         6.2900   12.1740   -9.3720 C.3   277  PRO277      0.0268
     91  CG         7.5280   12.4220   -8.5870 C.3   277  PRO277      0.0207
     92  CD         8.2880   13.4270   -9.4310 C.3   277  PRO277      0.0892
     93  N          3.5010   13.1920   -4.9500 N.3   279  LEU279     -0.1245
     94  CA         3.4370   12.1290   -3.9390 C.3   279  LEU279      0.1561
     95  C          2.4730   12.5810   -2.8500 C.2   279  LEU279      0.2260
     96  O          2.4590   13.7620   -2.4780 O.2   279  LEU279     -0.2867
     97  CB         4.8180   11.9490   -3.2910 C.3   279  LEU279      0.0270
     98  CG         5.9880   11.6580   -4.2080 C.3   279  LEU279      0.0019
     99  CD1        7.2450   11.3720   -3.3780 C.3   279  LEU279      0.0001
    100  CD2        5.7290   10.5170   -5.1800 C.3   279  LEU279      0.0001
    101  N          0.9610   14.0170    4.0280 N.3   295  TRP295     -0.1241
    102  CA         2.2220   14.6750    3.5770 C.3   295  TRP295      0.1605
    103  C          2.2470   14.7600    2.0710 C.2   295  TRP295      0.2264
    104  O          1.7600   13.8590    1.3530 O.2   295  TRP295     -0.2867
    105  CB         3.4060   13.9330    4.1410 C.3   295  TRP295      0.0550
    106  CG         4.7910   14.3980    3.7010 C.ar  295  TRP295      0.0003
    107  CD1        5.6240   15.3370    4.3030 C.ar  295  TRP295      0.0946
    108  CD2        5.5320   13.9280    2.5430 C.ar  295  TRP295      0.0152
    109  NE1        6.7840   15.4470    3.6060 N.ar  295  TRP295     -0.2442
    110  CE2        6.7940   14.6580    2.5420 C.ar  295  TRP295      0.0810
    111  CE3        5.3100   12.9900    1.5780 C.ar  295  TRP295      0.0012
    112  CZ2        7.7760   14.4100    1.6110 C.ar  295  TRP295      0.0191
    113  CZ3        6.2820   12.7680    0.6060 C.ar  295  TRP295      0.0001
    114  CH2        7.5080   13.4650    0.6390 C.ar  295  TRP295      0.0015
    115  N          4.4090   15.9360   -1.6030 N.3   297  TRP297     -0.1241
    116  CA         5.5990   16.3100   -2.3850 C.3   297  TRP297      0.1605
    117  C          5.1250   16.7060   -3.7520 C.2   297  TRP297      0.2264
    118  O          4.3720   15.9840   -4.4030 O.2   297  TRP297     -0.2867
    119  CB         6.6610   15.2010   -2.4860 C.3   297  TRP297      0.0550
    120  CG         7.9960   15.7630   -2.9290 C.ar  297  TRP297      0.0003
    121  CD1        9.0560   16.1920   -2.1500 C.ar  297  TRP297      0.0946
    122  CD2        8.4070   16.0170   -4.3060 C.ar  297  TRP297      0.0152
    123  NE1       10.0780   16.6930   -2.9280 N.ar  297  TRP297     -0.2442
    124  CE2        9.7410   16.6030   -4.2430 C.ar  297  TRP297      0.0810
    125  CE3        7.8090   15.8350   -5.5290 C.ar  297  TRP297      0.0012
    126  CZ2       10.4230   17.0090   -5.4010 C.ar  297  TRP297      0.0191
    127  CZ3        8.4980   16.1970   -6.6940 C.ar  297  TRP297      0.0001
    128  CH2        9.8000   16.7550   -6.6300 C.ar  297  TRP297      0.0015
    129  N          6.6150   19.3770   -7.4180 N.3   299  ARG299     -0.1245
    130  CA         7.7550   20.1160   -8.0010 C.3   299  ARG299      0.1563
    131  C          7.7550   21.5860   -7.5920 C.2   299  ARG299      0.2260
    132  O          8.8120   22.1960   -7.3630 O.2   299  ARG299     -0.2867
    133  CB         7.7650   19.9790   -9.5390 C.3   299  ARG299      0.0307
    134  CG         8.2840   18.6340  -10.0200 C.3   299  ARG299      0.0489
    135  CD         9.8030   18.4890   -9.8820 C.3   299  ARG299      0.2205
    136  NE        10.5270   19.1470  -10.9680 N.pl3 299  ARG299     -0.0865
    137  CZ        10.5520   18.7160  -12.2280 C.cat 299  ARG299      0.5346
    138  NH1        9.8920   17.6090  -12.5990 N.pl3 299  ARG299      0.1354
    139  NH2       11.2320   19.4050  -13.1410 N.pl3 299  ARG299      0.1354
@<TRIPOS>BOND
     1    78    77    2
     2    77    76    1
     3    76    75    1
     4    76    79    1
     5   139   137    1
     6    79    80    1
     7   138   137    1
     8     3     4    2
     9     3     2    1
    10   137   136    2
    11    80    82   ar
    12    80    81   ar
    13     2     5    1
    14     2     1    1
    15    82    84   ar
    16    40    41    1
    17   136   135    1
    18     5     6    1
    19    81    83   ar
    20     7     6   ar
    21     7     9   ar
    22    34    35    2
    23    34    33    1
    24    86    87    1
    25    86    92    1
    26    47    48    1
    27    47    46    1
    28   134   135    1
    29   134   133    1
    30     6     8   ar
    31    84    85   ar
    32     9    11   ar
    33    87    90    1
    34    87    88    1
    35    41    44    1
    36    41    42    1
    37    45    46    1
    38    45    44    1
    39   133   130    1
    40    92    91    1
    41    90    91    1
    42    83    85   ar
    43    33    36    1
    44    33    32    1
    45    36    37    1
    46    42    43    2
    47    88    89    2
    48     8    10   ar
    49    11    10   ar
    50    38    37   ar
    51   130   131    1
    52   130   129    1
    53    37    39   ar
    54   131   132    2
    55   127   128   ar
    56   127   125   ar
    57   128   126   ar
    58    22    20    1
    59    21    20    1
    60    58    56   ar
    61    58    57   ar
    62    20    19    2
    63    56    54   ar
    64   125   122   ar
    65   126   124   ar
    66    57    55   ar
    67    54    55   ar
    68    54    53    1
    69   100    98    1
    70    93    94    1
    71    53    50    1
    72    12    13    1
    73    19    18    1
    74   118   117    2
    75   122   124   ar
    76   122   120   ar
    77    17    18    1
    78    17    16    1
    79   124   123   ar
    80    98    99    1
    81    98    97    1
    82    49    50    1
    83    94    97    1
    84    94    95    1
    85   117   116    1
    86    50    51    1
    87    13    16    1
    88    13    14    1
    89   120   119    1
    90   120   121   ar
    91   123   121   ar
    92    95    96    2
    93    15    14    2
    94    51    52    2
    95    51    59   am
    96   119   116    1
    97   116   115    1
    98    59    60    1
    99    63    60    1
   100    63    64    1
   101    30    29    2
   102    60    61    1
   103    66    64   ar
   104    64    65   ar
   105    62    61    2
   106    29    31   am
   107    29    28    1
   108    28    27    1
   109   113   114   ar
   110   113   111   ar
   111   114   112   ar
   112   104   103    2
   113   111   108   ar
   114   112   110   ar
   115    27    24    1
   116    25    26    2
   117    25    24    1
   118   103   102    1
   119    24    23    1
   120   110   108   ar
   121   110   109   ar
   122   108   106   ar
   123    74    72    1
   124   102   101    1
   125   102   105    1
   126   109   107   ar
   127   106   105    1
   128   106   107   ar
   129    72    71    1
   130    73    71    1
   131    71    68    1
   132    68    67    1
   133    68    69    1
   134    70    69    2
