@<TRIPOS>MOLECULE
tmp/4ah4A05.pdb
 137 131 0 0 0
SMALL
GASTEIGER

@<TRIPOS>ATOM
      1  N         -5.0500   14.0900   -9.2070 N.3    21  ASN21      -0.1240
      2  CA        -5.3950   14.7140   -7.9170 C.3    21  ASN21       0.1653
      3  C         -6.7920   14.4720   -7.4260 C.2    21  ASN21       0.2266
      4  O         -7.2880   15.2110   -6.5640 O.2    21  ASN21      -0.2867
      5  CB        -5.0590   16.2210   -7.9090 C.3    21  ASN21       0.1155
      6  CG        -5.7900   17.0280   -8.9810 C.2    21  ASN21       0.2627
      7  OD1       -6.6600   16.5320   -9.6660 O.2    21  ASN21      -0.2716
      8  ND2       -5.4000   18.2900   -9.1340 N.am   21  ASN21      -0.0877
      9  N         -8.6020   11.9330   -5.2510 N.3    23  LEU23      -0.1245
     10  CA        -8.0650   11.0450   -4.2190 C.3    23  LEU23       0.1561
     11  C         -9.1320   10.3100   -3.4420 C.2    23  LEU23       0.2260
     12  O        -10.1630   10.8770   -3.1560 O.2    23  LEU23      -0.2867
     13  CB        -7.2550   11.8580   -3.2370 C.3    23  LEU23       0.0270
     14  CG        -6.2710   12.8880   -3.7750 C.3    23  LEU23       0.0019
     15  CD1       -5.4340   13.4390   -2.6370 C.3    23  LEU23       0.0001
     16  CD2       -5.4150   12.2370   -4.8490 C.3    23  LEU23       0.0001
     17  N        -11.0750   13.3210   -1.8310 N.3    39  TYR39      -0.1241
     18  CA       -10.6410   14.6440   -2.2590 C.3    39  TYR39       0.1605
     19  C        -10.9860   14.8470   -3.7450 C.2    39  TYR39       0.2264
     20  O        -10.4270   14.1890   -4.6590 O.2    39  TYR39      -0.2867
     21  CB        -9.1290   14.8490   -2.0500 C.3    39  TYR39       0.0534
     22  CG        -8.6950   16.2670   -2.3640 C.ar   39  TYR39      -0.0201
     23  CD1       -8.7420   17.2430   -1.3810 C.ar   39  TYR39      -0.0009
     24  CD2       -8.2280   16.6270   -3.6060 C.ar   39  TYR39      -0.0009
     25  CE1       -8.3550   18.5410   -1.6460 C.ar   39  TYR39       0.0417
     26  CE2       -7.8610   17.9460   -3.9090 C.ar   39  TYR39       0.0417
     27  CZ        -7.9140   18.8970   -2.9210 C.ar   39  TYR39       0.1957
     28  OH        -7.5220   20.2040   -3.1210 O.3    39  TYR39      -0.2866
     29  N        -11.2520   18.3920   -5.3370 N.3    41  GLY41      -0.1225
     30  CA       -11.1270   19.8470   -5.1230 C.3    41  GLY41       0.1811
     31  C        -11.1230   20.2970   -3.6680 C.2    41  GLY41       0.2280
     32  O        -10.6690   21.4070   -3.3810 O.2    41  GLY41      -0.2866
     33  N        -11.6260   18.1650    0.6200 N.3    43  TRP43      -0.1241
     34  CA       -11.8350   16.9010    1.3730 C.3    43  TRP43       0.1605
     35  C        -13.2360   16.7130    1.8360 C.2    43  TRP43       0.2264
     36  O        -13.8330   17.6750    2.2850 O.2    43  TRP43      -0.2867
     37  CB       -10.8900   16.9130    2.5760 C.3    43  TRP43       0.0550
     38  CG        -9.4700   16.6170    2.1740 C.ar   43  TRP43       0.0003
     39  CD1       -8.4140   17.5150    1.9830 C.ar   43  TRP43       0.0946
     40  CD2       -8.9290   15.2980    1.8290 C.ar   43  TRP43       0.0152
     41  NE1       -7.2880   16.8590    1.5980 N.ar   43  TRP43      -0.2442
     42  CE2       -7.5250   15.5160    1.4840 C.ar   43  TRP43       0.0810
     43  CE3       -9.4510   13.9890    1.7940 C.ar   43  TRP43       0.0012
     44  CZ2       -6.6970   14.4790    1.1060 C.ar   43  TRP43       0.0191
     45  CZ3       -8.5940   12.9410    1.3980 C.ar   43  TRP43       0.0001
     46  CH2       -7.2450   13.1920    1.0670 C.ar   43  TRP43       0.0015
     47  N          1.5370   10.2550   -8.8590 N.3   269  TRP269     -0.1241
     48  CA         1.2100   10.5010  -10.2470 C.3   269  TRP269      0.1605
     49  C          2.2080   11.3890  -10.9140 C.2   269  TRP269      0.2264
     50  O          2.9410   12.1530  -10.2610 O.2   269  TRP269     -0.2867
     51  CB        -0.2160   11.0300  -10.4100 C.3   269  TRP269      0.0550
     52  CG        -0.5330   12.3970   -9.8370 C.ar  269  TRP269      0.0003
     53  CD1       -0.6420   13.6110  -10.5320 C.ar  269  TRP269      0.0946
     54  CD2       -0.9260   12.7090   -8.4790 C.ar  269  TRP269      0.0152
     55  NE1       -1.0510   14.6360   -9.6940 N.ar  269  TRP269     -0.2442
     56  CE2       -1.2230   14.1660   -8.4430 C.ar  269  TRP269      0.0810
     57  CE3       -1.0340   11.9850   -7.3190 C.ar  269  TRP269      0.0012
     58  CZ2       -1.5950   14.8090   -7.2730 C.ar  269  TRP269      0.0191
     59  CZ3       -1.4290   12.6490   -6.1440 C.ar  269  TRP269      0.0001
     60  CH2       -1.7130   14.0330   -6.1230 C.ar  269  TRP269      0.0015
     61  N          1.6650   11.6490   -2.3280 N.3   280  ARG280     -0.1245
     62  CA         0.8750   11.9230   -1.1140 C.3   280  ARG280      0.1563
     63  C          1.0220   10.7470   -0.1700 C.2   280  ARG280      0.2260
     64  O          0.8250    9.6090   -0.6020 O.2   280  ARG280     -0.2867
     65  CB        -0.5900   12.1780   -1.4510 C.3   280  ARG280      0.0307
     66  CG        -0.8350   13.3610   -2.4010 C.3   280  ARG280      0.0489
     67  CD        -0.5510   14.7150   -1.7780 C.3   280  ARG280      0.2205
     68  NE        -0.9580   15.8500   -2.6470 N.pl3 280  ARG280     -0.0865
     69  CZ        -0.2640   16.2860   -3.6950 C.cat 280  ARG280      0.5346
     70  NH1        0.8890   15.7030   -4.0640 N.pl3 280  ARG280      0.1354
     71  NH2       -0.7530   17.2860   -4.4230 N.pl3 280  ARG280      0.1354
     72  N         -1.8670   14.0230    6.2260 N.3   294  GLU294     -0.1245
     73  CA        -1.3170   13.9050    4.9060 C.3   294  GLU294      0.1567
     74  C          0.0480   14.6200    4.7800 C.2   294  GLU294      0.2260
     75  O          0.2490   15.7120    5.3310 O.2   294  GLU294     -0.2867
     76  CB        -2.3240   14.5310    3.9300 C.3   294  GLU294      0.0388
     77  CG        -1.9400   14.4830    2.4760 C.3   294  GLU294      0.1160
     78  CD        -2.8200   15.3680    1.6270 C.2   294  GLU294      0.3649
     79  OE1       -2.9850   16.5930    1.9270 O.co2 294  GLU294     -0.2457
     80  OE2       -3.3220   14.8310    0.6480 O.co2 294  GLU294     -0.2457
     81  N          2.7420   15.9000    1.5740 N.3   296  VAL296     -0.1245
     82  CA         2.7320   16.2610    0.1490 C.3   296  VAL296      0.1561
     83  C          4.1640   16.4230   -0.3910 C.2   296  VAL296      0.2260
     84  O          5.0260   16.9970    0.2970 O.2   296  VAL296     -0.2867
     85  CB         1.9730   17.5970   -0.0450 C.3   296  VAL296      0.0252
     86  CG1        2.0410   18.0650   -1.5130 C.3   296  VAL296      0.0019
     87  CG2        0.5310   17.4550    0.4440 C.3   296  VAL296      0.0019
     88  N          5.5570   17.8850   -4.2120 N.3   298  ASN298     -0.1240
     89  CA         5.4150   18.2510   -5.6260 C.3   298  ASN298      0.1653
     90  C          6.5990   19.0690   -6.1140 C.2   298  ASN298      0.2266
     91  O          7.5080   19.3660   -5.3160 O.2   298  ASN298     -0.2867
     92  CB         4.0890   18.9290   -5.8870 C.3   298  ASN298      0.1155
     93  CG         3.8800   20.1940   -5.0870 C.2   298  ASN298      0.2627
     94  OD1        4.8240   20.8700   -4.6530 O.2   298  ASN298     -0.2716
     95  ND2        2.6170   20.5370   -4.9130 N.am  298  ASN298     -0.0877
     96  N          6.6030   23.0550   -4.7810 N.3   301  HIS301     -0.1241
     97  CA         6.9850   23.3860   -3.3930 C.3   301  HIS301      0.1621
     98  C          7.7520   22.3380   -2.6270 C.2   301  HIS301      0.2264
     99  O          8.1180   22.5390   -1.4590 O.2   301  HIS301     -0.2867
    100  CB         5.7210   23.8000   -2.6570 C.3   301  HIS301      0.0745
    101  CG         5.0200   24.9680   -3.3110 C.ar  301  HIS301      0.0817
    102  ND1        5.5700   26.2100   -3.3520 N.ar  301  HIS301     -0.2268
    103  CD2        3.8260   25.0410   -4.0070 C.ar  301  HIS301      0.1154
    104  CE1        4.7450   27.0360   -4.0170 C.ar  301  HIS301      0.1986
    105  NE2        3.6640   26.3250   -4.3990 N.ar  301  HIS301     -0.2212
    106  N          6.1010   19.1970    2.0750 N.3   304  GLN304     -0.1231
    107  CA         5.2760   19.9570    2.9810 C.3   304  GLN304      0.1698
    108  C          4.2220   19.0520    3.6030 C.2   304  GLN304      0.2592
    109  O          3.7080   18.1570    2.9650 O.2   304  GLN304     -0.2718
    110  CB         4.5630   21.1210    2.2450 C.3   304  GLN304      0.0381
    111  CG         5.4090   21.9480    1.2480 C.3   304  GLN304      0.0905
    112  CD         6.1460   23.1600    1.8460 C.2   304  GLN304      0.2608
    113  OE1        6.1620   23.3710    3.0630 O.2   304  GLN304     -0.2717
    114  NE2        6.7500   23.9810    0.9660 N.am  304  GLN304     -0.0878
    115  N          3.8540   19.3260    4.8430 N.am  305  LEU305     -0.1966
    116  CA         2.6250   18.7120    5.3710 C.3   305  LEU305      0.1728
    117  C          1.3740   19.1900    4.6020 C.2   305  LEU305      0.2617
    118  O          1.2270   20.3730    4.2920 O.2   305  LEU305     -0.2715
    119  CB         2.4860   18.9810    6.8780 C.3   305  LEU305      0.0311
    120  CG         3.3760   18.0790    7.7490 C.3   305  LEU305      0.0022
    121  CD1        3.3960   18.6040    9.1670 C.3   305  LEU305      0.0001
    122  CD2        2.9020   16.6350    7.7470 C.3   305  LEU305      0.0001
    123  N          0.4280   18.2920    4.3220 N.am  306  GLY306     -0.1940
    124  CA        -0.7990   18.6960    3.6310 C.3   306  GLY306      0.2014
    125  C         -1.9400   18.8000    4.6040 C.2   306  GLY306      0.2638
    126  O         -1.7840   19.4400    5.6260 O.2   306  GLY306     -0.2714
    127  N         -3.0780   18.1640    4.2960 N.am  307  ARG307     -0.1977
    128  CA        -4.2540   18.1930    5.1420 C.3   307  ARG307      0.1597
    129  C         -3.8820   17.6660    6.5490 C.2   307  ARG307      0.2287
    130  O         -3.3980   16.5330    6.6910 O.2   307  ARG307     -0.2864
    131  CB        -5.3380   17.3130    4.5500 C.3   307  ARG307      0.0334
    132  CG        -6.6190   17.2050    5.3700 C.3   307  ARG307      0.0492
    133  CD        -7.4080   18.4980    5.4370 C.3   307  ARG307      0.2205
    134  NE        -8.6830   18.2370    6.0970 N.pl3 307  ARG307     -0.0865
    135  CZ        -9.8570   18.7630    5.7480 C.cat 307  ARG307      0.5346
    136  NH1       -9.9370   19.6250    4.7650 N.pl3 307  ARG307      0.1354
    137  NH2      -10.9690   18.3750    6.3490 N.pl3 307  ARG307      0.1354
@<TRIPOS>BOND
     1    49    50    2
     2    49    48    1
     3    53    52   ar
     4    53    55   ar
     5    51    48    1
     6    51    52    1
     7    48    47    1
     8    52    54   ar
     9    55    56   ar
    10     7     6    2
    11     1     2    1
    12     8     6   am
    13     6     5    1
    14    54    56   ar
    15    54    57   ar
    16    56    58   ar
    17     2     5    1
    18     2     3    1
    19     3     4    2
    20    57    59   ar
    21    58    60   ar
    22    59    60   ar
    23    90    89    1
    24    90    91    2
    25    92    89    1
    26    92    93    1
    27    89    88    1
    28    29    30    1
    29     9    10    1
    30    30    31    1
    31    93    95   am
    32    93    94    2
    33    16    14    1
    34    96    97    1
    35    20    19    2
    36    71    69    1
    37   105   104   ar
    38   105   103   ar
    39    10    11    1
    40    10    13    1
    41    70    69    1
    42   104   102   ar
    43   103   101   ar
    44    26    24   ar
    45    26    27   ar
    46    14    13    1
    47    14    15    1
    48    19    18    1
    49    69    68    2
    50    31    32    2
    51    24    22   ar
    52    11    12    2
    53    97   100    1
    54    97    98    1
    55   102   101   ar
    56   101   100    1
    57    28    27    1
    58    27    25   ar
    59    68    67    1
    60    98    99    2
    61    66    67    1
    62    66    65    1
    63    22    21    1
    64    22    23   ar
    65    61    62    1
    66    18    21    1
    67    18    17    1
    68    25    23   ar
    69    86    85    1
    70    65    62    1
    71    62    63    1
    72    64    63    2
    73    83    82    1
    74    83    84    2
    75    85    82    1
    76    85    87    1
    77    82    81    1
    78    33    34    1
    79    80    78   ar
    80   114   112   am
    81    46    44   ar
    82    46    45   ar
    83    44    42   ar
    84   111   112    1
    85   111   110    1
    86    34    35    1
    87    34    37    1
    88    45    43   ar
    89    42    41   ar
    90    42    40   ar
    91    41    39   ar
    92    78    79   ar
    93    78    77    1
    94    43    40   ar
    95    40    38   ar
    96    35    36    2
    97   112   113    2
    98    39    38   ar
    99   106   107    1
   100    38    37    1
   101   110   107    1
   102    77    76    1
   103   109   108    2
   104   107   108    1
   105   108   115   am
   106   124   123    1
   107   124   125    1
   108    76    73    1
   109   118   117    2
   110   127   125   am
   111   127   128    1
   112   123   117   am
   113   131   128    1
   114   131   132    1
   115   117   116    1
   116   125   126    2
   117   136   135    1
   118    74    73    1
   119    74    75    2
   120   115   116    1
   121    73    72    1
   122   128   129    1
   123   132   133    1
   124   116   119    1
   125   133   134    1
   126   135   134    2
   127   135   137    1
   128   129   130    2
   129   119   120    1
   130   122   120    1
   131   120   121    1
