@<TRIPOS>MOLECULE
tmp/4ah9A02.pdb
 89 86 0 0 0
SMALL
GASTEIGER

@<TRIPOS>ATOM
      1  N         15.6380  -19.6720   -3.3810 N.3    28  TYR28      -0.1241
      2  CA        15.2290  -18.5230   -2.5220 C.3    28  TYR28       0.1605
      3  C         16.5170  -17.6870   -2.3430 C.2    28  TYR28       0.2264
      4  O         17.6260  -18.2280   -2.1580 O.2    28  TYR28      -0.2867
      5  CB        14.8410  -19.1220   -1.1380 C.3    28  TYR28       0.0534
      6  CG        14.6490  -18.0920   -0.0170 C.ar   28  TYR28      -0.0201
      7  CD1       13.3970  -17.5090    0.2200 C.ar   28  TYR28      -0.0009
      8  CD2       15.7380  -17.7900    0.8070 C.ar   28  TYR28      -0.0009
      9  CE1       13.2060  -16.5820    1.3080 C.ar   28  TYR28       0.0417
     10  CE2       15.6010  -16.8820    1.8780 C.ar   28  TYR28       0.0417
     11  CZ        14.3470  -16.3640    2.1420 C.ar   28  TYR28       0.1957
     12  OH        14.2400  -15.5490    3.2570 O.3    28  TYR28      -0.2866
     13  N         18.3100  -18.4890    8.7900 N.3    53  TRP53      -0.1241
     14  CA        18.0510  -19.7800    8.1550 C.3    53  TRP53       0.1605
     15  C         19.1630  -20.7580    8.5850 C.2    53  TRP53       0.2264
     16  O         20.2600  -20.2900    8.9410 O.2    53  TRP53      -0.2867
     17  CB        18.1840  -19.6160    6.6310 C.3    53  TRP53       0.0550
     18  CG        17.0610  -18.8670    6.0190 C.ar   53  TRP53       0.0003
     19  CD1       17.0330  -17.5680    5.6190 C.ar   53  TRP53       0.0946
     20  CD2       15.6570  -19.3900    5.8420 C.ar   53  TRP53       0.0152
     21  NE1       15.7930  -17.2300    5.1780 N.ar   53  TRP53      -0.2442
     22  CE2       14.9000  -18.2600    5.2560 C.ar   53  TRP53       0.0810
     23  CE3       15.0580  -20.6030    5.9810 C.ar   53  TRP53       0.0012
     24  CZ2       13.5710  -18.3640    4.9380 C.ar   53  TRP53       0.0191
     25  CZ3       13.6780  -20.6960    5.7250 C.ar   53  TRP53       0.0001
     26  CH2       12.9720  -19.6050    5.0960 C.ar   53  TRP53       0.0015
     27  N         11.4050  -14.0100   -4.5510 N.3   129  ASN129     -0.1225
     28  CA        11.0730  -15.0840   -3.6100 C.3   129  ASN129      0.1785
     29  C          9.6020  -15.4360   -3.6600 C.2   129  ASN129      0.2597
     30  O          9.2640  -16.5110   -3.2960 O.2   129  ASN129     -0.2718
     31  CB        11.4410  -14.7300   -2.1530 C.3   129  ASN129      0.1169
     32  CG        12.9540  -14.7910   -1.9550 C.2   129  ASN129      0.2627
     33  OD1       13.6440  -15.4600   -2.7050 O.2   129  ASN129     -0.2716
     34  ND2       13.4690  -14.0930   -0.9430 N.am  129  ASN129     -0.0877
     35  N          8.7520  -14.4990   -4.1070 N.am  130  HIS130     -0.1975
     36  CA         7.3090  -14.7990   -4.1220 C.3   130  HIS130      0.1656
     37  C          6.8330  -15.2730   -5.5220 C.2   130  HIS130      0.2291
     38  O          5.6660  -15.7100   -5.6440 O.2   130  HIS130     -0.2864
     39  CB         6.4630  -13.5410   -3.8210 C.3   130  HIS130      0.0771
     40  CG         6.4700  -13.1460   -2.3690 C.ar  130  HIS130      0.0820
     41  ND1        7.5050  -12.4710   -1.8070 N.ar  130  HIS130     -0.2267
     42  CD2        5.5380  -13.3840   -1.3280 C.ar  130  HIS130      0.1154
     43  CE1        7.2440  -12.2510   -0.4970 C.ar  130  HIS130      0.1986
     44  NE2        6.0510  -12.8350   -0.2020 N.ar  130  HIS130     -0.2212
     45  N          5.6870  -17.3210   -8.4640 N.3   132  ARG132     -0.1245
     46  CA         5.3510  -18.7230   -8.7000 C.3   132  ARG132      0.1563
     47  C          5.9480  -19.3130   -9.9890 C.2   132  ARG132      0.2260
     48  O          5.8200  -18.7070  -11.0450 O.2   132  ARG132     -0.2867
     49  CB         3.8290  -18.8850   -8.6860 C.3   132  ARG132      0.0307
     50  CG         3.3790  -18.7710   -7.2320 C.3   132  ARG132      0.0489
     51  CD         1.8730  -18.7830   -7.0610 C.3   132  ARG132      0.2205
     52  NE         1.4740  -18.5860   -5.6570 N.pl3 132  ARG132     -0.0865
     53  CZ         1.3860  -19.5780   -4.7800 C.cat 132  ARG132      0.5346
     54  NH1        1.6930  -20.8130   -5.1560 N.pl3 132  ARG132      0.1354
     55  NH2        0.9960  -19.3460   -3.5320 N.pl3 132  ARG132      0.1354
     56  N          6.4210  -20.9980   -5.0770 N.3   138  SER138     -0.1217
     57  CA         7.4740  -19.9790   -5.1820 C.3   138  SER138      0.1889
     58  C          8.7480  -20.5090   -4.4410 C.2   138  SER138      0.2288
     59  O          8.7070  -21.5060   -3.7480 O.2   138  SER138     -0.2866
     60  CB         7.0060  -18.7090   -4.4230 C.3   138  SER138      0.2089
     61  OG         6.7860  -19.0710   -3.0850 O.3   138  SER138     -0.2183
     62  N         10.0990  -19.1200   -1.9290 N.3   140  GLY140     -0.1210
     63  CA         9.8960  -19.0100   -0.4950 C.3   140  GLY140      0.1956
     64  C          9.1760  -20.2610    0.0240 C.2   140  GLY140      0.2611
     65  O          9.4540  -20.7720    1.1240 O.2   140  GLY140     -0.2717
     66  N          8.1920  -20.7150   -0.7560 N.am  141  GLU141     -0.1979
     67  CA         7.4710  -21.9100   -0.3760 C.3   141  GLU141      0.1602
     68  C          8.4190  -23.1260   -0.4030 C.2   141  GLU141      0.2287
     69  O          8.3410  -23.9310    0.5060 O.2   141  GLU141     -0.2864
     70  CB         6.2890  -22.1890   -1.3570 C.3   141  GLU141      0.0415
     71  CG         5.1490  -21.2390   -0.9970 C.3   141  GLU141      0.1163
     72  CD         3.9730  -21.3760   -1.9750 C.2   141  GLU141      0.3649
     73  OE1        4.2300  -21.6350   -3.1540 O.co2 141  GLU141     -0.2457
     74  OE2        2.8320  -21.2540   -1.4910 O.co2 141  GLU141     -0.2457
     75  N         11.6740  -23.2710   -0.0400 N.3   143  ILE143     -0.1231
     76  CA        12.7140  -23.3800    0.9700 C.3   143  ILE143      0.1692
     77  C         12.1010  -23.8680    2.2930 C.2   143  ILE143      0.2591
     78  O         12.6390  -24.7020    3.0070 O.2   143  ILE143     -0.2718
     79  CB        13.5480  -22.0360    1.1490 C.3   143  ILE143      0.0266
     80  CG1       14.6680  -22.3210    2.2020 C.3   143  ILE143      0.0019
     81  CG2       12.6980  -20.8260    1.5530 C.3   143  ILE143      0.0020
     82  CD1       15.6640  -21.1100    2.3580 C.3   143  ILE143      0.0001
     83  N         10.9340  -23.3120    2.6260 N.am  144  VAL144     -0.1980
     84  CA        10.2670  -23.7310    3.8660 C.3   144  VAL144      0.1595
     85  C          9.9660  -25.2530    3.7750 C.2   144  VAL144      0.2287
     86  O         10.1750  -25.9470    4.7890 O.2   144  VAL144     -0.2864
     87  CB         8.9520  -22.9340    4.0510 C.3   144  VAL144      0.0276
     88  CG1        8.0190  -23.4630    5.1680 C.3   144  VAL144      0.0022
     89  CG2        9.3300  -21.4930    4.4530 C.3   144  VAL144      0.0022
@<TRIPOS>BOND
     1    48    47    2
     2    47    46    1
     3    46    49    1
     4    46    45    1
     5    49    50    1
     6    50    51    1
     7    51    52    1
     8    52    53    2
     9    38    37    2
    10    37    36    1
    11    57    56    1
    12    57    58    1
    13    57    60    1
    14    54    53    1
    15    53    55    1
    16    27    28    1
    17    58    59    2
    18    60    61    1
    19    36    35    1
    20    36    39    1
    21    35    29   am
    22    39    40    1
    23    29    28    1
    24    29    30    2
    25    28    31    1
    26     1     2    1
    27    73    72   ar
    28    33    32    2
    29     2     3    1
    30     2     5    1
    31    40    41   ar
    32    40    42   ar
    33     3     4    2
    34    31    32    1
    35    72    74   ar
    36    72    71    1
    37    32    34   am
    38    62    63    1
    39    41    43   ar
    40    70    71    1
    41    70    67    1
    42    42    44   ar
    43     5     6    1
    44    66    67    1
    45    66    64   am
    46    43    44   ar
    47    63    64    1
    48    68    67    1
    49    68    69    2
    50    75    76    1
    51     6     7   ar
    52     6     8   ar
    53    64    65    2
    54     7     9   ar
    55     8    10   ar
    56    76    79    1
    57    76    77    1
    58    79    81    1
    59    79    80    1
    60     9    11   ar
    61    10    11   ar
    62    11    12    1
    63    80    82    1
    64    77    83   am
    65    77    78    2
    66    83    84    1
    67    85    84    1
    68    85    86    2
    69    84    87    1
    70    87    89    1
    71    87    88    1
    72    24    26   ar
    73    24    22   ar
    74    26    25   ar
    75    21    22   ar
    76    21    19   ar
    77    22    20   ar
    78    19    18   ar
    79    25    23   ar
    80    20    23   ar
    81    20    18   ar
    82    18    17    1
    83    17    14    1
    84    14    15    1
    85    14    13    1
    86    15    16    2
