@<TRIPOS>MOLECULE
tmp/4ahaB01.pdb
 115 111 0 0 0
SMALL
GASTEIGER

@<TRIPOS>ATOM
      1  N         18.9390   19.9380   41.6550 N.3    72  ARG72      -0.1245
      2  CA        19.6870   19.0300   40.7830 C.3    72  ARG72       0.1563
      3  C         18.7090   18.2690   39.8830 C.2    72  ARG72       0.2260
      4  O         17.7040   17.7640   40.3830 O.2    72  ARG72      -0.2867
      5  CB        20.5010   18.0620   41.6110 C.3    72  ARG72       0.0307
      6  CG        21.5530   18.6770   42.5150 C.3    72  ARG72       0.0489
      7  CD        22.6350   19.4370   41.7210 C.3    72  ARG72       0.2205
      8  NE        23.6470   20.0580   42.5910 N.pl3  72  ARG72      -0.0865
      9  CZ        23.5920   21.2870   43.0870 C.cat  72  ARG72       0.5346
     10  NH1       22.5670   22.0920   42.8400 N.pl3  72  ARG72       0.1354
     11  NH2       24.5850   21.7250   43.8370 N.pl3  72  ARG72       0.1354
     12  N         23.8670   15.2910   35.1380 N.3    84  GLU84      -0.1245
     13  CA        23.3140   16.1830   36.1630 C.3    84  GLU84       0.1567
     14  C         23.3330   17.6580   35.7220 C.2    84  GLU84       0.2260
     15  O         24.3640   18.1710   35.3580 O.2    84  GLU84      -0.2867
     16  CB        24.2110   16.0360   37.4060 C.3    84  GLU84       0.0388
     17  CG        23.8470   16.9160   38.5970 C.3    84  GLU84       0.1160
     18  CD        24.7870   16.6970   39.7870 C.2    84  GLU84       0.3649
     19  OE1       26.0230   16.7550   39.6040 O.co2  84  GLU84      -0.2457
     20  OE2       24.2880   16.4430   40.9020 O.co2  84  GLU84      -0.2457
     21  N         22.5680   26.3690   41.6290 N.3    88  ASP88      -0.1239
     22  CA        22.8410   26.9420   42.9600 C.3    88  ASP88       0.1674
     23  C         22.4360   28.4300   42.9540 C.2    88  ASP88       0.2266
     24  O         22.8690   29.1900   42.1000 O.2    88  ASP88      -0.2867
     25  CB        24.3270   26.7750   43.3820 C.3    88  ASP88       0.1410
     26  CG        24.7210   25.3220   43.6230 C.2    88  ASP88       0.3668
     27  OD1       23.8880   24.5700   44.1670 O.co2  88  ASP88      -0.2456
     28  OD2       25.8410   24.9350   43.2580 O.co2  88  ASP88      -0.2456
     29  N         24.6820   25.1150   35.7560 N.3    94  TYR94      -0.1227
     30  CA        25.8860   24.6030   35.1390 C.3    94  TYR94       0.1736
     31  C         25.7410   23.0910   35.0410 C.2    94  TYR94       0.2595
     32  O         24.7650   22.4940   35.5410 O.2    94  TYR94      -0.2718
     33  CB        27.1200   24.9580   35.9740 C.3    94  TYR94       0.0548
     34  CG        27.0090   24.5340   37.4430 C.ar   94  TYR94      -0.0200
     35  CD1       26.3150   25.2980   38.3610 C.ar   94  TYR94      -0.0009
     36  CD2       27.6000   23.3680   37.8990 C.ar   94  TYR94      -0.0009
     37  CE1       26.1970   24.9010   39.6860 C.ar   94  TYR94       0.0417
     38  CE2       27.4760   22.9720   39.2210 C.ar   94  TYR94       0.0417
     39  CZ        26.7790   23.7440   40.1090 C.ar   94  TYR94       0.1957
     40  OH        26.6790   23.3840   41.4350 O.3    94  TYR94      -0.2866
     41  N         26.7190   22.4900   34.3870 N.am   95  ASN95      -0.1960
     42  CA        26.8330   21.0450   34.2580 C.3    95  ASN95       0.1819
     43  C         27.4140   20.4670   35.5460 C.2    95  ASN95       0.2622
     44  O         28.5540   20.7480   35.8880 O.2    95  ASN95      -0.2715
     45  CB        27.7350   20.7370   33.0500 C.3    95  ASN95       0.1195
     46  CG        27.5650   19.3310   32.5220 C.2    95  ASN95       0.2630
     47  OD1       28.4900   18.5380   32.5720 O.2    95  ASN95      -0.2716
     48  ND2       26.3920   19.0250   31.9960 N.am   95  ASN95      -0.0877
     49  N         26.6440   19.6690   36.2630 N.am   96  GLY96      -0.1940
     50  CA        27.1380   19.0550   37.5150 C.3    96  GLY96       0.2014
     51  C         28.1900   17.9730   37.3230 C.2    96  GLY96       0.2639
     52  O         28.3340   17.4180   36.2380 O.2    96  GLY96      -0.2714
     53  N         28.9160   17.6690   38.4000 N.am   97  GLY97      -0.1954
     54  CA        30.0080   16.7280   38.3600 C.3    97  GLY97       0.1869
     55  C         29.6150   15.2920   38.0470 C.2    97  GLY97       0.2309
     56  O         30.4810   14.4700   37.7750 O.2    97  GLY97      -0.2863
     57  N         17.9330   14.8260   48.0030 N.3   115  PHE115     -0.1241
     58  CA        18.7810   15.4720   48.9900 C.3   115  PHE115      0.1605
     59  C         18.4060   14.8850   50.3530 C.2   115  PHE115      0.2264
     60  O         17.2320   14.8940   50.7450 O.2   115  PHE115     -0.2867
     61  CB        18.5550   16.9760   49.0290 C.3   115  PHE115      0.0534
     62  CG        19.3780   17.7560   48.0290 C.ar  115  PHE115     -0.0203
     63  CD1       20.7400   17.9200   48.2090 C.ar  115  PHE115     -0.0042
     64  CD2       18.7800   18.3530   46.9340 C.ar  115  PHE115     -0.0042
     65  CE1       21.4870   18.6550   47.3000 C.ar  115  PHE115     -0.0003
     66  CE2       19.5300   19.0790   45.9990 C.ar  115  PHE115     -0.0003
     67  CZ        20.8800   19.2360   46.1960 C.ar  115  PHE115     -0.0000
     68  N         24.9030   19.5970   51.6010 N.3   122  LEU122     -0.1245
     69  CA        24.3620   19.0240   50.3940 C.3   122  LEU122      0.1561
     70  C         24.8180   17.5780   50.2890 C.2   122  LEU122      0.2260
     71  O         25.9730   17.2910   49.9010 O.2   122  LEU122     -0.2867
     72  CB        24.7580   19.8270   49.1660 C.3   122  LEU122      0.0270
     73  CG        24.5760   21.3350   49.3300 C.3   122  LEU122      0.0019
     74  CD1       24.8020   22.0550   48.0090 C.3   122  LEU122      0.0001
     75  CD2       23.1980   21.6150   49.8860 C.3   122  LEU122      0.0001
     76  N         23.5570   13.9190   48.5710 N.3   124  LEU124     -0.1245
     77  CA        22.7040   13.3580   47.5100 C.3   124  LEU124      0.1561
     78  C         22.7510   11.8390   47.3830 C.2   124  LEU124      0.2260
     79  O         23.8030   11.1990   47.5060 O.2   124  LEU124     -0.2867
     80  CB        23.0760   13.9580   46.1620 C.3   124  LEU124      0.0270
     81  CG        22.7310   15.4400   45.9350 C.3   124  LEU124      0.0019
     82  CD1       23.6860   16.0730   44.8970 C.3   124  LEU124      0.0001
     83  CD2       21.2550   15.5360   45.5300 C.3   124  LEU124      0.0001
     84  N         26.7990   11.2610   46.8940 N.3   140  TRP140     -0.1241
     85  CA        27.6420   12.4330   46.9740 C.3   140  TRP140      0.1605
     86  C         27.4850   12.9880   48.3750 C.2   140  TRP140      0.2264
     87  O         26.3590   13.3220   48.7860 O.2   140  TRP140     -0.2867
     88  CB        27.2050   13.4720   45.9610 C.3   140  TRP140      0.0550
     89  CG        27.8620   14.7870   46.1920 C.ar  140  TRP140      0.0003
     90  CD1       27.5220   15.7870   47.1130 C.ar  140  TRP140      0.0946
     91  CD2       29.0610   15.2650   45.5250 C.ar  140  TRP140      0.0152
     92  NE1       28.4110   16.8370   47.0440 N.ar  140  TRP140     -0.2442
     93  CE2       29.3630   16.5860   46.1110 C.ar  140  TRP140      0.0810
     94  CE3       29.8680   14.7670   44.5280 C.ar  140  TRP140      0.0012
     95  CZ2       30.4150   17.3520   45.6680 C.ar  140  TRP140      0.0191
     96  CZ3       30.9630   15.5480   44.1060 C.ar  140  TRP140      0.0001
     97  CH2       31.2140   16.8070   44.6610 C.ar  140  TRP140      0.0015
     98  N         29.7600   15.5370   49.6590 N.3   142  GLY142     -0.1225
     99  CA        30.7760   16.5700   49.6270 C.3   142  GLY142      0.1811
    100  C         32.1900   16.1400   49.2690 C.2   142  GLY142      0.2280
    101  O         33.1190   16.9180   49.4000 O.2   142  GLY142     -0.2866
    102  N         31.7060   11.7760   43.7390 N.3   145  TRP145     -0.1241
    103  CA        30.6970   10.7570   43.5140 C.3   145  TRP145      0.1605
    104  C         31.1820    9.3700   43.7590 C.2   145  TRP145      0.2264
    105  O         32.2880    9.0470   43.4350 O.2   145  TRP145     -0.2867
    106  CB        30.1730   10.8490   42.0930 C.3   145  TRP145      0.0550
    107  CG        29.2290   12.0090   41.9520 C.ar  145  TRP145      0.0003
    108  CD1       29.4890   13.2980   41.4580 C.ar  145  TRP145      0.0946
    109  CD2       27.8320   12.0240   42.3620 C.ar  145  TRP145      0.0152
    110  NE1       28.3460   14.0680   41.5070 N.ar  145  TRP145     -0.2442
    111  CE2       27.3220   13.3590   42.0340 C.ar  145  TRP145      0.0810
    112  CE3       26.9740   11.0870   42.9240 C.ar  145  TRP145      0.0012
    113  CZ2       26.0330   13.7230   42.3010 C.ar  145  TRP145      0.0191
    114  CZ3       25.6500   11.4670   43.1660 C.ar  145  TRP145      0.0001
    115  CH2       25.2010   12.7630   42.8690 C.ar  145  TRP145      0.0015
@<TRIPOS>BOND
     1    48    46   am
     2    46    47    2
     3    46    45    1
     4    45    42    1
     5    42    41    1
     6    42    43    1
     7    41    31   am
     8    31    30    1
     9    31    32    2
    10    12    13    1
    11    30    29    1
    12    30    33    1
    13    15    14    2
    14    43    44    2
    15    43    49   am
    16    14    13    1
    17    33    34    1
    18    13    16    1
    19    52    51    2
    20    49    50    1
    21    51    50    1
    22    51    53   am
    23    16    17    1
    24    34    36   ar
    25    34    35   ar
    26    56    55    2
    27    36    38   ar
    28    55    54    1
    29    54    53    1
    30    35    37   ar
    31    17    18    1
    32    38    39   ar
    33    19    18   ar
    34    37    39   ar
    35    18    20   ar
    36     3     4    2
    37     3     2    1
    38    39    40    1
    39     2     5    1
    40     2     1    1
    41   108   110   ar
    42   108   107   ar
    43   110   111   ar
    44     5     6    1
    45    21    22    1
    46     7     6    1
    47     7     8    1
    48   107   106    1
    49   107   109   ar
    50   111   113   ar
    51   111   109   ar
    52   106   103    1
    53    24    23    2
    54   113   115   ar
    55   109   112   ar
    56     8     9    2
    57    10     9    1
    58   115   114   ar
    59   112   114   ar
    60    23    22    1
    61    22    25    1
    62     9    11    1
    63    28    26   ar
    64    25    26    1
    65   105   104    2
    66   103   102    1
    67   103   104    1
    68    26    27   ar
    69    96    94   ar
    70    96    97   ar
    71    94    91   ar
    72    97    95   ar
    73    82    81    1
    74    91    93   ar
    75    91    89   ar
    76    83    81    1
    77    95    93   ar
    78    81    80    1
    79    88    89    1
    80    88    85    1
    81    66    67   ar
    82    66    64   ar
    83    93    92   ar
    84    80    77    1
    85    89    90   ar
    86    67    65   ar
    87    84    85    1
    88    64    62   ar
    89    85    86    1
    90    92    90   ar
    91    65    63   ar
    92    78    79    2
    93    78    77    1
    94    77    76    1
    95    57    58    1
    96    74    73    1
    97    62    63   ar
    98    62    61    1
    99    86    87    2
   100    58    61    1
   101    58    59    1
   102    72    73    1
   103    72    69    1
   104   100   101    2
   105   100    99    1
   106    73    75    1
   107    99    98    1
   108    71    70    2
   109    70    69    1
   110    59    60    2
   111    69    68    1
