@<TRIPOS>MOLECULE
tmp/4ahaA04.pdb
 121 115 0 0 0
SMALL
GASTEIGER

@<TRIPOS>ATOM
      1  N         -7.4510   -7.3150    1.4300 N.3   219  PHE219     -0.1241
      2  CA        -7.2240   -8.5760    0.7080 C.3   219  PHE219      0.1605
      3  C         -8.4400   -8.9150   -0.1260 C.2   219  PHE219      0.2264
      4  O         -9.4620   -8.2590   -0.0370 O.2   219  PHE219     -0.2867
      5  CB        -6.9470   -9.7250    1.6760 C.3   219  PHE219      0.0534
      6  CG        -8.0070   -9.9070    2.7350 C.ar  219  PHE219     -0.0203
      7  CD1       -9.1430  -10.6830    2.4930 C.ar  219  PHE219     -0.0042
      8  CD2       -7.8550   -9.3450    3.9810 C.ar  219  PHE219     -0.0042
      9  CE1      -10.1310  -10.8530    3.4720 C.ar  219  PHE219     -0.0003
     10  CE2       -8.8310   -9.5210    4.9710 C.ar  219  PHE219     -0.0003
     11  CZ        -9.9560  -10.2570    4.7250 C.ar  219  PHE219     -0.0000
     12  N         -9.2250   -4.4280    6.8130 N.3   229  ARG229     -0.1245
     13  CA        -9.2080   -4.5630    8.2740 C.3   229  ARG229      0.1563
     14  C         -8.3970   -3.3950    8.7990 C.2   229  ARG229      0.2260
     15  O         -7.2610   -3.1870    8.3250 O.2   229  ARG229     -0.2867
     16  CB        -8.5510   -5.8740    8.6690 C.3   229  ARG229      0.0307
     17  CG        -9.2960   -7.1480    8.2630 C.3   229  ARG229      0.0489
     18  CD       -10.6340   -7.2570    8.9920 C.3   229  ARG229      0.2205
     19  NE       -11.3990   -8.4520    8.5920 N.pl3 229  ARG229     -0.0865
     20  CZ       -12.3250   -8.5030    7.6350 C.cat 229  ARG229      0.5346
     21  NH1      -12.6370   -7.4360    6.9110 N.pl3 229  ARG229      0.1354
     22  NH2      -12.9190   -9.6520    7.4000 N.pl3 229  ARG229      0.1354
     23  N        -10.5180   -3.8800   16.1660 N.3   241  GLN241     -0.1245
     24  CA       -10.5430   -4.2210   14.7390 C.3   241  GLN241      0.1566
     25  C        -11.8160   -3.6910   14.1420 C.2   241  GLN241      0.2260
     26  O        -12.9140   -3.9860   14.6570 O.2   241  GLN241     -0.2867
     27  CB       -10.5080   -5.7410   14.5140 C.3   241  GLN241      0.0367
     28  CG       -10.6500   -6.1390   13.0430 C.3   241  GLN241      0.0905
     29  CD       -10.6830   -7.6340   12.8030 C.2   241  GLN241      0.2608
     30  OE1       -9.7270   -8.2260   12.2860 O.2   241  GLN241     -0.2717
     31  NE2      -11.7950   -8.2580   13.1550 N.am  241  GLN241     -0.0878
     32  N        -13.9160   -3.9590   10.6430 N.3   243  CYS243     -0.1235
     33  CA       -14.0740   -4.7790    9.4310 C.3   243  CYS243      0.1677
     34  C        -14.9000   -4.1550    8.2950 C.2   243  CYS243      0.2270
     35  O        -16.0620   -3.7820    8.4970 O.2   243  CYS243     -0.2867
     36  CB       -14.7570   -6.0890    9.7450 C.3   243  CYS243      0.0956
     37  SG       -13.8790   -7.0880   10.9350 S.3   243  CYS243     -0.0801
     38  N        -16.2840   -5.6500    4.8480 N.3   245  ASP245     -0.1239
     39  CA       -16.4680   -6.8470    4.0610 C.3   245  ASP245      0.1674
     40  C        -17.3310   -6.5100    2.8840 C.2   245  ASP245      0.2266
     41  O        -18.3590   -5.8700    3.0460 O.2   245  ASP245     -0.2867
     42  CB       -17.1080   -7.9550    4.8940 C.3   245  ASP245      0.1410
     43  CG       -16.1970   -8.4260    5.9840 C.2   245  ASP245      0.3668
     44  OD1      -15.0960   -8.9120    5.6600 O.co2 245  ASP245     -0.2456
     45  OD2      -16.5490   -8.2800    7.1750 O.co2 245  ASP245     -0.2456
     46  N        -18.6590   -4.2800   11.4970 N.3   252  ASP252     -0.1239
     47  CA       -18.2370   -4.8910   12.7450 C.3   252  ASP252      0.1674
     48  C        -17.0590   -4.1700   13.3460 C.2   252  ASP252      0.2266
     49  O        -16.1720   -3.7120   12.6280 O.2   252  ASP252     -0.2867
     50  CB       -17.8630   -6.3390   12.5090 C.3   252  ASP252      0.1410
     51  CG       -17.6440   -7.1070   13.7950 C.2   252  ASP252      0.3668
     52  OD1      -18.3970   -6.8670   14.7780 O.co2 252  ASP252     -0.2456
     53  OD2      -16.7290   -7.9690   13.7760 O.co2 252  ASP252     -0.2456
     54  N         -9.6870   -7.3990   19.9030 N.3   256  ILE256     -0.1245
     55  CA        -8.9470   -8.5500   19.4110 C.3   256  ILE256      0.1561
     56  C         -7.9890   -9.1370   20.4740 C.2   256  ILE256      0.2260
     57  O         -8.0780  -10.3260   20.8070 O.2   256  ILE256     -0.2867
     58  CB        -8.1290   -8.1550   18.1370 C.3   256  ILE256      0.0252
     59  CG1       -9.0800   -7.8100   16.9930 C.3   256  ILE256      0.0019
     60  CG2       -7.1770   -9.2680   17.7050 C.3   256  ILE256      0.0019
     61  CD1       -9.9070   -8.9640   16.4780 C.3   256  ILE256      0.0001
     62  N        -11.0240  -15.1560    1.3030 N.3   273  PHE273     -0.1241
     63  CA       -12.1420  -16.0420    1.7150 C.3   273  PHE273      0.1605
     64  C        -12.4980  -17.0750    0.6550 C.2   273  PHE273      0.2264
     65  O        -12.8160  -18.2240    0.9890 O.2   273  PHE273     -0.2867
     66  CB       -13.3960  -15.2140    2.0760 C.3   273  PHE273      0.0534
     67  CG       -13.3110  -14.5080    3.4190 C.ar  273  PHE273     -0.0203
     68  CD1      -13.1270  -15.2310    4.6110 C.ar  273  PHE273     -0.0042
     69  CD2      -13.4020  -13.1240    3.4940 C.ar  273  PHE273     -0.0042
     70  CE1      -13.0540  -14.5700    5.8470 C.ar  273  PHE273     -0.0003
     71  CE2      -13.3360  -12.4580    4.7230 C.ar  273  PHE273     -0.0003
     72  CZ       -13.1590  -13.1840    5.9030 C.ar  273  PHE273     -0.0000
     73  N         -8.5950  -15.5740    4.4790 N.3   278  PRO278     -0.2116
     74  CA        -7.2390  -15.1080    4.4770 C.3   278  PRO278      0.1372
     75  C         -6.4040  -15.5940    5.6960 C.2   278  PRO278      0.2244
     76  O         -6.9230  -16.2620    6.6030 O.2   278  PRO278     -0.2868
     77  CB        -7.4250  -13.6210    4.5380 C.3   278  PRO278      0.0268
     78  CG        -8.5950  -13.4630    5.4570 C.3   278  PRO278      0.0207
     79  CD        -9.4910  -14.6210    5.1460 C.3   278  PRO278      0.0892
     80  N         -4.1840  -13.6260    8.6470 N.3   280  LEU280     -0.1245
     81  CA        -3.8130  -12.3350    9.2550 C.3   280  LEU280      0.1561
     82  C         -2.7480  -12.5380   10.3350 C.2   280  LEU280      0.2260
     83  O         -2.7830  -13.5540   11.0780 O.2   280  LEU280     -0.2867
     84  CB        -5.0210  -11.6170    9.8900 C.3   280  LEU280      0.0270
     85  CG        -6.2910  -11.4200    9.0620 C.3   280  LEU280      0.0019
     86  CD1       -7.3480  -10.7300    9.9010 C.3   280  LEU280      0.0001
     87  CD2       -5.9970  -10.6730    7.7470 C.3   280  LEU280      0.0001
     88  N         -0.1690  -11.9930   16.8660 N.3   296  TRP296     -0.1241
     89  CA        -1.5420  -12.5460   16.7990 C.3   296  TRP296      0.1605
     90  C         -1.8280  -13.1250   15.4410 C.2   296  TRP296      0.2264
     91  O         -1.3990  -12.5500   14.4230 O.2   296  TRP296     -0.2867
     92  CB        -2.5520  -11.4330   17.0470 C.3   296  TRP296      0.0550
     93  CG        -4.0050  -11.8450   17.0120 C.ar  296  TRP296      0.0003
     94  CD1       -4.7190  -12.4790   18.0080 C.ar  296  TRP296      0.0946
     95  CD2       -4.9550  -11.6450   15.9300 C.ar  296  TRP296      0.0152
     96  NE1       -6.0090  -12.6720   17.6360 N.ar  296  TRP296     -0.2442
     97  CE2       -6.2250  -12.1910   16.4010 C.ar  296  TRP296      0.0810
     98  CE3       -4.8880  -11.0800   14.6760 C.ar  296  TRP296      0.0012
     99  CZ2       -7.3640  -12.1820   15.6250 C.ar  296  TRP296      0.0191
    100  CZ3       -6.0390  -11.0620   13.8930 C.ar  296  TRP296      0.0001
    101  CH2       -7.2560  -11.6030   14.3640 C.ar  296  TRP296      0.0015
    102  N         -4.7730  -14.8890   12.7060 N.3   298  TRP298     -0.1241
    103  CA        -6.0640  -15.3530   12.1880 C.3   298  TRP298      0.1605
    104  C         -5.8700  -16.2040   10.9420 C.2   298  TRP298      0.2264
    105  O         -5.1700  -15.7950    9.9930 O.2   298  TRP298     -0.2867
    106  CB        -7.0200  -14.2110   11.9040 C.3   298  TRP298      0.0550
    107  CG        -8.4460  -14.6730   11.8870 C.ar  298  TRP298      0.0003
    108  CD1       -9.3600  -14.6350   12.9390 C.ar  298  TRP298      0.0946
    109  CD2       -9.1730  -15.3130   10.7850 C.ar  298  TRP298      0.0152
    110  NE1      -10.5750  -15.1500   12.5600 N.ar  298  TRP298     -0.2442
    111  CE2      -10.5280  -15.5830   11.2870 C.ar  298  TRP298      0.0810
    112  CE3       -8.8580  -15.6800    9.4790 C.ar  298  TRP298      0.0012
    113  CZ2      -11.4960  -16.1960   10.4970 C.ar  298  TRP298      0.0191
    114  CZ3       -9.8560  -16.2720    8.6960 C.ar  298  TRP298      0.0001
    115  CH2      -11.1390  -16.5200    9.1980 C.ar  298  TRP298      0.0015
    116  N         -9.1320  -17.1170   15.5780 N.3   304  SER304     -0.1217
    117  CA        -8.4080  -16.1000   16.2840 C.3   304  SER304      0.1889
    118  C         -7.5310  -16.7250   17.3470 C.2   304  SER304      0.2288
    119  O         -8.0450  -17.4170   18.1980 O.2   304  SER304     -0.2866
    120  CB        -9.4280  -15.1830   16.9330 C.3   304  SER304      0.2089
    121  OG        -8.7860  -14.1630   17.6520 O.3   304  SER304     -0.2183
@<TRIPOS>BOND
     1     3     4    2
     2     3     2    1
     3    64    65    2
     4    64    63    1
     5     2     1    1
     6     2     5    1
     7    62    63    1
     8     5     6    1
     9    63    66    1
    10    66    67    1
    11     7     6   ar
    12     7     9   ar
    13     6     8   ar
    14    40    41    2
    15    40    39    1
    16    67    69   ar
    17    67    68   ar
    18     9    11   ar
    19    69    71   ar
    20     8    10   ar
    21    39    38    1
    22    39    42    1
    23    74    73    1
    24    74    77    1
    25    74    75    1
    26    73    79    1
    27    77    78    1
    28    68    70   ar
    29    71    72   ar
    30    11    10   ar
    31    42    43    1
    32    79    78    1
    33    44    43   ar
    34    75    76    2
    35    70    72   ar
    36    43    45   ar
    37    12    13    1
    38    21    20    1
    39    22    20    1
    40    20    19    2
    41    87    85    1
    42    17    16    1
    43    17    18    1
    44    13    16    1
    45    13    14    1
    46    34    35    2
    47    34    33    1
    48    15    14    2
    49    19    18    1
    50    80    81    1
    51   114   115   ar
    52   114   112   ar
    53    85    84    1
    54    85    86    1
    55   115   113   ar
    56    81    84    1
    57    81    82    1
    58    33    36    1
    59    33    32    1
    60   112   109   ar
    61    36    37    1
    62   105   104    2
    63    82    83    2
    64   113   111   ar
    65   109   111   ar
    66   109   107   ar
    67   104   103    1
    68   111   110   ar
    69    46    47    1
    70   107   106    1
    71   107   108   ar
    72   106   103    1
    73   103   102    1
    74    30    29    2
    75    50    47    1
    76    50    51    1
    77   110   108   ar
    78    49    48    2
    79    47    48    1
    80    29    28    1
    81    29    31   am
    82    28    27    1
    83    53    51   ar
    84    51    52   ar
    85   100   101   ar
    86   100    98   ar
    87    25    26    2
    88    25    24    1
    89   101    99   ar
    90    91    90    2
    91    27    24    1
    92    98    95   ar
    93    24    23    1
    94    90    89    1
    95   116   117    1
    96    99    97   ar
    97    95    97   ar
    98    95    93   ar
    99   117   120    1
   100   117   118    1
   101    97    96   ar
   102    61    59    1
   103    89    88    1
   104    89    92    1
   105   120   121    1
   106    59    58    1
   107    93    92    1
   108    93    94   ar
   109   118   119    2
   110    96    94   ar
   111    60    58    1
   112    58    55    1
   113    55    54    1
   114    55    56    1
   115    56    57    2
