@<TRIPOS>MOLECULE
tmp/4ahaB00.pdb
 89 83 0 0 0
SMALL
GASTEIGER

@<TRIPOS>ATOM
      1  N          8.8090   24.5720   40.4430 N.3    24  ARG24      -0.1245
      2  CA         9.5470   24.3520   39.1770 C.3    24  ARG24       0.1563
      3  C          9.2220   22.9540   38.6150 C.2    24  ARG24       0.2260
      4  O          9.1190   21.9580   39.3870 O.2    24  ARG24      -0.2867
      5  CB        11.0530   24.4580   39.3680 C.3    24  ARG24       0.0307
      6  CG        11.5650   25.7370   40.0290 C.3    24  ARG24       0.0489
      7  CD        11.4180   26.9470   39.1070 C.3    24  ARG24       0.2205
      8  NE        11.8980   28.1870   39.7040 N.pl3  24  ARG24      -0.0865
      9  CZ        11.1900   29.0170   40.4740 C.cat  24  ARG24       0.5346
     10  NH1        9.9290   28.7840   40.7980 N.pl3  24  ARG24       0.1354
     11  NH2       11.7600   30.1240   40.9330 N.pl3  24  ARG24       0.1354
     12  N         12.5190   24.0420   31.6910 N.3    36  GLU36      -0.1245
     13  CA        11.9370   24.3900   32.9570 C.3    36  GLU36       0.1567
     14  C         10.7470   25.3530   32.8430 C.2    36  GLU36       0.2260
     15  O         10.8510   26.4710   32.2850 O.2    36  GLU36      -0.2867
     16  CB        12.9890   25.0090   33.8530 C.3    36  GLU36       0.0388
     17  CG        12.5260   25.2520   35.2830 C.3    36  GLU36       0.1160
     18  CD        13.4490   26.1900   36.0280 C.2    36  GLU36       0.3649
     19  OE1       13.4880   27.3720   35.5930 O.co2  36  GLU36      -0.2457
     20  OE2       14.1560   25.7520   36.9830 O.co2  36  GLU36      -0.2457
     21  N          7.9230   27.3550   35.4210 N.3    38  LEU38      -0.1245
     22  CA         8.0870   28.0440   36.6950 C.3    38  LEU38       0.1561
     23  C          6.7380   28.5200   37.1790 C.2    38  LEU38       0.2260
     24  O          5.9250   28.9120   36.3720 O.2    38  LEU38      -0.2867
     25  CB         9.0600   29.2000   36.4920 C.3    38  LEU38       0.0270
     26  CG         9.2350   30.4220   37.4010 C.3    38  LEU38       0.0019
     27  CD1       10.4930   31.1150   36.9120 C.3    38  LEU38       0.0001
     28  CD2        8.0520   31.4100   37.4320 C.3    38  LEU38       0.0001
     29  N          5.7000   31.3500   40.0900 N.3    40  GLU40      -0.1245
     30  CA         5.9600   32.3510   41.1170 C.3    40  GLU40       0.1567
     31  C          4.7840   33.3180   41.0960 C.2    40  GLU40       0.2260
     32  O          4.8460   34.3540   40.4510 O.2    40  GLU40      -0.2867
     33  CB         7.2620   33.0990   40.8140 C.3    40  GLU40       0.0388
     34  CG         8.5440   32.2930   41.0110 C.3    40  GLU40       0.1160
     35  CD         8.8600   32.0000   42.4670 C.2    40  GLU40       0.3649
     36  OE1        8.2090   32.5960   43.3270 O.co2  40  GLU40      -0.2457
     37  OE2        9.7620   31.1930   42.7680 O.co2  40  GLU40      -0.2457
     38  N         14.3510   26.0960   46.9770 N.3    68  LEU68      -0.1245
     39  CA        14.7990   26.4730   45.6190 C.3    68  LEU68       0.1561
     40  C         16.2100   27.0910   45.6120 C.2    68  LEU68       0.2260
     41  O         16.6060   27.7400   44.6350 O.2    68  LEU68      -0.2867
     42  CB        13.7830   27.4060   44.9080 C.3    68  LEU68       0.0270
     43  CG        12.3880   26.8090   44.6270 C.3    68  LEU68       0.0019
     44  CD1       11.5380   27.7810   43.8200 C.3    68  LEU68       0.0001
     45  CD2       12.5060   25.4710   43.9050 C.3    68  LEU68       0.0001
     46  N         19.0400   23.0550   43.2450 N.3    71  ILE71      -0.1245
     47  CA        18.2120   22.1100   42.4500 C.3    71  ILE71       0.1561
     48  C         19.1730   21.2430   41.6460 C.2    71  ILE71       0.2260
     49  O         20.1640   21.7410   41.0910 O.2    71  ILE71      -0.2867
     50  CB        17.2660   22.8250   41.4650 C.3    71  ILE71       0.0252
     51  CG1       16.4210   23.8750   42.1850 C.3    71  ILE71       0.0019
     52  CG2       16.3680   21.8120   40.7240 C.3    71  ILE71       0.0019
     53  CD1       15.7140   24.8320   41.2340 C.3    71  ILE71       0.0001
     54  N         21.5880   23.6820   39.6190 N.3    87  TYR87      -0.1241
     55  CA        21.3120   25.0610   39.9770 C.3    87  TYR87       0.1605
     56  C         21.6970   25.3740   41.4340 C.2    87  TYR87       0.2264
     57  O         21.1970   24.7380   42.3660 O.2    87  TYR87      -0.2867
     58  CB        19.8430   25.4100   39.7690 C.3    87  TYR87       0.0534
     59  CG        19.6130   26.8800   40.0870 C.ar   87  TYR87      -0.0201
     60  CD1       19.8680   27.8670   39.1490 C.ar   87  TYR87      -0.0009
     61  CD2       19.2470   27.2730   41.3780 C.ar   87  TYR87      -0.0009
     62  CE1       19.7170   29.2140   39.4830 C.ar   87  TYR87       0.0417
     63  CE2       19.1040   28.5970   41.7260 C.ar   87  TYR87       0.0417
     64  CZ        19.3360   29.5690   40.7910 C.ar   87  TYR87       0.1957
     65  OH        19.1680   30.8830   41.1860 O.3    87  TYR87      -0.2866
     66  N         21.5910   28.8160   43.9070 N.3    89  SER89      -0.1202
     67  CA        21.2240   30.2190   44.1580 C.3    89  SER89       0.2020
     68  C         22.4630   31.1310   44.1820 C.2    89  SER89       0.2619
     69  O         23.3790   30.8920   44.9470 O.2    89  SER89      -0.2717
     70  CB        20.4350   30.3050   45.4980 C.3    89  SER89       0.2103
     71  OG        19.3680   31.2550   45.4690 O.3    89  SER89      -0.2182
     72  N         22.5020   32.1540   43.3080 N.am   90  GLY90      -0.1956
     73  CA        23.6690   33.0270   43.1800 C.3    90  GLY90       0.1869
     74  C         24.8590   32.4130   42.4300 C.2    90  GLY90       0.2309
     75  O         25.9750   32.9640   42.4530 O.2    90  GLY90      -0.2863
     76  N         22.7520   27.9760   36.5450 N.3    93  TRP93      -0.1241
     77  CA        22.8510   26.6060   35.9980 C.3    93  TRP93       0.1605
     78  C         24.2120   26.3150   35.4770 C.2    93  TRP93       0.2264
     79  O         24.8530   27.1540   34.8490 O.2    93  TRP93      -0.2867
     80  CB        21.8030   26.3270   34.9010 C.3    93  TRP93       0.0550
     81  CG        20.3830   26.3370   35.4320 C.ar   93  TRP93       0.0003
     82  CD1       19.5030   27.4240   35.4950 C.ar   93  TRP93       0.0946
     83  CD2       19.6570   25.2190   36.0480 C.ar   93  TRP93       0.0152
     84  NE1       18.3100   27.0620   36.0540 N.ar   93  TRP93      -0.2442
     85  CE2       18.3510   25.7380   36.4310 C.ar   93  TRP93       0.0810
     86  CE3       19.9490   23.8910   36.3000 C.ar   93  TRP93       0.0012
     87  CZ2       17.3900   24.9290   37.0380 C.ar   93  TRP93       0.0191
     88  CZ3       18.9710   23.0790   36.9020 C.ar   93  TRP93       0.0001
     89  CH2       17.7340   23.5840   37.2830 C.ar   93  TRP93       0.0015
@<TRIPOS>BOND
     1    12    13    1
     2    15    14    2
     3    14    13    1
     4    13    16    1
     5    16    17    1
     6    79    78    2
     7    80    81    1
     8    80    77    1
     9    17    18    1
    10    21    22    1
    11    81    82   ar
    12    81    83   ar
    13    78    77    1
    14    82    84   ar
    15    19    18   ar
    16    77    76    1
    17    18    20   ar
    18    83    86   ar
    19    83    85   ar
    20    84    85   ar
    21    86    88   ar
    22    24    23    2
    23    85    87   ar
    24    25    22    1
    25    25    26    1
    26    22    23    1
    27    88    89   ar
    28    27    26    1
    29    87    89   ar
    30    26    28    1
    31     3     2    1
    32     3     4    2
    33     7     8    1
    34     7     6    1
    35    60    62   ar
    36    60    59   ar
    37     2     5    1
    38     2     1    1
    39     5     6    1
    40    62    64   ar
    41    54    55    1
    42     8     9    2
    43    58    55    1
    44    58    59    1
    45    55    56    1
    46    59    61   ar
    47    29    30    1
    48    32    31    2
    49     9    10    1
    50     9    11    1
    51    52    50    1
    52    64    65    1
    53    64    63   ar
    54    33    34    1
    55    33    30    1
    56    34    35    1
    57    49    48    2
    58    31    30    1
    59    53    51    1
    60    61    63   ar
    61    56    57    2
    62    50    51    1
    63    50    47    1
    64    48    47    1
    65    74    75    2
    66    74    73    1
    67    47    46    1
    68    35    37   ar
    69    35    36   ar
    70    73    72    1
    71    72    68   am
    72    44    43    1
    73    45    43    1
    74    66    67    1
    75    67    68    1
    76    67    70    1
    77    68    69    2
    78    43    42    1
    79    41    40    2
    80    42    39    1
    81    71    70    1
    82    40    39    1
    83    39    38    1
