@<TRIPOS>MOLECULE
tmp/4ahaB03.pdb
 154 147 0 0 0
SMALL
GASTEIGER

@<TRIPOS>ATOM
      1  N         13.3290   11.9410   54.5320 N.3   165  PHE165     -0.1241
      2  CA        12.7500   12.6660   55.6630 C.3   165  PHE165      0.1605
      3  C         13.6130   12.3660   56.9330 C.2   165  PHE165      0.2264
      4  O         14.4010   11.3930   56.9730 O.2   165  PHE165     -0.2867
      5  CB        11.3120   12.2530   55.8790 C.3   165  PHE165      0.0534
      6  CG        11.1350   10.7840   56.2170 C.ar  165  PHE165     -0.0203
      7  CD1       11.1380   10.3430   57.5540 C.ar  165  PHE165     -0.0042
      8  CD2       10.9040    9.8390   55.2210 C.ar  165  PHE165     -0.0042
      9  CE1       10.9620    9.0020   57.8660 C.ar  165  PHE165     -0.0003
     10  CE2       10.7210    8.4980   55.5440 C.ar  165  PHE165     -0.0003
     11  CZ        10.7660    8.0770   56.8630 C.ar  165  PHE165     -0.0000
     12  N         13.1090   11.8870   60.9850 N.3   167  TYR167     -0.1241
     13  CA        12.3410   11.7800   62.2260 C.3   167  TYR167      0.1605
     14  C         12.9590   12.7950   63.2010 C.2   167  TYR167      0.2264
     15  O         14.1780   12.8570   63.3400 O.2   167  TYR167     -0.2867
     16  CB        12.4550   10.3830   62.8260 C.3   167  TYR167      0.0534
     17  CG        11.7200    9.2840   62.1270 C.ar  167  TYR167     -0.0201
     18  CD1       10.3670    9.3830   61.8400 C.ar  167  TYR167     -0.0009
     19  CD2       12.3660    8.1040   61.8060 C.ar  167  TYR167     -0.0009
     20  CE1        9.7010    8.3290   61.2080 C.ar  167  TYR167      0.0417
     21  CE2       11.7080    7.0590   61.1850 C.ar  167  TYR167      0.0417
     22  CZ        10.3760    7.1650   60.8910 C.ar  167  TYR167      0.1957
     23  OH         9.7340    6.1000   60.2810 O.3   167  TYR167     -0.2866
     24  N         15.4340   11.8790   65.8240 N.3   170  TYR170     -0.1241
     25  CA        16.6590   11.2360   65.3330 C.3   170  TYR170      0.1605
     26  C         17.6290   12.3170   64.8820 C.2   170  TYR170      0.2264
     27  O         17.2310   13.4090   64.5540 O.2   170  TYR170     -0.2867
     28  CB        16.3610   10.2760   64.1550 C.3   170  TYR170      0.0534
     29  CG        15.6540    8.9850   64.5260 C.ar  170  TYR170     -0.0201
     30  CD1       15.0420    8.8350   65.7700 C.ar  170  TYR170     -0.0009
     31  CD2       15.5850    7.9010   63.6410 C.ar  170  TYR170     -0.0009
     32  CE1       14.3800    7.6690   66.1320 C.ar  170  TYR170      0.0417
     33  CE2       14.9190    6.7220   64.0000 C.ar  170  TYR170      0.0417
     34  CZ        14.3160    6.5970   65.2670 C.ar  170  TYR170      0.1957
     35  OH        13.6610    5.4300   65.7310 O.3   170  TYR170     -0.2866
     36  N         13.2830    6.2560   51.8500 N.3   176  ARG176     -0.1245
     37  CA        12.3640    5.2510   51.3140 C.3   176  ARG176      0.1563
     38  C         12.4290    5.2960   49.7730 C.2   176  ARG176      0.2260
     39  O         12.4670    6.4130   49.1500 O.2   176  ARG176     -0.2867
     40  CB        10.9520    5.5420   51.7970 C.3   176  ARG176      0.0307
     41  CG        10.8050    5.5710   53.3150 C.3   176  ARG176      0.0489
     42  CD        10.8130    4.1690   53.9300 C.3   176  ARG176      0.2205
     43  NE        10.7100    4.1670   55.4110 N.pl3 176  ARG176     -0.0865
     44  CZ        11.7370    4.3450   56.2590 C.cat 176  ARG176      0.5346
     45  NH1       12.9910    4.5850   55.8270 N.pl3 176  ARG176      0.1354
     46  NH2       11.5160    4.2620   57.5590 N.pl3 176  ARG176      0.1354
     47  N          8.4410   -1.4310   48.4060 N.3   188  GLN188     -0.1245
     48  CA         9.2340   -0.4660   49.1830 C.3   188  GLN188      0.1566
     49  C         10.5350   -1.0800   49.7440 C.2   188  GLN188      0.2260
     50  O         10.5200   -2.1940   50.3070 O.2   188  GLN188     -0.2867
     51  CB         8.3810    0.0560   50.3710 C.3   188  GLN188      0.0367
     52  CG         9.0660    1.1060   51.2520 C.3   188  GLN188      0.0905
     53  CD         8.4370    1.2100   52.6260 C.2   188  GLN188      0.2608
     54  OE1        7.7070    2.1570   52.9090 O.2   188  GLN188     -0.2717
     55  NE2        8.7250    0.2430   53.4880 N.am  188  GLN188     -0.0878
     56  N         13.6490    0.4260   52.5330 N.3   190  ALA190     -0.1245
     57  CA        13.7140    1.4080   53.6200 C.3   190  ALA190      0.1562
     58  C         15.1050    1.4950   54.2730 C.2   190  ALA190      0.2260
     59  O         15.7750    0.4830   54.5470 O.2   190  ALA190     -0.2867
     60  CB        12.6430    1.1130   54.6760 C.3   190  ALA190      0.0290
     61  N         16.6950    3.4800   57.5750 N.3   192  ASP192     -0.1239
     62  CA        16.6840    4.2960   58.7730 C.3   192  ASP192      0.1674
     63  C         18.1310    4.4340   59.2820 C.2   192  ASP192      0.2266
     64  O         18.9540    3.5320   59.1110 O.2   192  ASP192     -0.2867
     65  CB        15.7910    3.6860   59.8510 C.3   192  ASP192      0.1410
     66  CG        14.3090    3.9900   59.6560 C.2   192  ASP192      0.3668
     67  OD1       13.9820    4.9880   58.9940 O.co2 192  ASP192     -0.2456
     68  OD2       13.4620    3.2200   60.1980 O.co2 192  ASP192     -0.2456
     69  N         19.5660    4.2690   62.2370 N.3   194  HIS194     -0.1226
     70  CA        20.0340    3.2250   63.1810 C.3   194  HIS194      0.1752
     71  C         20.1300    1.8310   62.5900 C.2   194  HIS194      0.2595
     72  O         21.0920    1.1050   62.8390 O.2   194  HIS194     -0.2718
     73  CB        19.2090    3.1770   64.4830 C.3   194  HIS194      0.0759
     74  CG        17.7000    2.9460   64.3170 C.ar  194  HIS194      0.0818
     75  ND1       17.0100    3.2370   63.1860 N.ar  194  HIS194     -0.2268
     76  CD2       16.7440    2.4780   65.2410 C.ar  194  HIS194      0.1154
     77  CE1       15.7010    2.9310   63.3550 C.ar  194  HIS194      0.1986
     78  NE2       15.5310    2.4890   64.6130 N.ar  194  HIS194     -0.2212
     79  N         19.1270    1.4260   61.8190 N.am  195  LYS195     -0.1980
     80  CA        19.1080    0.0840   61.2660 C.3   195  LYS195      0.1596
     81  C         19.7690   -0.0510   59.8830 C.2   195  LYS195      0.2287
     82  O         20.0640   -1.1780   59.4550 O.2   195  LYS195     -0.2864
     83  CB        17.6710   -0.4320   61.2840 C.3   195  LYS195      0.0298
     84  CG        17.3610   -1.0720   62.6190 C.3   195  LYS195      0.0038
     85  CD        15.9440   -0.9040   63.0810 C.3   195  LYS195      0.0206
     86  CE        15.8340   -1.3790   64.5420 C.3   195  LYS195      0.1093
     87  NZ        14.4680   -1.8880   64.8420 N.3   195  LYS195     -0.1314
     88  N         16.8050   -1.9810   55.8450 N.3   198  TYR198     -0.1241
     89  CA        16.1010   -3.1790   56.2740 C.3   198  TYR198      0.1605
     90  C         16.1510   -4.2040   55.1600 C.2   198  TYR198      0.2264
     91  O         15.9820   -3.8330   53.9960 O.2   198  TYR198     -0.2867
     92  CB        14.6340   -2.9000   56.5960 C.3   198  TYR198      0.0534
     93  CG        14.3780   -1.9630   57.7610 C.ar  198  TYR198     -0.0201
     94  CD1       14.3050   -0.5860   57.5530 C.ar  198  TYR198     -0.0009
     95  CD2       14.1650   -2.4550   59.0670 C.ar  198  TYR198     -0.0009
     96  CE1       14.0750    0.3000   58.6020 C.ar  198  TYR198      0.0417
     97  CE2       13.9140   -1.5920   60.1270 C.ar  198  TYR198      0.0417
     98  CZ        13.8770   -0.1990   59.8870 C.ar  198  TYR198      0.1957
     99  OH        13.6460    0.6900   60.8830 O.3   198  TYR198     -0.2866
    100  N          8.7210   -4.4430   51.2450 N.3   202  VAL202     -0.1245
    101  CA         7.3310   -4.3300   51.6700 C.3   202  VAL202      0.1561
    102  C          6.4330   -4.0810   50.4370 C.2   202  VAL202      0.2260
    103  O          6.6420   -3.1360   49.6860 O.2   202  VAL202     -0.2867
    104  CB         7.1710   -3.2230   52.7750 C.3   202  VAL202      0.0252
    105  CG1        5.7190   -2.7580   52.9130 C.3   202  VAL202      0.0019
    106  CG2        7.7350   -3.7010   54.1260 C.3   202  VAL202      0.0019
    107  N          9.2470    9.9300   65.5990 N.3   224  SER224     -0.1217
    108  CA         8.9070    8.5780   65.1380 C.3   224  SER224      0.1889
    109  C          7.6170    8.4880   64.3070 C.2   224  SER224      0.2288
    110  O          6.9450    7.4590   64.2780 O.2   224  SER224     -0.2866
    111  CB         8.8180    7.6470   66.3420 C.3   224  SER224      0.2089
    112  OG        10.0710    7.6150   67.0100 O.3   224  SER224     -0.2183
    113  N          5.6450    9.7680   60.4320 N.3   226  ILE226     -0.1245
    114  CA         5.8180   10.2600   59.0490 C.3   226  ILE226      0.1561
    115  C          4.5590    9.9570   58.2100 C.2   226  ILE226      0.2260
    116  O          3.7980    9.0390   58.5430 O.2   226  ILE226     -0.2867
    117  CB         7.1130    9.7150   58.3860 C.3   226  ILE226      0.0252
    118  CG1        7.4210   10.4430   57.0830 C.3   226  ILE226      0.0019
    119  CG2        7.0310    8.2120   58.1100 C.3   226  ILE226      0.0019
    120  CD1        7.6800   11.9240   57.2310 C.3   226  ILE226      0.0001
    121  N          3.3290    9.5450   54.0160 N.3   228  MET228     -0.1245
    122  CA         3.9110    9.3690   52.6740 C.3   228  MET228      0.1570
    123  C          2.8360    9.0190   51.6650 C.2   228  MET228      0.2261
    124  O          1.8420    8.4360   52.0110 O.2   228  MET228     -0.2867
    125  CB         5.0130    8.2850   52.6330 C.3   228  MET228      0.0387
    126  CG         5.9350    8.2350   53.8120 C.3   228  MET228      0.0595
    127  SD         7.1640    6.9440   53.7150 S.3   228  MET228     -0.1393
    128  CE         6.3110    5.4320   54.0830 C.3   228  MET228      0.0692
    129  N          0.6220    6.2090   53.1560 N.3   244  TRP244     -0.1241
    130  CA         1.1280    5.8680   54.4930 C.3   244  TRP244      0.1605
    131  C          0.7190    6.9830   55.3850 C.2   244  TRP244      0.2264
    132  O          1.0350    8.1610   55.1260 O.2   244  TRP244     -0.2867
    133  CB         2.6440    5.6680   54.5320 C.3   244  TRP244      0.0550
    134  CG         3.1550    5.4190   55.9380 C.ar  244  TRP244      0.0003
    135  CD1        3.3610    6.3670   56.9350 C.ar  244  TRP244      0.0946
    136  CD2        3.5190    4.1330   56.5610 C.ar  244  TRP244      0.0152
    137  NE1        3.8230    5.7840   58.0870 N.ar  244  TRP244     -0.2442
    138  CE2        3.9390    4.4480   57.9300 C.ar  244  TRP244      0.0810
    139  CE3        3.5260    2.8070   56.1390 C.ar  244  TRP244      0.0012
    140  CZ2        4.3110    3.4750   58.8200 C.ar  244  TRP244      0.0191
    141  CZ3        3.9490    1.8190   57.0440 C.ar  244  TRP244      0.0001
    142  CH2        4.3220    2.1470   58.3550 C.ar  244  TRP244      0.0015
    143  N          0.2660    1.4570   55.8050 N.3   250  TYR250     -0.1241
    144  CA        -0.2880    1.4600   54.4300 C.3   250  TYR250      0.1605
    145  C         -1.7530    1.0200   54.4360 C.2   250  TYR250      0.2264
    146  O         -2.0410   -0.1900   54.4960 O.2   250  TYR250     -0.2867
    147  CB         0.5120    0.5450   53.5080 C.3   250  TYR250      0.0534
    148  CG         1.8450    1.1060   53.0660 C.ar  250  TYR250     -0.0201
    149  CD1        1.9110    2.2470   52.3090 C.ar  250  TYR250     -0.0009
    150  CD2        3.0470    0.4890   53.4230 C.ar  250  TYR250     -0.0009
    151  CE1        3.1180    2.7770   51.8950 C.ar  250  TYR250      0.0417
    152  CE2        4.2810    1.0240   53.0100 C.ar  250  TYR250      0.0417
    153  CZ         4.3020    2.1700   52.2550 C.ar  250  TYR250      0.1957
    154  OH         5.5150    2.6780   51.8430 O.3   250  TYR250     -0.2866
@<TRIPOS>BOND
     1    47    48    1
     2    39    38    2
     3    48    49    1
     4    48    51    1
     5   103   102    2
     6    49    50    2
     7    38    37    1
     8    51    52    1
     9   102   101    1
    10   100   101    1
    11    52    53    1
    12    37    40    1
    13    37    36    1
    14   123   124    2
    15   123   122    1
    16   101   104    1
    17    40    41    1
    18   154   153    1
    19   151   153   ar
    20   151   149   ar
    21   153   152   ar
    22   149   148   ar
    23    56    57    1
    24    53    54    2
    25    53    55   am
    26   125   122    1
    27   125   126    1
    28   122   121    1
    29   104   105    1
    30   104   106    1
    31   152   150   ar
    32   148   150   ar
    33   148   147    1
    34   129   130    1
    35    41    42    1
    36   147   144    1
    37    57    58    1
    38    57    60    1
    39   127   126    1
    40   127   128    1
    41    42    43    1
    42    91    90    2
    43    58    59    2
    44   144   145    1
    45   144   143    1
    46   145   146    2
    47   130   133    1
    48   130   131    1
    49   133   134    1
    50     1     2    1
    51   132   131    2
    52    90    89    1
    53     8    10   ar
    54     8     6   ar
    55    43    44    2
    56    10    11   ar
    57     2     5    1
    58     2     3    1
    59    45    44    1
    60    88    89    1
    61     5     6    1
    62   134   136   ar
    63   134   135   ar
    64   139   136   ar
    65   139   141   ar
    66     6     7   ar
    67    44    46    1
    68    89    92    1
    69   136   138   ar
    70    92    93    1
    71    11     9   ar
    72     3     4    2
    73   135   137   ar
    74   141   142   ar
    75   118   120    1
    76   118   117    1
    77    94    93   ar
    78    94    96   ar
    79     7     9   ar
    80    61    62    1
    81    93    95   ar
    82   138   137   ar
    83   138   140   ar
    84   119   117    1
    85   115   116    2
    86   115   114    1
    87   142   140   ar
    88   117   114    1
    89    96    98   ar
    90    62    63    1
    91    62    65    1
    92    67    66   ar
    93   114   113    1
    94    95    97   ar
    95    64    63    2
    96    82    81    2
    97    66    65    1
    98    66    68   ar
    99    81    80    1
   100    98    97   ar
   101    98    99    1
   102    23    22    1
   103    22    21   ar
   104    22    20   ar
   105    12    13    1
   106    21    19   ar
   107    20    18   ar
   108    80    83    1
   109    80    79    1
   110    83    84    1
   111    19    17   ar
   112    79    71   am
   113    18    17   ar
   114    17    16    1
   115    13    16    1
   116    13    14    1
   117    69    70    1
   118    71    72    2
   119    71    70    1
   120    84    85    1
   121    85    86    1
   122    70    73    1
   123    75    77   ar
   124    75    74   ar
   125    14    15    2
   126    77    78   ar
   127    31    33   ar
   128    31    29   ar
   129    33    34   ar
   130    28    29    1
   131    28    25    1
   132   110   109    2
   133   109   108    1
   134    74    73    1
   135    74    76   ar
   136    29    30   ar
   137    86    87    1
   138    27    26    2
   139    78    76   ar
   140    26    25    1
   141   108   107    1
   142   108   111    1
   143    34    35    1
   144    34    32   ar
   145    25    24    1
   146    30    32   ar
   147   111   112    1
