@<TRIPOS>MOLECULE
tmp/4ahrA01.pdb
 100 97 0 0 0
SMALL
GASTEIGER

@<TRIPOS>ATOM
      1  N         15.7360  -19.7360   -3.4510 N.3    28  TYR28      -0.1241
      2  CA        15.3080  -18.6290   -2.5720 C.3    28  TYR28       0.1605
      3  C         16.5610  -17.7720   -2.3370 C.2    28  TYR28       0.2264
      4  O         17.6420  -18.3210   -2.2170 O.2    28  TYR28      -0.2867
      5  CB        14.8150  -19.1990   -1.2610 C.3    28  TYR28       0.0534
      6  CG        14.6790  -18.2110   -0.1080 C.ar   28  TYR28      -0.0201
      7  CD1       15.8020  -17.8640    0.7090 C.ar   28  TYR28      -0.0009
      8  CD2       13.4230  -17.6750    0.2050 C.ar   28  TYR28      -0.0009
      9  CE1       15.6630  -17.0510    1.8070 C.ar   28  TYR28       0.0417
     10  CE2       13.2420  -16.8630    1.2890 C.ar   28  TYR28       0.0417
     11  CZ        14.3720  -16.5380    2.0880 C.ar   28  TYR28       0.1957
     12  OH        14.1380  -15.7670    3.1240 O.3    28  TYR28      -0.2866
     13  N         18.4120  -18.7610    8.7310 N.3    53  TRP53      -0.1241
     14  CA        18.1580  -20.0210    8.0750 C.3    53  TRP53       0.1605
     15  C         19.2620  -20.9550    8.5210 C.2    53  TRP53       0.2264
     16  O         20.3410  -20.4960    8.8220 O.2    53  TRP53      -0.2867
     17  CB        18.2460  -19.8660    6.5650 C.3    53  TRP53       0.0550
     18  CG        17.0810  -19.1190    5.9560 C.ar   53  TRP53       0.0003
     19  CD1       17.0540  -17.8100    5.5100 C.ar   53  TRP53       0.0946
     20  CD2       15.7510  -19.6150    5.7710 C.ar   53  TRP53       0.0152
     21  NE1       15.8200  -17.4880    5.0850 N.ar   53  TRP53      -0.2442
     22  CE2       14.9840  -18.5190    5.1900 C.ar   53  TRP53       0.0810
     23  CE3       15.1290  -20.8310    5.9980 C.ar   53  TRP53       0.0012
     24  CZ2       13.6460  -18.6380    4.8920 C.ar   53  TRP53       0.0191
     25  CZ3       13.7640  -20.9540    5.6770 C.ar   53  TRP53       0.0001
     26  CH2       13.0480  -19.8890    5.1450 C.ar   53  TRP53       0.0015
     27  N         11.9120   -9.7080   -2.8080 N.3   126  PHE126     -0.1241
     28  CA        10.5510  -10.0640   -2.5290 C.3   126  PHE126      0.1605
     29  C          9.9010  -10.7200   -3.7890 C.2   126  PHE126      0.2264
     30  O          9.3170  -11.8070   -3.7140 O.2   126  PHE126     -0.2867
     31  CB         9.8070   -8.7480   -2.1080 C.3   126  PHE126      0.0534
     32  CG         8.3150   -8.9640   -1.7760 C.ar  126  PHE126     -0.0203
     33  CD1        7.3820   -9.1710   -2.7930 C.ar  126  PHE126     -0.0042
     34  CD2        7.8670   -8.8960   -0.4590 C.ar  126  PHE126     -0.0042
     35  CE1        6.0350   -9.4280   -2.4980 C.ar  126  PHE126     -0.0003
     36  CE2        6.5110   -9.0940   -0.1560 C.ar  126  PHE126     -0.0003
     37  CZ         5.5930   -9.3500   -1.1820 C.ar  126  PHE126     -0.0000
     38  N         11.3560  -14.1790   -4.5100 N.3   129  ASN129     -0.1225
     39  CA        11.0440  -15.2890   -3.6080 C.3   129  ASN129      0.1785
     40  C          9.5490  -15.6880   -3.6620 C.2   129  ASN129      0.2597
     41  O          9.2060  -16.8020   -3.3120 O.2   129  ASN129     -0.2718
     42  CB        11.4330  -14.9140   -2.1700 C.3   129  ASN129      0.1169
     43  CG        12.9570  -14.9390   -1.9800 C.2   129  ASN129      0.2627
     44  OD1       13.6470  -15.5920   -2.7770 O.2   129  ASN129     -0.2716
     45  ND2       13.4750  -14.3180   -0.9010 N.am  129  ASN129     -0.0877
     46  N          8.6950  -14.7630   -4.0710 N.am  130  HIS130     -0.1975
     47  CA         7.2660  -15.0170   -4.1430 C.3   130  HIS130      0.1656
     48  C          6.8370  -15.5590   -5.5070 C.2   130  HIS130      0.2291
     49  O          5.7190  -16.1020   -5.6450 O.2   130  HIS130     -0.2864
     50  CB         6.5120  -13.7440   -3.8960 C.3   130  HIS130      0.0771
     51  CG         6.4560  -13.3370   -2.4400 C.ar  130  HIS130      0.0820
     52  ND1        7.4140  -12.5930   -1.8600 N.ar  130  HIS130     -0.2267
     53  CD2        5.5070  -13.6130   -1.4530 C.ar  130  HIS130      0.1154
     54  CE1        7.0820  -12.3640   -0.5840 C.ar  130  HIS130      0.1986
     55  NE2        5.9170  -12.9990   -0.3250 N.ar  130  HIS130     -0.2212
     56  N          5.7000  -17.6170   -8.3550 N.3   132  ARG132     -0.1245
     57  CA         5.2990  -19.0200   -8.6420 C.3   132  ARG132      0.1563
     58  C          5.8750  -19.4640   -9.9440 C.2   132  ARG132      0.2260
     59  O          5.7260  -18.7590  -10.9530 O.2   132  ARG132     -0.2867
     60  CB         3.7630  -19.1220   -8.7860 C.3   132  ARG132      0.0307
     61  CG         2.9970  -19.2990   -7.4970 C.3   132  ARG132      0.0489
     62  CD         2.1030  -18.0730   -7.1850 C.3   132  ARG132      0.2205
     63  NE         1.5950  -18.1140   -5.7910 N.pl3 132  ARG132     -0.0865
     64  CZ         1.7400  -19.1340   -4.9300 C.cat 132  ARG132      0.5346
     65  NH1        2.3750  -20.2730   -5.2550 N.pl3 132  ARG132      0.1354
     66  NH2        1.2460  -19.0020   -3.7250 N.pl3 132  ARG132      0.1354
     67  N          6.5030  -21.3300   -5.1730 N.3   138  SER138     -0.1217
     68  CA         7.5120  -20.2490   -5.1420 C.3   138  SER138      0.1889
     69  C          8.8390  -20.7640   -4.5010 C.2   138  SER138      0.2288
     70  O          8.8880  -21.8500   -3.8830 O.2   138  SER138     -0.2866
     71  CB         6.9790  -19.0210   -4.4190 C.3   138  SER138      0.2089
     72  OG         6.8510  -19.3230   -3.0450 O.3   138  SER138     -0.2183
     73  N         10.1810  -19.3220   -1.9790 N.3   140  GLY140     -0.1210
     74  CA         9.8850  -19.2520   -0.5650 C.3   140  GLY140      0.1956
     75  C          9.1950  -20.5080   -0.0470 C.2   140  GLY140      0.2611
     76  O          9.5020  -20.9800    1.0470 O.2   140  GLY140     -0.2717
     77  N          8.2530  -21.0420   -0.8290 N.am  141  GLU141     -0.1979
     78  CA         7.5750  -22.2940   -0.4920 C.3   141  GLU141      0.1602
     79  C          8.5510  -23.4640   -0.5280 C.2   141  GLU141      0.2287
     80  O          8.5520  -24.2530    0.3990 O.2   141  GLU141     -0.2864
     81  CB         6.3800  -22.5550   -1.4300 C.3   141  GLU141      0.0415
     82  CG         5.2760  -21.5210   -1.2270 C.3   141  GLU141      0.1163
     83  CD         4.0750  -21.6350   -2.1850 C.2   141  GLU141      0.3649
     84  OE1        4.2320  -22.0480   -3.3730 O.co2 141  GLU141     -0.2457
     85  OE2        2.9630  -21.2880   -1.6980 O.co2 141  GLU141     -0.2457
     86  N         11.8340  -23.5100   -0.0720 N.3   143  ILE143     -0.1231
     87  CA        12.8670  -23.5800    0.9690 C.3   143  ILE143      0.1692
     88  C         12.2440  -24.0110    2.2740 C.2   143  ILE143      0.2591
     89  O         12.8000  -24.8470    2.9930 O.2   143  ILE143     -0.2718
     90  CB        13.7250  -22.2940    1.0830 C.3   143  ILE143      0.0266
     91  CG1       14.8470  -22.5370    2.1180 C.3   143  ILE143      0.0019
     92  CG2       12.8380  -21.0740    1.4670 C.3   143  ILE143      0.0020
     93  CD1       15.7630  -21.2970    2.3240 C.3   143  ILE143      0.0001
     94  N         11.0330  -23.5460    2.5380 N.am  144  VAL144     -0.1980
     95  CA        10.3670  -23.9390    3.7700 C.3   144  VAL144      0.1595
     96  C         10.0600  -25.4540    3.7360 C.2   144  VAL144      0.2287
     97  O         10.2780  -26.1560    4.7080 O.2   144  VAL144     -0.2864
     98  CB         9.0840  -23.0730    3.9850 C.3   144  VAL144      0.0276
     99  CG1        8.1920  -23.6400    5.0770 C.3   144  VAL144      0.0022
    100  CG2        9.4630  -21.6370    4.3730 C.3   144  VAL144      0.0022
@<TRIPOS>BOND
     1    59    58    2
     2    58    57    1
     3    60    57    1
     4    60    61    1
     5    57    56    1
     6    61    62    1
     7    62    63    1
     8    63    64    2
     9    49    48    2
    10    48    47    1
    11    65    64    1
    12    67    68    1
    13    68    69    1
    14    68    71    1
    15    64    66    1
    16    38    39    1
    17    69    70    2
    18    71    72    1
    19    47    46    1
    20    47    50    1
    21    46    40   am
    22    50    51    1
    23    29    30    2
    24    29    28    1
    25    40    39    1
    26    40    41    2
    27    39    42    1
    28     1     2    1
    29    84    83   ar
    30    27    28    1
    31    33    35   ar
    32    33    32   ar
    33    44    43    2
    34     2     3    1
    35     2     5    1
    36    28    31    1
    37    35    37   ar
    38    51    52   ar
    39    51    53   ar
    40     3     4    2
    41    83    85   ar
    42    83    82    1
    43    42    43    1
    44    31    32    1
    45    43    45   am
    46    73    74    1
    47    52    54   ar
    48    32    34   ar
    49    53    55   ar
    50    81    82    1
    51    81    78    1
    52     5     6    1
    53    37    36   ar
    54    77    78    1
    55    77    75   am
    56    54    55   ar
    57    74    75    1
    58    79    78    1
    59    79    80    2
    60    34    36   ar
    61     6     8   ar
    62     6     7   ar
    63    86    87    1
    64    75    76    2
    65     8    10   ar
    66     7     9   ar
    67    87    90    1
    68    87    88    1
    69    90    92    1
    70    90    91    1
    71    10    11   ar
    72     9    11   ar
    73    11    12    1
    74    91    93    1
    75    88    94   am
    76    88    89    2
    77    94    95    1
    78    96    95    1
    79    96    97    2
    80    95    98    1
    81    98   100    1
    82    98    99    1
    83    24    26   ar
    84    24    22   ar
    85    21    22   ar
    86    21    19   ar
    87    26    25   ar
    88    22    20   ar
    89    19    18   ar
    90    25    23   ar
    91    20    18   ar
    92    20    23   ar
    93    18    17    1
    94    17    14    1
    95    14    15    1
    96    14    13    1
    97    15    16    2
