@<TRIPOS>MOLECULE
tmp/4ahuB01.pdb
 89 86 0 0 0
SMALL
GASTEIGER

@<TRIPOS>ATOM
      1  N        -15.7100   21.0300   16.7110 N.3    28  TYR28      -0.1241
      2  CA       -15.2840   22.1430   15.8290 C.3    28  TYR28       0.1605
      3  C        -16.5150   23.0350   15.6050 C.2    28  TYR28       0.2264
      4  O        -17.6280   22.5010   15.5020 O.2    28  TYR28      -0.2867
      5  CB       -14.8240   21.5760   14.4850 C.3    28  TYR28       0.0534
      6  CG       -14.6060   22.5990   13.3580 C.ar   28  TYR28      -0.0201
      7  CD1      -15.6950   22.9210   12.5060 C.ar   28  TYR28      -0.0009
      8  CD2      -13.3510   23.1740   13.1290 C.ar   28  TYR28      -0.0009
      9  CE1      -15.5480   23.7910   11.4590 C.ar   28  TYR28       0.0417
     10  CE2      -13.1570   24.0180   12.0250 C.ar   28  TYR28       0.0417
     11  CZ       -14.2950   24.3250   11.1960 C.ar   28  TYR28       0.1957
     12  OH       -14.1540   25.1160   10.0510 O.3    28  TYR28      -0.2866
     13  N        -18.3590   22.0990    4.5360 N.3    53  TRP53      -0.1241
     14  CA       -18.1480   20.8060    5.1540 C.3    53  TRP53       0.1605
     15  C        -19.2280   19.8360    4.6590 C.2    53  TRP53       0.2264
     16  O        -20.2740   20.2830    4.2580 O.2    53  TRP53      -0.2867
     17  CB       -18.2830   20.9510    6.6680 C.3    53  TRP53       0.0550
     18  CG       -17.1530   21.7280    7.2430 C.ar   53  TRP53       0.0003
     19  CD1      -17.1550   23.0560    7.6510 C.ar   53  TRP53       0.0946
     20  CD2      -15.7840   21.2240    7.5100 C.ar   53  TRP53       0.0152
     21  NE1      -15.8870   23.4060    8.0480 N.ar   53  TRP53      -0.2442
     22  CE2      -15.0420   22.3520    8.0630 C.ar   53  TRP53       0.0810
     23  CE3      -15.1410   19.9990    7.3640 C.ar   53  TRP53       0.0012
     24  CZ2      -13.6630   22.2860    8.3520 C.ar   53  TRP53       0.0191
     25  CZ3      -13.7690   19.9390    7.7080 C.ar   53  TRP53       0.0001
     26  CH2      -13.0750   21.0450    8.2210 C.ar   53  TRP53       0.0015
     27  N        -11.4210   26.7070   17.9570 N.3   129  ASN129     -0.1225
     28  CA       -11.0730   25.5860   17.0120 C.3   129  ASN129      0.1785
     29  C         -9.5820   25.2300   17.0110 C.2   129  ASN129      0.2597
     30  O         -9.1900   24.1130   16.5850 O.2   129  ASN129     -0.2718
     31  CB       -11.4130   26.0100   15.6100 C.3   129  ASN129      0.1169
     32  CG       -12.9270   25.9450   15.3180 C.2   129  ASN129      0.2627
     33  OD1      -13.6750   25.2610   16.0370 O.2   129  ASN129     -0.2716
     34  ND2      -13.3610   26.6200   14.2340 N.am  129  ASN129     -0.0877
     35  N         -8.7560   26.1850   17.4210 N.am  130  HIS130     -0.1975
     36  CA        -7.3030   25.9090   17.4960 C.3   130  HIS130      0.1656
     37  C         -6.8700   25.4110   18.8580 C.2   130  HIS130      0.2291
     38  O         -5.7160   24.9820   19.0080 O.2   130  HIS130     -0.2864
     39  CB        -6.4680   27.1620   17.2150 C.3   130  HIS130      0.0771
     40  CG        -6.5380   27.6340   15.8090 C.ar  130  HIS130      0.0820
     41  ND1       -5.5350   27.3750   14.8660 N.ar  130  HIS130     -0.2267
     42  CD2       -7.4780   28.3690   15.1850 C.ar  130  HIS130      0.1154
     43  CE1       -5.9040   27.8990   13.7100 C.ar  130  HIS130      0.1986
     44  NE2       -7.0670   28.5550   13.9240 N.ar  130  HIS130     -0.2212
     45  N         -5.7700   23.3510   21.8580 N.3   132  ARG132     -0.1245
     46  CA        -5.3790   21.9450   22.1060 C.3   132  ARG132      0.1563
     47  C         -5.9180   21.4090   23.4250 C.2   132  ARG132      0.2260
     48  O         -5.8080   22.0860   24.4540 O.2   132  ARG132     -0.2867
     49  CB        -3.8510   21.8540   22.1150 C.3   132  ARG132      0.0307
     50  CG        -3.3090   22.3540   20.8010 C.3   132  ARG132      0.0489
     51  CD        -1.9030   21.8600   20.5400 C.3   132  ARG132      0.2205
     52  NE        -1.5840   22.1590   19.1490 N.pl3 132  ARG132     -0.0865
     53  CZ        -1.8850   21.3330   18.1620 C.cat 132  ARG132      0.5346
     54  NH1       -2.4380   20.1510   18.4360 N.pl3 132  ARG132      0.1354
     55  NH2       -1.6090   21.6820   16.9260 N.pl3 132  ARG132      0.1354
     56  N         -6.4080   19.6680   18.4120 N.3   137  SER137     -0.1217
     57  CA        -7.4540   20.7190   18.4340 C.3   137  SER137      0.1889
     58  C         -8.7770   20.1750   17.8000 C.2   137  SER137      0.2288
     59  O         -8.7760   19.1530   17.1280 O.2   137  SER137     -0.2866
     60  CB        -6.9820   21.9510   17.7240 C.3   137  SER137      0.2089
     61  OG        -6.6690   21.6110   16.4140 O.3   137  SER137     -0.2183
     62  N        -10.1150   21.5520   15.2370 N.3   139  GLY139     -0.1210
     63  CA        -9.7930   21.7260   13.8110 C.3   139  GLY139      0.1956
     64  C         -9.1110   20.4750   13.3110 C.2   139  GLY139      0.2611
     65  O         -9.4270   19.9580   12.2210 O.2   139  GLY139     -0.2717
     66  N         -8.1570   19.9650   14.1020 N.am  140  GLU140     -0.1979
     67  CA        -7.4790   18.7340   13.7210 C.3   140  GLU140      0.1602
     68  C         -8.4100   17.5520   13.7200 C.2   140  GLU140      0.2287
     69  O         -8.3030   16.7080   12.8530 O.2   140  GLU140     -0.2864
     70  CB        -6.2410   18.4120   14.6370 C.3   140  GLU140      0.0415
     71  CG        -5.1500   19.4240   14.3900 C.3   140  GLU140      0.1163
     72  CD        -4.0010   19.3980   15.4200 C.2   140  GLU140      0.3649
     73  OE1       -4.2120   19.0430   16.6040 O.co2 140  GLU140     -0.2457
     74  OE2       -2.9410   19.8670   14.9980 O.co2 140  GLU140     -0.2457
     75  N        -11.6890   17.4180   13.3600 N.3   142  ILE142     -0.1231
     76  CA       -12.7800   17.3270   12.3630 C.3   142  ILE142      0.1692
     77  C        -12.1280   16.8600   11.0320 C.2   142  ILE142      0.2591
     78  O        -12.6530   16.0110   10.2780 O.2   142  ILE142     -0.2718
     79  CB       -13.5840   18.6340   12.2580 C.3   142  ILE142      0.0266
     80  CG1      -14.7430   18.3800   11.2500 C.3   142  ILE142      0.0019
     81  CG2      -12.7040   19.8080   11.8190 C.3   142  ILE142      0.0020
     82  CD1      -15.7360   19.5790   10.9770 C.3   142  ILE142      0.0001
     83  N        -10.9630   17.3880   10.7200 N.am  143  VAL143     -0.1980
     84  CA       -10.2970   16.9960    9.4750 C.3   143  VAL143      0.1595
     85  C         -9.9630   15.4880    9.5040 C.2   143  VAL143      0.2287
     86  O        -10.1810   14.7720    8.5190 O.2   143  VAL143     -0.2864
     87  CB        -9.0340   17.8870    9.2230 C.3   143  VAL143      0.0276
     88  CG1       -8.1350   17.3180    8.1540 C.3   143  VAL143      0.0022
     89  CG2       -9.4330   19.2880    8.7730 C.3   143  VAL143      0.0022
@<TRIPOS>BOND
     1    16    15    2
     2    13    14    1
     3    15    14    1
     4    14    17    1
     5    17    18    1
     6    18    20   ar
     7    18    19   ar
     8    23    20   ar
     9    23    25   ar
    10    20    22   ar
    11    19    21   ar
    12    25    26   ar
    13    21    22   ar
    14    22    24   ar
    15    88    87    1
    16    26    24   ar
    17    86    85    2
    18    89    87    1
    19    87    84    1
    20    84    85    1
    21    84    83    1
    22    12    11    1
    23    78    77    2
    24    83    77   am
    25    82    80    1
    26    77    76    1
    27    11     9   ar
    28    11    10   ar
    29    80    79    1
    30     9     7   ar
    31    81    79    1
    32    10     8   ar
    33    65    64    2
    34    79    76    1
    35    76    75    1
    36     7     6   ar
    37    69    68    2
    38     8     6   ar
    39    64    63    1
    40    64    66   am
    41     6     5    1
    42    43    44   ar
    43    43    41   ar
    44    68    67    1
    45    67    66    1
    46    67    70    1
    47    63    62    1
    48    44    42   ar
    49    34    32   am
    50    71    70    1
    51    71    72    1
    52     5     2    1
    53    41    40   ar
    54    74    72   ar
    55    42    40   ar
    56    32    31    1
    57    32    33    2
    58    72    73   ar
    59     4     3    2
    60     3     2    1
    61    31    28    1
    62    40    39    1
    63     2     1    1
    64    61    60    1
    65    30    29    2
    66    55    53    1
    67    29    28    1
    68    29    35   am
    69    28    27    1
    70    59    58    2
    71    39    36    1
    72    35    36    1
    73    36    37    1
    74    60    57    1
    75    58    57    1
    76    53    54    1
    77    53    52    2
    78    56    57    1
    79    37    38    2
    80    52    51    1
    81    51    50    1
    82    50    49    1
    83    45    46    1
    84    46    49    1
    85    46    47    1
    86    47    48    2
