@<TRIPOS>MOLECULE
tmp/4ahvA01.pdb
 92 89 0 0 0
SMALL
GASTEIGER

@<TRIPOS>ATOM
      1  N        -10.5080   24.2750   -3.4180 N.3    27  TYR27      -0.1241
      2  CA       -11.6610   24.4890   -2.5290 C.3    27  TYR27       0.1605
      3  C        -11.7670   25.9860   -2.3030 C.2    27  TYR27       0.2264
      4  O        -10.7340   26.6460   -2.2650 O.2    27  TYR27      -0.2867
      5  CB       -11.3840   23.7850   -1.2400 C.3    27  TYR27       0.0534
      6  CG       -12.3630   24.1230   -0.1120 C.ar   27  TYR27      -0.0201
      7  CD1      -12.1270   25.2440    0.7160 C.ar   27  TYR27      -0.0009
      8  CD2      -13.4510   23.2760    0.1630 C.ar   27  TYR27      -0.0009
      9  CE1      -12.9860   25.5360    1.8000 C.ar   27  TYR27       0.0417
     10  CE2      -14.3150   23.5450    1.2810 C.ar   27  TYR27       0.0417
     11  CZ       -14.0200   24.6530    2.0940 C.ar   27  TYR27       0.1957
     12  OH       -14.7850   24.9530    3.1960 O.3    27  TYR27      -0.2866
     13  N        -10.0720   27.1230    8.7690 N.3    52  TRP52      -0.1241
     14  CA        -9.0830   26.2290    8.1010 C.3    52  TRP52       0.1605
     15  C         -7.7240   26.6960    8.5480 C.2    52  TRP52       0.2264
     16  O         -7.5970   27.8830    8.9180 O.2    52  TRP52      -0.2867
     17  CB        -9.1840   26.4320    6.6070 C.3    52  TRP52       0.0550
     18  CG       -10.4530   25.8200    6.0330 C.ar   52  TRP52       0.0003
     19  CD1      -11.5730   26.4660    5.5890 C.ar   52  TRP52       0.0946
     20  CD2      -10.7030   24.3890    5.8320 C.ar   52  TRP52       0.0152
     21  NE1      -12.5130   25.5420    5.1590 N.ar   52  TRP52      -0.2442
     22  CE2      -12.0320   24.2900    5.2200 C.ar   52  TRP52       0.0810
     23  CE3       -9.9160   23.2450    5.9350 C.ar   52  TRP52       0.0012
     24  CZ2      -12.6070   23.0430    4.8980 C.ar   52  TRP52       0.0191
     25  CZ3      -10.5100   21.9960    5.6420 C.ar   52  TRP52       0.0001
     26  CH2      -11.7780   21.9030    5.0780 C.ar   52  TRP52       0.0015
     27  N        -21.1540   26.0970   -2.7690 N.3   125  PHE125     -0.1241
     28  CA       -21.5230   24.7170   -2.5340 C.3   125  PHE125      0.1605
     29  C        -21.2880   23.8640   -3.8130 C.2   125  PHE125      0.2264
     30  O        -20.6580   22.8260   -3.7510 O.2   125  PHE125     -0.2867
     31  CB       -23.0440   24.6690   -2.1610 C.3   125  PHE125      0.0534
     32  CG       -23.5670   23.2530   -1.8090 C.ar  125  PHE125     -0.0203
     33  CD1      -23.8080   22.3560   -2.8070 C.ar  125  PHE125     -0.0042
     34  CD2      -23.8700   22.9270   -0.5110 C.ar  125  PHE125     -0.0042
     35  CE1      -24.2910   21.0830   -2.5030 C.ar  125  PHE125     -0.0003
     36  CE2      -24.3560   21.6560   -0.1430 C.ar  125  PHE125     -0.0003
     37  CZ       -24.5950   20.7530   -1.1800 C.ar  125  PHE125     -0.0000
     38  N        -17.5190   23.3590   -4.5730 N.3   128  ASN128     -0.1225
     39  CA       -16.7630   22.5250   -3.6260 C.3   128  ASN128      0.1785
     40  C        -17.1980   21.0670   -3.6660 C.2   128  ASN128      0.2597
     41  O        -16.4330   20.2040   -3.2950 O.2   128  ASN128     -0.2718
     42  CB       -16.8450   23.0540   -2.1760 C.3   128  ASN128      0.1169
     43  CG       -16.0780   24.3430   -1.9980 C.2   128  ASN128      0.2627
     44  OD1      -15.1850   24.6440   -2.7760 O.2   128  ASN128     -0.2716
     45  ND2      -16.4130   25.0910   -0.9400 N.am  128  ASN128     -0.0877
     46  N        -18.4260   20.7930   -4.1380 N.am  129  HIS129     -0.1975
     47  CA       -18.8820   19.4050   -4.1460 C.3   129  HIS129      0.1656
     48  C        -18.6590   18.7610   -5.5090 C.2   129  HIS129      0.2291
     49  O        -18.8070   17.5300   -5.6640 O.2   129  HIS129     -0.2864
     50  CB       -20.3750   19.3650   -3.8700 C.3   129  HIS129      0.0771
     51  CG       -20.7210   19.5390   -2.4210 C.ar  129  HIS129      0.0820
     52  ND1      -20.8580   20.7620   -1.8530 N.ar  129  HIS129     -0.2267
     53  CD2      -20.9690   18.5970   -1.4170 C.ar  129  HIS129      0.1154
     54  CE1      -21.1860   20.6010   -0.5420 C.ar  129  HIS129      0.1986
     55  NE2      -21.2450   19.2790   -0.2810 N.ar  129  HIS129     -0.2212
     56  N        -17.4880   16.7700   -8.4650 N.3   131  ARG131     -0.1245
     57  CA       -16.4740   15.6990   -8.6640 C.3   131  ARG131      0.1563
     58  C        -15.6500   15.8660   -9.9790 C.2   131  ARG131      0.2260
     59  O        -16.2710   16.0370  -11.0510 O.2   131  ARG131     -0.2867
     60  CB       -17.1890   14.3380   -8.6540 C.3   131  ARG131      0.0307
     61  CG       -17.3390   13.7850   -7.2470 C.3   131  ARG131      0.0489
     62  CD       -18.6730   13.0420   -6.9880 C.3   131  ARG131      0.2205
     63  NE       -18.8700   12.7670   -5.5410 N.pl3 131  ARG131     -0.0865
     64  CZ       -17.9020   12.4810   -4.6640 C.cat 131  ARG131      0.5346
     65  NH1      -16.6240   12.3700   -5.0360 N.pl3 131  ARG131      0.1354
     66  NH2      -18.2100   12.3060   -3.3960 N.pl3 131  ARG131      0.1354
     67  N        -13.8810   15.4990   -5.1260 N.3   135  SER135     -0.1217
     68  CA       -14.2530   16.9040   -5.1200 C.3   135  SER135      0.1889
     69  C        -13.1330   17.7630   -4.4460 C.2   135  SER135      0.2288
     70  O        -12.2380   17.2600   -3.7200 O.2   135  SER135     -0.2866
     71  CB       -15.6210   17.1130   -4.4410 C.3   135  SER135      0.2089
     72  OG       -15.4710   16.8410   -3.0780 O.3   135  SER135     -0.2183
     73  N        -13.7460   19.6880   -1.9830 N.3   137  GLY137     -0.1210
     74  CA       -14.0120   19.5080   -0.5040 C.3   137  GLY137      0.1956
     75  C        -13.2710   18.2840    0.0040 C.2   137  GLY137      0.2611
     76  O        -12.5910   18.3140    1.0340 O.2   137  GLY137     -0.2717
     77  N        -13.3390   17.1930   -0.7720 N.am  138  GLU138     -0.1979
     78  CA       -12.5490   16.0240   -0.4760 C.3   138  GLU138      0.1602
     79  C        -11.0440   16.2620   -0.4770 C.2   138  GLU138      0.2287
     80  O        -10.3610   15.7460    0.3990 O.2   138  GLU138     -0.2864
     81  CB       -12.9270   14.8450   -1.4450 C.3   138  GLU138      0.0415
     82  CG       -14.2780   14.2670   -1.0730 C.3   138  GLU138      0.1163
     83  CD       -14.8640   13.2760   -2.1170 C.2   138  GLU138      0.3649
     84  OE1      -14.4460   13.2780   -3.3040 O.co2 138  GLU138     -0.2457
     85  OE2      -15.7950   12.5620   -1.7020 O.co2 138  GLU138     -0.2457
     86  N         -9.6480   18.3150    2.6150 N.3   141  VAL141     -0.1245
     87  CA        -9.6910   17.5250    3.8530 C.3   141  VAL141      0.1561
     88  C         -8.5260   16.4840    3.8100 C.2   141  VAL141      0.2260
     89  O         -7.7410   16.3890    4.7580 O.2   141  VAL141     -0.2867
     90  CB       -11.0630   16.8400    3.9900 C.3   141  VAL141      0.0252
     91  CG1      -11.0050   15.6560    4.9340 C.3   141  VAL141      0.0019
     92  CG2      -12.0960   17.8530    4.5240 C.3   141  VAL141      0.0019
@<TRIPOS>BOND
     1    59    58    2
     2    58    57    1
     3    57    60    1
     4    57    56    1
     5    60    61    1
     6    61    62    1
     7    62    63    1
     8    49    48    2
     9    63    64    2
    10    48    47    1
    11    67    68    1
    12    68    69    1
    13    68    71    1
    14    65    64    1
    15    64    66    1
    16    38    39    1
    17    69    70    2
    18    71    72    1
    19    47    46    1
    20    47    50    1
    21    46    40   am
    22    50    51    1
    23    29    30    2
    24    29    28    1
    25    40    39    1
    26    40    41    2
    27    39    42    1
    28     1     2    1
    29    84    83   ar
    30    33    35   ar
    31    33    32   ar
    32    44    43    2
    33    27    28    1
    34    28    31    1
    35     2     3    1
    36     2     5    1
    37    35    37   ar
    38    51    52   ar
    39    51    53   ar
    40     3     4    2
    41    42    43    1
    42    31    32    1
    43    83    85   ar
    44    83    82    1
    45    43    45   am
    46    73    74    1
    47    52    54   ar
    48    32    34   ar
    49    81    82    1
    50    81    78    1
    51    53    55   ar
    52     5     6    1
    53    37    36   ar
    54    77    78    1
    55    77    75   am
    56    54    55   ar
    57    34    36   ar
    58    74    75    1
    59    79    78    1
    60    79    80    2
    61     6     8   ar
    62     6     7   ar
    63    75    76    2
    64     8    10   ar
    65     7     9   ar
    66    10    11   ar
    67     9    11   ar
    68    11    12    1
    69    86    87    1
    70    88    87    1
    71    88    89    2
    72    87    90    1
    73    90    92    1
    74    90    91    1
    75    24    26   ar
    76    24    22   ar
    77    26    25   ar
    78    21    22   ar
    79    21    19   ar
    80    22    20   ar
    81    19    18   ar
    82    25    23   ar
    83    20    23   ar
    84    20    18   ar
    85    18    17    1
    86    17    14    1
    87    14    15    1
    88    14    13    1
    89    15    16    2
