@<TRIPOS>MOLECULE
tmp/4ai7A04.pdb
 110 104 0 0 0
SMALL
GASTEIGER

@<TRIPOS>ATOM
      1  N         21.1120  -44.9820   -1.9710 N.3   221  LEU221     -0.1245
      2  CA        20.3950  -43.7390   -2.1700 C.3   221  LEU221      0.1561
      3  C         19.0000  -43.8740   -1.5790 C.2   221  LEU221      0.2260
      4  O         18.2680  -44.8080   -1.9140 O.2   221  LEU221     -0.2867
      5  CB        20.3110  -43.4200   -3.6670 C.3   221  LEU221      0.0270
      6  CG        19.7100  -42.0740   -4.0930 C.3   221  LEU221      0.0019
      7  CD1       20.5300  -40.9020   -3.5400 C.3   221  LEU221      0.0001
      8  CD2       19.6070  -41.9930   -5.6220 C.3   221  LEU221      0.0001
      9  N         16.3550  -38.0140   -3.1160 N.3   224  ALA224     -0.1231
     10  CA        16.9340  -37.1320   -4.1160 C.3   224  ALA224      0.1694
     11  C         16.7610  -35.7050   -3.6150 C.2   224  ALA224      0.2592
     12  O         16.6070  -35.5070   -2.4070 O.2   224  ALA224     -0.2718
     13  CB        16.2950  -37.3330   -5.4720 C.3   224  ALA224      0.0304
     14  N         16.7710  -34.7300   -4.5220 N.am  225  ASP225     -0.1974
     15  CA        16.7520  -33.3140   -4.1120 C.3   225  ASP225      0.1709
     16  C         15.6110  -32.9920   -3.1530 C.2   225  ASP225      0.2293
     17  O         15.8070  -32.3080   -2.1540 O.2   225  ASP225     -0.2864
     18  CB        16.5700  -32.3540   -5.2940 C.3   225  ASP225      0.1436
     19  CG        17.5890  -32.5370   -6.4070 C.2   225  ASP225      0.3671
     20  OD1       18.7630  -32.9120   -6.1660 O.co2 225  ASP225     -0.2456
     21  OD2       17.1820  -32.2670   -7.5510 O.co2 225  ASP225     -0.2456
     22  N         27.9270  -41.7810   -6.9370 N.3   238  LEU238     -0.1231
     23  CA        26.8090  -40.8610   -7.0440 C.3   238  LEU238      0.1693
     24  C         27.2910  -39.4640   -7.4350 C.2   238  LEU238      0.2592
     25  O         28.0040  -38.8050   -6.6630 O.2   238  LEU238     -0.2718
     26  CB        26.0620  -40.7860   -5.7160 C.3   238  LEU238      0.0284
     27  CG        24.8270  -39.8820   -5.6570 C.3   238  LEU238      0.0019
     28  CD1       23.7200  -40.3940   -6.5690 C.3   238  LEU238      0.0001
     29  CD2       24.3380  -39.8090   -4.2320 C.3   238  LEU238      0.0001
     30  N         26.8910  -39.0140   -8.6220 N.am  239  LEU239     -0.1966
     31  CA        27.2540  -37.6790   -9.0960 C.3   239  LEU239      0.1728
     32  C         26.2950  -36.6240   -8.5490 C.2   239  LEU239      0.2616
     33  O         25.0790  -36.7200   -8.7410 O.2   239  LEU239     -0.2715
     34  CB        27.2460  -37.6280  -10.6290 C.3   239  LEU239      0.0311
     35  CG        27.7250  -36.3060  -11.2560 C.3   239  LEU239      0.0022
     36  CD1       29.2370  -36.1170  -11.0300 C.3   239  LEU239      0.0001
     37  CD2       27.3840  -36.2610  -12.7630 C.3   239  LEU239      0.0001
     38  N         26.8270  -35.6240   -7.8520 N.am  240  LEU240     -0.1977
     39  CA        26.0260  -34.4730   -7.4340 C.3   240  LEU240      0.1596
     40  C         26.4780  -33.2210   -8.1630 C.2   240  LEU240      0.2287
     41  O         27.5960  -32.7410   -7.9570 O.2   240  LEU240     -0.2864
     42  CB        26.1350  -34.2200   -5.9320 C.3   240  LEU240      0.0297
     43  CG        25.0030  -34.7400   -5.0630 C.3   240  LEU240      0.0022
     44  CD1       25.0750  -36.2480   -5.0410 C.3   240  LEU240      0.0001
     45  CD2       25.1190  -34.1570   -3.6670 C.3   240  LEU240      0.0001
     46  N         22.1920  -29.8120   -6.5660 N.3   244  GLU244     -0.1231
     47  CA        21.5990  -31.0930   -6.1830 C.3   244  GLU244      0.1699
     48  C         21.8010  -31.4820   -4.7240 C.2   244  GLU244      0.2592
     49  O         22.7810  -31.0820   -4.0830 O.2   244  GLU244     -0.2718
     50  CB        22.0860  -32.2170   -7.1150 C.3   244  GLU244      0.0402
     51  CG        21.4200  -32.1820   -8.4910 C.3   244  GLU244      0.1161
     52  CD        21.8100  -33.3580   -9.3760 C.2   244  GLU244      0.3649
     53  OE1       23.0260  -33.6880   -9.4560 O.co2 244  GLU244     -0.2457
     54  OE2       20.8970  -33.9310  -10.0040 O.co2 244  GLU244     -0.2457
     55  N         20.8410  -32.2490   -4.2080 N.am  245  ARG245     -0.1966
     56  CA        20.9770  -32.9030   -2.9120 C.3   245  ARG245      0.1729
     57  C         20.6710  -34.3780   -3.0520 C.2   245  ARG245      0.2616
     58  O         20.0290  -34.8160   -4.0170 O.2   245  ARG245     -0.2715
     59  CB        20.0440  -32.3060   -1.8590 C.3   245  ARG245      0.0348
     60  CG        20.4010  -30.8800   -1.4540 C.3   245  ARG245      0.0492
     61  CD        19.7600  -29.8600   -2.4050 C.3   245  ARG245      0.2205
     62  NE        18.3050  -29.8650   -2.2630 N.pl3 245  ARG245     -0.0865
     63  CZ        17.4590  -29.5070   -3.2220 C.cat 245  ARG245      0.5346
     64  NH1       17.9130  -29.0970   -4.4000 N.pl3 245  ARG245      0.1354
     65  NH2       16.1470  -29.5520   -2.9990 N.pl3 245  ARG245      0.1354
     66  N         21.1190  -35.1340   -2.0600 N.am  246  ALA246     -0.1977
     67  CA        20.8080  -36.5530   -1.9670 C.3   246  ALA246      0.1597
     68  C         20.9580  -36.9670   -0.5190 C.2   246  ALA246      0.2287
     69  O         21.6540  -36.3040    0.2560 O.2   246  ALA246     -0.2864
     70  CB        21.7680  -37.3580   -2.8370 C.3   246  ALA246      0.0319
     71  N         15.1180  -43.1560  -15.8480 N.3   389  PHE389     -0.1241
     72  CA        15.6300  -42.9980  -14.4960 C.3   389  PHE389      0.1605
     73  C         15.2750  -44.2290  -13.6720 C.2   389  PHE389      0.2264
     74  O         14.1600  -44.7470  -13.7700 O.2   389  PHE389     -0.2867
     75  CB        15.0390  -41.7380  -13.8510 C.3   389  PHE389      0.0534
     76  CG        16.0690  -40.7460  -13.3930 C.ar  389  PHE389     -0.0203
     77  CD1       17.0440  -40.2830  -14.2650 C.ar  389  PHE389     -0.0042
     78  CD2       16.0500  -40.2580  -12.0940 C.ar  389  PHE389     -0.0042
     79  CE1       17.9850  -39.3600  -13.8500 C.ar  389  PHE389     -0.0003
     80  CE2       16.9930  -39.3390  -11.6770 C.ar  389  PHE389     -0.0003
     81  CZ        17.9530  -38.8880  -12.5560 C.ar  389  PHE389     -0.0000
     82  N         14.7270  -44.6400  -10.5210 N.3   391  TYR391     -0.1241
     83  CA        13.9010  -44.4540   -9.3320 C.3   391  TYR391      0.1605
     84  C         12.9040  -43.3310   -9.5400 C.2   391  TYR391      0.2264
     85  O         13.0850  -42.5030  -10.4300 O.2   391  TYR391     -0.2867
     86  CB        14.7700  -44.1460   -8.0950 C.3   391  TYR391      0.0534
     87  CG        15.6030  -42.8820   -8.1990 C.ar  391  TYR391     -0.0201
     88  CD1       15.0610  -41.6390   -7.8920 C.ar  391  TYR391     -0.0009
     89  CD2       16.9380  -42.9370   -8.5780 C.ar  391  TYR391     -0.0009
     90  CE1       15.8200  -40.4760   -7.9840 C.ar  391  TYR391      0.0417
     91  CE2       17.7170  -41.7750   -8.6600 C.ar  391  TYR391      0.0417
     92  CZ        17.1510  -40.5530   -8.3600 C.ar  391  TYR391      0.1957
     93  OH        17.9040  -39.3970   -8.4430 O.3   391  TYR391     -0.2866
     94  N         12.7080  -34.1330   -7.6750 N.3   395  LYS395     -0.1245
     95  CA        13.9620  -33.4070   -7.8940 C.3   395  LYS395      0.1561
     96  C         13.6320  -31.9890   -8.3190 C.2   395  LYS395      0.2260
     97  O         12.4910  -31.6870   -8.7110 O.2   395  LYS395     -0.2867
     98  CB        14.8500  -34.1030   -8.9430 C.3   395  LYS395      0.0271
     99  CG        15.5690  -35.3470   -8.3630 C.3   395  LYS395      0.0035
    100  CD        16.4650  -36.0580   -9.3680 C.3   395  LYS395      0.0206
    101  CE        17.5140  -35.1400  -10.0290 C.3   395  LYS395      0.1093
    102  NZ        18.4030  -34.4100   -9.0550 N.3   395  LYS395     -0.1314
    103  N         20.8640  -32.8600  -14.0330 N.3   399  ASN399     -0.1240
    104  CA        22.0780  -32.6440  -14.8130 C.3   399  ASN399      0.1653
    105  C         21.9580  -33.1730  -16.2320 C.2   399  ASN399      0.2266
    106  O         21.5290  -34.2970  -16.4430 O.2   399  ASN399     -0.2867
    107  CB        23.2990  -33.2890  -14.1750 C.3   399  ASN399      0.1155
    108  CG        24.5820  -32.7730  -14.7920 C.2   399  ASN399      0.2627
    109  OD1       24.7570  -31.5610  -14.9020 O.2   399  ASN399     -0.2716
    110  ND2       25.4500  -33.6720  -15.2490 N.am  399  ASN399     -0.0877
@<TRIPOS>BOND
     1   106   105    2
     2   105   104    1
     3    71    72    1
     4   110   108   am
     5   109   108    2
     6   104   107    1
     7   104   103    1
     8   108   107    1
     9    72    75    1
    10    72    73    1
    11    77    79   ar
    12    77    76   ar
    13    75    76    1
    14    79    81   ar
    15    74    73    2
    16    76    78   ar
    17    37    35    1
    18    81    80   ar
    19    78    80   ar
    20    35    36    1
    21    35    34    1
    22    34    31    1
    23    82    83    1
    24    85    84    2
    25   101   100    1
    26   101   102    1
    27    54    52   ar
    28    84    83    1
    29    53    52   ar
    30    52    51    1
    31   100    99    1
    32    83    86    1
    33    31    30    1
    34    31    32    1
    35    98    99    1
    36    98    95    1
    37    33    32    2
    38    97    96    2
    39    91    89   ar
    40    91    92   ar
    41    30    24   am
    42    89    87   ar
    43    32    38   am
    44    51    50    1
    45    93    92    1
    46    92    90   ar
    47    96    95    1
    48    87    86    1
    49    87    88   ar
    50    40    41    2
    51    40    39    1
    52    90    88   ar
    53    95    94    1
    54    38    39    1
    55    21    19   ar
    56    24    23    1
    57    24    25    2
    58    39    42    1
    59    50    47    1
    60    23    22    1
    61    23    26    1
    62    28    27    1
    63    46    47    1
    64    19    20   ar
    65    19    18    1
    66    47    48    1
    67    42    43    1
    68    26    27    1
    69    27    29    1
    70     8     6    1
    71    13    10    1
    72    18    15    1
    73    43    44    1
    74    43    45    1
    75    48    55   am
    76    48    49    2
    77    14    15    1
    78    14    11   am
    79    64    63    1
    80    55    56    1
    81    10    11    1
    82    10     9    1
    83    15    16    1
    84     6     5    1
    85     6     7    1
    86    58    57    2
    87     5     2    1
    88    11    12    2
    89    63    65    1
    90    63    62    2
    91    16    17    2
    92    57    56    1
    93    57    66   am
    94    56    59    1
    95    70    67    1
    96    61    62    1
    97    61    60    1
    98     2     1    1
    99     2     3    1
   100    66    67    1
   101    67    68    1
   102     4     3    2
   103    59    60    1
   104    68    69    2
