@<TRIPOS>MOLECULE
tmp/4ai7A12.pdb
 77 77 0 0 0
SMALL
GASTEIGER

@<TRIPOS>ATOM
      1  N         32.9420  -31.5430   11.9380 N.3     5  PRO5       -0.2102
      2  CA        32.2780  -30.2390   11.9570 C.3     5  PRO5        0.1504
      3  C         31.0230  -30.2600   11.0810 C.2     5  PRO5        0.2576
      4  O         31.0550  -30.7830    9.9690 O.2     5  PRO5       -0.2718
      5  CB        33.3330  -29.3060   11.3690 C.3     5  PRO5        0.0282
      6  CG        34.1480  -30.1740   10.4900 C.3     5  PRO5        0.0208
      7  CD        34.1690  -31.5310   11.1240 C.3     5  PRO5        0.0893
      8  N         29.9310  -29.7510   11.6330 N.am    6  GLU6       -0.1967
      9  CA        28.6620  -29.5910   10.9300 C.3     6  GLU6        0.1718
     10  C         28.0960  -28.2530   11.3530 C.2     6  GLU6        0.2458
     11  O         28.3380  -27.8130   12.4680 O.2     6  GLU6       -0.2730
     12  CB        27.6890  -30.6810   11.3580 C.3     6  GLU6        0.0428
     13  CG        27.8640  -31.9790   10.6300 C.3     6  GLU6        0.1163
     14  CD        26.9100  -33.0250   11.1480 C.2     6  GLU6        0.3649
     15  OE1       25.7480  -33.0720   10.6780 O.co2   6  GLU6       -0.2457
     16  OE2       27.3170  -33.7660   12.0640 O.co2   6  GLU6       -0.2457
     17  N         27.3340  -27.5970   10.4710 N.am    7  PRO7       -0.2727
     18  CA        26.7490  -26.3180   10.9020 C.3     7  PRO7        0.1402
     19  C         25.8290  -26.4660   12.1180 C.2     7  PRO7        0.2269
     20  O         25.1750  -27.4900   12.3020 O.2     7  PRO7       -0.2865
     21  CB        25.9390  -25.8770    9.6730 C.3     7  PRO7        0.0296
     22  CG        26.6420  -26.5530    8.5040 C.3     7  PRO7        0.0237
     23  CD        27.0330  -27.9050    9.0610 C.3     7  PRO7        0.0939
     24  N         37.9650  -18.1690   10.6880 N.3    29  ALA29      -0.1231
     25  CA        39.0650  -19.0670   10.4250 C.3    29  ALA29       0.1694
     26  C         38.4570  -20.2240    9.6690 C.2    29  ALA29       0.2591
     27  O         37.5140  -20.8600   10.1370 O.2    29  ALA29      -0.2718
     28  CB        39.6880  -19.5460   11.7040 C.3    29  ALA29       0.0304
     29  N         38.9510  -20.4380    8.4620 N.am   30  ILE30      -0.1980
     30  CA        38.7000  -21.6680    7.8020 C.3    30  ILE30       0.1595
     31  C         39.8050  -22.2470    7.0120 C.2    30  ILE30       0.2287
     32  O         40.5770  -21.6040    6.4080 O.2    30  ILE30      -0.2864
     33  CB        37.4500  -21.7470    6.9010 C.3    30  ILE30       0.0276
     34  CG1       37.5350  -20.9060    5.6550 C.3    30  ILE30       0.0022
     35  CG2       36.1630  -21.5120    7.6520 C.3    30  ILE30       0.0022
     36  CD1       36.3620  -21.3270    4.8090 C.3    30  ILE30       0.0001
     37  N         28.4390  -17.5350   10.2320 N.3    43  SER43      -0.1202
     38  CA        29.1500  -18.7940   10.0100 C.3    43  SER43       0.2020
     39  C         29.1810  -19.2180    8.5590 C.2    43  SER43       0.2619
     40  O         28.3160  -18.8480    7.7610 O.2    43  SER43      -0.2717
     41  CB        28.5110  -19.9220   10.8240 C.3    43  SER43       0.2103
     42  OG        27.1610  -20.1750   10.4130 O.3    43  SER43      -0.2182
     43  N         30.1700  -20.0360    8.2360 N.am   44  PHE44      -0.1962
     44  CA        30.1900  -20.7180    6.9600 C.3    44  PHE44       0.1756
     45  C         30.3140  -22.2390    7.1310 C.2    44  PHE44       0.2461
     46  O         31.2850  -22.7060    7.7230 O.2    44  PHE44      -0.2730
     47  CB        31.3220  -20.2270    6.0790 C.3    44  PHE44       0.0574
     48  CG        31.4010  -20.9700    4.8080 C.ar   44  PHE44      -0.0200
     49  CD1       30.3930  -20.8350    3.8670 C.ar   44  PHE44      -0.0042
     50  CD2       32.4290  -21.8670    4.5760 C.ar   44  PHE44      -0.0042
     51  CE1       30.4350  -21.5470    2.7000 C.ar   44  PHE44      -0.0003
     52  CE2       32.4810  -22.5760    3.4080 C.ar   44  PHE44      -0.0003
     53  CZ        31.4820  -22.4200    2.4750 C.ar   44  PHE44      -0.0000
     54  N         29.3290  -23.0090    6.6270 N.am   45  PRO45      -0.2727
     55  CA        28.0490  -22.5640    6.0400 C.3    45  PRO45       0.1402
     56  C         27.1690  -21.8470    7.0510 C.2    45  PRO45       0.2269
     57  O         27.4680  -21.8340    8.2500 O.2    45  PRO45      -0.2865
     58  CB        27.3570  -23.8810    5.6680 C.3    45  PRO45       0.0296
     59  CG        28.4600  -24.8640    5.4890 C.3    45  PRO45       0.0237
     60  CD        29.4640  -24.4740    6.5610 C.3    45  PRO45       0.0939
     61  N         31.4300  -28.8930    4.8330 N.3   183  ASN183     -0.1225
     62  CA        31.0090  -28.0540    5.9590 C.3   183  ASN183      0.1785
     63  C         32.0410  -26.9820    6.3210 C.2   183  ASN183      0.2598
     64  O         32.2020  -26.6460    7.4870 O.2   183  ASN183     -0.2718
     65  CB        30.6720  -28.9190    7.1820 C.3   183  ASN183      0.1169
     66  CG        29.5280  -29.8800    6.8980 C.2   183  ASN183      0.2627
     67  OD1       28.6830  -29.5910    6.0390 O.2   183  ASN183     -0.2716
     68  ND2       29.5010  -31.0260    7.5850 N.am  183  ASN183     -0.0877
     69  N         32.7310  -26.4490    5.3180 N.am  184  GLY184     -0.1942
     70  CA        33.7130  -25.4100    5.5500 C.3   184  GLY184      0.2014
     71  C         35.0280  -25.9040    6.1130 C.2   184  GLY184      0.2638
     72  O         35.9050  -25.1040    6.4350 O.2   184  GLY184     -0.2714
     73  N         35.1690  -27.2230    6.2250 N.am  185  ALA185     -0.1977
     74  CA        36.3800  -27.8290    6.7730 C.3   185  ALA185      0.1597
     75  C         37.1730  -28.5310    5.6780 C.2   185  ALA185      0.2287
     76  O         36.5980  -29.0790    4.7490 O.2   185  ALA185     -0.2864
     77  CB        36.0100  -28.8270    7.8640 C.3   185  ALA185      0.0319
@<TRIPOS>BOND
     1    53    51   ar
     2    53    52   ar
     3    51    49   ar
     4    52    50   ar
     5    49    48   ar
     6    50    48   ar
     7    76    75    2
     8    48    47    1
     9    36    34    1
    10    61    62    1
    11    69    70    1
    12    69    63   am
    13    59    58    1
    14    59    60    1
    15    70    71    1
    16    34    33    1
    17    58    55    1
    18    75    74    1
    19    62    63    1
    20    62    65    1
    21    67    66    2
    22    55    54    1
    23    55    56    1
    24    47    44    1
    25    71    73   am
    26    71    72    2
    27    73    74    1
    28    63    64    2
    29    32    31    2
    30    60    54    1
    31    54    45   am
    32    74    77    1
    33    66    65    1
    34    66    68   am
    35    33    35    1
    36    33    30    1
    37    44    45    1
    38    44    43    1
    39    31    30    1
    40    56    57    2
    41    45    46    2
    42    40    39    2
    43    30    29    1
    44    43    39   am
    45    29    26   am
    46    22    23    1
    47    22    21    1
    48    39    38    1
    49    23    17    1
    50    26    27    2
    51    26    25    1
    52    21    18    1
    53     4     3    2
    54    38    37    1
    55    38    41    1
    56    42    41    1
    57    25    24    1
    58    25    28    1
    59    17    18    1
    60    17    10   am
    61     6     7    1
    62     6     5    1
    63    13    14    1
    64    13    12    1
    65    15    14   ar
    66    18    19    1
    67     9    10    1
    68     9    12    1
    69     9     8    1
    70     3     8   am
    71     3     2    1
    72     7     1    1
    73    14    16   ar
    74    10    11    2
    75     5     2    1
    76     1     2    1
    77    19    20    2
