@<TRIPOS>MOLECULE
tmp/4ai7A00.pdb
 84 83 0 0 0
SMALL
GASTEIGER

@<TRIPOS>ATOM
      1  N         21.1120  -44.9820   -1.9710 N.3   221  LEU221     -0.1245
      2  CA        20.3950  -43.7390   -2.1700 C.3   221  LEU221      0.1561
      3  C         19.0000  -43.8740   -1.5790 C.2   221  LEU221      0.2260
      4  O         18.2680  -44.8080   -1.9140 O.2   221  LEU221     -0.2867
      5  CB        20.3110  -43.4200   -3.6670 C.3   221  LEU221      0.0270
      6  CG        19.7100  -42.0740   -4.0930 C.3   221  LEU221      0.0019
      7  CD1       20.5300  -40.9020   -3.5400 C.3   221  LEU221      0.0001
      8  CD2       19.6070  -41.9930   -5.6220 C.3   221  LEU221      0.0001
      9  N         18.1250  -47.4960   -3.2350 N.3   233  LEU233     -0.1245
     10  CA        18.7770  -47.8980   -4.4740 C.3   233  LEU233      0.1561
     11  C         20.2940  -47.9960   -4.2850 C.2   233  LEU233      0.2260
     12  O         20.9640  -47.0150   -3.9880 O.2   233  LEU233     -0.2867
     13  CB        18.4390  -46.9300   -5.6090 C.3   233  LEU233      0.0270
     14  CG        19.0810  -47.2450   -6.9680 C.3   233  LEU233      0.0019
     15  CD1       18.5040  -48.5420   -7.5600 C.3   233  LEU233      0.0001
     16  CD2       18.9280  -46.0960   -7.9410 C.3   233  LEU233      0.0001
     17  N         24.0450  -47.9610   -5.3000 N.3   235  VAL235     -0.1231
     18  CA        24.8640  -47.3810   -6.3670 C.3   235  VAL235      0.1692
     19  C         26.3330  -47.4980   -5.9890 C.2   235  VAL235      0.2593
     20  O         26.6720  -47.5260   -4.8060 O.2   235  VAL235     -0.2718
     21  CB        24.5210  -45.8760   -6.6380 C.3   235  VAL235      0.0266
     22  CG1       23.0530  -45.7140   -7.0260 C.3   235  VAL235      0.0020
     23  CG2       24.8660  -45.0050   -5.4280 C.3   235  VAL235      0.0020
     24  N         27.2050  -47.5950   -6.9830 N.am  236  SER236     -0.1938
     25  CA        28.6320  -47.6940   -6.7010 C.3   236  SER236      0.2055
     26  C         29.2460  -46.3040   -6.5620 C.2   236  SER236      0.2643
     27  O         30.3010  -46.1210   -5.9360 O.2   236  SER236     -0.2714
     28  CB        29.3470  -48.4860   -7.8010 C.3   236  SER236      0.2130
     29  OG        29.1710  -47.8600   -9.0590 O.3   236  SER236     -0.2179
     30  N         28.5780  -45.3330   -7.1650 N.am  237  GLU237     -0.1963
     31  CA        28.9990  -43.9490   -7.0860 C.3   237  GLU237      0.1733
     32  C         27.7870  -43.0580   -7.2770 C.2   237  GLU237      0.2616
     33  O         26.7380  -43.5130   -7.7340 O.2   237  GLU237     -0.2715
     34  CB        30.0690  -43.6490   -8.1330 C.3   237  GLU237      0.0429
     35  CG        29.6120  -43.8340   -9.5670 C.3   237  GLU237      0.1163
     36  CD        30.7170  -43.5290  -10.5630 C.2   237  GLU237      0.3649
     37  OE1       31.7420  -44.2370  -10.5460 O.co2 237  GLU237     -0.2457
     38  OE2       30.5580  -42.5730  -11.3490 O.co2 237  GLU237     -0.2457
     39  N         27.9270  -41.7810   -6.9370 N.am  238  LEU238     -0.1963
     40  CA        26.8090  -40.8610   -7.0440 C.3   238  LEU238      0.1728
     41  C         27.2910  -39.4640   -7.4350 C.2   238  LEU238      0.2616
     42  O         28.0040  -38.8050   -6.6630 O.2   238  LEU238     -0.2715
     43  CB        26.0620  -40.7860   -5.7160 C.3   238  LEU238      0.0311
     44  CG        24.8270  -39.8820   -5.6570 C.3   238  LEU238      0.0022
     45  CD1       23.7200  -40.3940   -6.5690 C.3   238  LEU238      0.0001
     46  CD2       24.3380  -39.8090   -4.2320 C.3   238  LEU238      0.0001
     47  N         26.8910  -39.0140   -8.6220 N.am  239  LEU239     -0.1977
     48  CA        27.2540  -37.6790   -9.0960 C.3   239  LEU239      0.1596
     49  C         26.2950  -36.6240   -8.5490 C.2   239  LEU239      0.2287
     50  O         25.0790  -36.7200   -8.7410 O.2   239  LEU239     -0.2864
     51  CB        27.2460  -37.6280  -10.6290 C.3   239  LEU239      0.0297
     52  CG        27.7250  -36.3060  -11.2560 C.3   239  LEU239      0.0022
     53  CD1       29.2370  -36.1170  -11.0300 C.3   239  LEU239      0.0001
     54  CD2       27.3840  -36.2610  -12.7630 C.3   239  LEU239      0.0001
     55  N         15.1180  -43.1560  -15.8480 N.3   389  PHE389     -0.1228
     56  CA        15.6300  -42.9980  -14.4960 C.3   389  PHE389      0.1721
     57  C         15.2750  -44.2290  -13.6720 C.2   389  PHE389      0.2437
     58  O         14.1600  -44.7470  -13.7700 O.2   389  PHE389     -0.2733
     59  CB        15.0390  -41.7380  -13.8510 C.3   389  PHE389      0.0547
     60  CG        16.0690  -40.7460  -13.3930 C.ar  389  PHE389     -0.0202
     61  CD1       17.0440  -40.2830  -14.2650 C.ar  389  PHE389     -0.0042
     62  CD2       16.0500  -40.2580  -12.0940 C.ar  389  PHE389     -0.0042
     63  CE1       17.9850  -39.3600  -13.8500 C.ar  389  PHE389     -0.0003
     64  CE2       16.9930  -39.3390  -11.6770 C.ar  389  PHE389     -0.0003
     65  CZ        17.9530  -38.8880  -12.5560 C.ar  389  PHE389     -0.0000
     66  N         16.2220  -44.7070  -12.8520 N.am  390  PRO390     -0.2718
     67  CA        16.0450  -45.9620  -12.1130 C.3   390  PRO390      0.1535
     68  C         15.2360  -45.8320  -10.8210 C.2   390  PRO390      0.2598
     69  O         15.0850  -46.8220  -10.1040 O.2   390  PRO390     -0.2715
     70  CB        17.4850  -46.3750  -11.7940 C.3   390  PRO390      0.0310
     71  CG        18.2270  -45.0880  -11.7270 C.3   390  PRO390      0.0237
     72  CD        17.6010  -44.1930  -12.7490 C.3   390  PRO390      0.0939
     73  N         14.7270  -44.6400  -10.5210 N.am  391  TYR391     -0.1974
     74  CA        13.9010  -44.4540   -9.3320 C.3   391  TYR391      0.1639
     75  C         12.9040  -43.3310   -9.5400 C.2   391  TYR391      0.2290
     76  O         13.0850  -42.5030  -10.4300 O.2   391  TYR391     -0.2864
     77  CB        14.7700  -44.1460   -8.0950 C.3   391  TYR391      0.0560
     78  CG        15.6030  -42.8820   -8.1990 C.ar  391  TYR391     -0.0198
     79  CD1       15.0610  -41.6390   -7.8920 C.ar  391  TYR391     -0.0009
     80  CD2       16.9380  -42.9370   -8.5780 C.ar  391  TYR391     -0.0009
     81  CE1       15.8200  -40.4760   -7.9840 C.ar  391  TYR391      0.0417
     82  CE2       17.7170  -41.7750   -8.6600 C.ar  391  TYR391      0.0417
     83  CZ        17.1510  -40.5530   -8.3600 C.ar  391  TYR391      0.1957
     84  OH        17.9040  -39.3970   -8.4430 O.3   391  TYR391     -0.2866
@<TRIPOS>BOND
     1    55    56    1
     2    56    59    1
     3    56    57    1
     4    61    63   ar
     5    61    60   ar
     6    59    60    1
     7    63    65   ar
     8    58    57    2
     9    57    66   am
    10    60    62   ar
    11    66    72    1
    12    66    67    1
    13    54    52    1
    14    72    71    1
    15    65    64   ar
    16    67    70    1
    17    67    68    1
    18    62    64   ar
    19    70    71    1
    20    38    36   ar
    21    52    53    1
    22    52    51    1
    23    68    73   am
    24    68    69    2
    25    51    48    1
    26    36    37   ar
    27    36    35    1
    28    73    74    1
    29    76    75    2
    30    35    34    1
    31    75    74    1
    32    74    77    1
    33    48    47    1
    34    48    49    1
    35    29    28    1
    36    50    49    2
    37    82    80   ar
    38    82    83   ar
    39    47    41   am
    40    80    78   ar
    41    84    83    1
    42    83    81   ar
    43    78    77    1
    44    78    79   ar
    45    34    31    1
    46    81    79   ar
    47    16    14    1
    48    28    25    1
    49    33    32    2
    50    15    14    1
    51    41    40    1
    52    41    42    2
    53    32    31    1
    54    32    39   am
    55    30    31    1
    56    30    26   am
    57    40    39    1
    58    40    43    1
    59    22    21    1
    60    24    25    1
    61    24    19   am
    62    14    13    1
    63    25    26    1
    64    21    18    1
    65    21    23    1
    66    45    44    1
    67    26    27    2
    68    18    19    1
    69    18    17    1
    70    19    20    2
    71    43    44    1
    72    44    46    1
    73     8     6    1
    74    13    10    1
    75    10    11    1
    76    10     9    1
    77    11    12    2
    78     6     5    1
    79     6     7    1
    80     5     2    1
    81     2     1    1
    82     2     3    1
    83     4     3    2
