@<TRIPOS>MOLECULE
tmp/4ai7A01.pdb
 93 92 0 0 0
SMALL
GASTEIGER

@<TRIPOS>ATOM
      1  N          2.7020  -29.8640    3.8150 N.3   103  LYS103     -0.1231
      2  CA         2.4340  -31.1110    4.5290 C.3   103  LYS103      0.1693
      3  C          3.1740  -32.3190    3.9670 C.2   103  LYS103      0.2592
      4  O          3.7350  -33.1130    4.7180 O.2   103  LYS103     -0.2718
      5  CB         0.9320  -31.4090    4.5520 C.3   103  LYS103      0.0285
      6  CG         0.6140  -32.8030    5.1020 C.3   103  LYS103      0.0035
      7  CD        -0.8680  -33.1480    4.9710 C.3   103  LYS103      0.0206
      8  CE        -1.1290  -34.6260    5.2680 C.3   103  LYS103      0.1093
      9  NZ        -2.5510  -35.0130    5.0020 N.3   103  LYS103     -0.1314
     10  N          3.1590  -32.4750    2.6490 N.am  104  GLU104     -0.1966
     11  CA         3.7240  -33.6690    2.0390 C.3   104  GLU104      0.1733
     12  C          5.1180  -33.3200    1.5690 C.2   104  GLU104      0.2616
     13  O          5.3120  -33.0390    0.3890 O.2   104  GLU104     -0.2715
     14  CB         2.8940  -34.1010    0.8200 C.3   104  GLU104      0.0429
     15  CG         1.5580  -34.7470    1.1570 C.3   104  GLU104      0.1163
     16  CD         1.7200  -36.0690    1.8800 C.2   104  GLU104      0.3649
     17  OE1        2.6880  -36.8010    1.5730 O.co2 104  GLU104     -0.2457
     18  OE2        0.8830  -36.3740    2.7590 O.co2 104  GLU104     -0.2457
     19  N          6.0720  -33.2990    2.4900 N.am  105  LEU105     -0.1963
     20  CA         7.4250  -32.8710    2.1450 C.3   105  LEU105      0.1728
     21  C          8.4430  -33.4500    3.1160 C.2   105  LEU105      0.2616
     22  O          8.1920  -33.5510    4.3230 O.2   105  LEU105     -0.2715
     23  CB         7.5180  -31.3340    2.1600 C.3   105  LEU105      0.0311
     24  CG         8.7990  -30.7350    1.5430 C.3   105  LEU105      0.0022
     25  CD1        8.8920  -31.0690    0.0530 C.3   105  LEU105      0.0001
     26  CD2        8.9040  -29.2120    1.7620 C.3   105  LEU105      0.0001
     27  N          9.6060  -33.8090    2.5860 N.am  106  ALA106     -0.1977
     28  CA        10.6890  -34.3060    3.4180 C.3   106  ALA106      0.1597
     29  C         11.9430  -34.1470    2.6280 C.2   106  ALA106      0.2287
     30  O         11.9230  -34.2770    1.4070 O.2   106  ALA106     -0.2864
     31  CB        10.4960  -35.7970    3.7300 C.3   106  ALA106      0.0319
     32  N         10.7710  -35.9060    8.8040 N.3   135  SER135     -0.1202
     33  CA         9.6170  -36.6870    8.3850 C.3   135  SER135      0.2020
     34  C          9.2810  -37.7410    9.4330 C.2   135  SER135      0.2619
     35  O         10.1600  -38.2100   10.1520 O.2   135  SER135     -0.2717
     36  CB         9.9550  -37.3780    7.0580 C.3   135  SER135      0.2103
     37  OG         8.9690  -38.3090    6.6740 O.3   135  SER135     -0.2182
     38  N          8.0170  -38.1490    9.4970 N.am  136  SER136     -0.1937
     39  CA         7.6520  -39.2790   10.3470 C.3   136  SER136      0.2055
     40  C          8.3830  -40.5360    9.8830 C.2   136  SER136      0.2642
     41  O          8.5690  -41.4880   10.6530 O.2   136  SER136     -0.2714
     42  CB         6.1380  -39.4980   10.3350 C.3   136  SER136      0.2130
     43  OG         5.6850  -39.8150    9.0340 O.3   136  SER136     -0.2179
     44  N          8.8170  -40.5400    8.6240 N.am  137  LEU137     -0.1977
     45  CA         9.6070  -41.6550    8.1170 C.3   137  LEU137      0.1596
     46  C         10.9410  -41.7620    8.8460 C.2   137  LEU137      0.2287
     47  O         11.5160  -42.8450    8.9500 O.2   137  LEU137     -0.2864
     48  CB         9.8280  -41.5540    6.6020 C.3   137  LEU137      0.0297
     49  CG        10.3490  -42.8460    5.9600 C.3   137  LEU137      0.0022
     50  CD1        9.3690  -43.9850    6.1780 C.3   137  LEU137      0.0001
     51  CD2       10.6390  -42.6610    4.4670 C.3   137  LEU137      0.0001
     52  N         12.8570  -35.1660   -1.9290 N.3   227  GLY227     -0.1210
     53  CA        12.0810  -36.1890   -1.2600 C.3   227  GLY227      0.1956
     54  C         12.7030  -37.5650   -1.3270 C.2   227  GLY227      0.2611
     55  O         13.6980  -37.7790   -2.0160 O.2   227  GLY227     -0.2717
     56  N         12.1110  -38.4800   -0.5700 N.am  228  PHE228     -0.1976
     57  CA        12.5270  -39.8800   -0.5420 C.3   228  PHE228      0.1639
     58  C         12.2820  -40.6050   -1.8620 C.2   228  PHE228      0.2290
     59  O         11.3480  -40.2880   -2.6210 O.2   228  PHE228     -0.2864
     60  CB        11.7850  -40.6220    0.5650 C.3   228  PHE228      0.0560
     61  CG        12.2020  -40.2350    1.9630 C.ar  228  PHE228     -0.0200
     62  CD1       13.4540  -40.5820    2.4550 C.ar  228  PHE228     -0.0042
     63  CD2       11.3190  -39.5760    2.8020 C.ar  228  PHE228     -0.0042
     64  CE1       13.8180  -40.2560    3.7430 C.ar  228  PHE228     -0.0003
     65  CE2       11.6730  -39.2560    4.0920 C.ar  228  PHE228     -0.0003
     66  CZ        12.9320  -39.5920    4.5670 C.ar  228  PHE228     -0.0000
     67  N          9.0710  -44.0240    0.8280 N.3   311  SER311     -0.1203
     68  CA         7.8150  -43.3230    0.5750 C.3   311  SER311      0.2005
     69  C          7.2850  -43.6170   -0.8300 C.2   311  SER311      0.2460
     70  O          8.0020  -43.4340   -1.8140 O.2   311  SER311     -0.2732
     71  CB         8.0130  -41.8160    0.7590 C.3   311  SER311      0.2103
     72  OG         6.7850  -41.1210    0.6740 O.3   311  SER311     -0.2182
     73  N          6.0240  -44.0770   -0.9310 N.am  312  PRO312     -0.2728
     74  CA         5.4360  -44.3140   -2.2560 C.3   312  PRO312      0.1401
     75  C          5.4010  -42.9980   -3.0270 C.2   312  PRO312      0.2269
     76  O          5.0380  -41.9740   -2.4520 O.2   312  PRO312     -0.2865
     77  CB         4.0000  -44.7700   -1.9370 C.3   312  PRO312      0.0296
     78  CG         4.0330  -45.2060   -0.5060 C.3   312  PRO312      0.0237
     79  CD         5.0800  -44.3580    0.1650 C.3   312  PRO312      0.0939
     80  N         11.1000  -36.7970   -6.0190 N.3   394  TRP394     -0.1241
     81  CA        11.0660  -35.3850   -6.3840 C.3   394  TRP394      0.1605
     82  C         12.4770  -34.8150   -6.5550 C.2   394  TRP394      0.2264
     83  O         13.3310  -34.9960   -5.6910 O.2   394  TRP394     -0.2867
     84  CB        10.3020  -34.5630   -5.3370 C.3   394  TRP394      0.0550
     85  CG         8.8380  -34.9240   -5.2650 C.ar  394  TRP394      0.0003
     86  CD1        8.1860  -35.5000   -4.2130 C.ar  394  TRP394      0.0946
     87  CD2        7.8650  -34.7430   -6.2960 C.ar  394  TRP394      0.0152
     88  NE1        6.8550  -35.6940   -4.5290 N.ar  394  TRP394     -0.2442
     89  CE2        6.6320  -35.2320   -5.8000 C.ar  394  TRP394      0.0810
     90  CE3        7.9140  -34.2240   -7.5940 C.ar  394  TRP394      0.0012
     91  CZ2        5.4550  -35.2120   -6.5610 C.ar  394  TRP394      0.0191
     92  CZ3        6.7390  -34.1980   -8.3470 C.ar  394  TRP394      0.0001
     93  CH2        5.5280  -34.6850   -7.8190 C.ar  394  TRP394      0.0015
@<TRIPOS>BOND
     1    92    93   ar
     2    92    90   ar
     3    93    91   ar
     4    90    87   ar
     5    91    89   ar
     6    82    81    1
     7    82    83    2
     8    81    80    1
     9    81    84    1
    10    87    89   ar
    11    87    85   ar
    12    89    88   ar
    13    84    85    1
    14    85    86   ar
    15    88    86   ar
    16    75    76    2
    17    75    74    1
    18    59    58    2
    19    74    77    1
    20    74    73    1
    21    55    54    2
    22    77    78    1
    23    52    53    1
    24    58    57    1
    25    70    69    2
    26    54    53    1
    27    54    56   am
    28    73    69   am
    29    73    79    1
    30    69    68    1
    31    56    57    1
    32    57    60    1
    33    78    79    1
    34    25    24    1
    35    13    12    2
    36    60    61    1
    37    68    71    1
    38    68    67    1
    39    72    71    1
    40    14    15    1
    41    14    11    1
    42    15    16    1
    43    30    29    2
    44    24    26    1
    45    24    23    1
    46    12    11    1
    47    12    19   am
    48    17    16   ar
    49    16    18   ar
    50    61    62   ar
    51    61    63   ar
    52    11    10    1
    53    20    23    1
    54    20    19    1
    55    20    21    1
    56    62    64   ar
    57    27    21   am
    58    27    28    1
    59    29    28    1
    60    10     3   am
    61    63    65   ar
    62    21    22    2
    63    28    31    1
    64    64    66   ar
    65     1     2    1
    66     3     2    1
    67     3     4    2
    68    65    66   ar
    69    51    49    1
    70     2     5    1
    71     5     6    1
    72     7     6    1
    73     7     8    1
    74     9     8    1
    75    49    50    1
    76    49    48    1
    77    48    45    1
    78    37    36    1
    79    36    33    1
    80    45    44    1
    81    45    46    1
    82    33    32    1
    83    33    34    1
    84    44    40   am
    85    46    47    2
    86    43    42    1
    87    34    38   am
    88    34    35    2
    89    38    39    1
    90    40    39    1
    91    40    41    2
    92    42    39    1
