@<TRIPOS>MOLECULE
tmp/4ai8A00.pdb
 147 137 0 0 0
SMALL
GASTEIGER

@<TRIPOS>ATOM
      1  N         12.1180   21.5880   36.5330 N.3   135  TYR135     -0.1241
      2  CA        13.1030   21.3510   35.5020 C.3   135  TYR135      0.1605
      3  C         14.0380   20.2410   35.9200 C.2   135  TYR135      0.2264
      4  O         14.6470   20.3070   36.9770 O.2   135  TYR135     -0.2867
      5  CB        13.9170   22.6170   35.2470 C.3   135  TYR135      0.0534
      6  CG        14.2140   22.8910   33.7880 C.ar  135  TYR135     -0.0201
      7  CD1       14.5080   21.8510   32.9010 C.ar  135  TYR135     -0.0009
      8  CD2       14.2270   24.1910   33.2990 C.ar  135  TYR135     -0.0009
      9  CE1       14.8030   22.1020   31.5730 C.ar  135  TYR135      0.0417
     10  CE2       14.5240   24.4530   31.9680 C.ar  135  TYR135      0.0417
     11  CZ        14.8080   23.4010   31.1140 C.ar  135  TYR135      0.1957
     12  OH        15.0820   23.6380   29.7940 O.3   135  TYR135     -0.2866
     13  N         17.4250   18.4060   35.2580 N.3   137  GLN137     -0.1245
     14  CA        18.6870   18.5150   34.5790 C.3   137  GLN137      0.1566
     15  C         19.6410   17.5360   35.2070 C.2   137  GLN137      0.2260
     16  O         20.0780   17.7070   36.3400 O.2   137  GLN137     -0.2867
     17  CB        19.1840   19.9480   34.6840 C.3   137  GLN137      0.0367
     18  CG        18.2600   20.9130   33.9710 C.3   137  GLN137      0.0905
     19  CD        18.6090   22.3430   34.2530 C.2   137  GLN137      0.2608
     20  OE1       19.6810   22.6310   34.7780 O.2   137  GLN137     -0.2717
     21  NE2       17.7110   23.2560   33.9060 N.am  137  GLN137     -0.0878
     22  N         24.1860   16.6050   29.1610 N.3   176  LEU176     -0.1245
     23  CA        23.1630   16.7800   30.1580 C.3   176  LEU176      0.1561
     24  C         21.8050   16.4990   29.5220 C.2   176  LEU176      0.2260
     25  O         21.5790   16.7910   28.3410 O.2   176  LEU176     -0.2867
     26  CB        23.2220   18.2110   30.6830 C.3   176  LEU176      0.0270
     27  CG        22.4240   18.5560   31.9360 C.3   176  LEU176      0.0019
     28  CD1       23.3490   18.6380   33.1410 C.3   176  LEU176      0.0001
     29  CD2       21.7440   19.8880   31.7380 C.3   176  LEU176      0.0001
     30  N         17.8520   17.2680   29.6250 N.3   178  LEU178     -0.1245
     31  CA        16.9560   18.3160   30.0780 C.3   178  LEU178      0.1561
     32  C         15.4840   18.0710   29.7670 C.2   178  LEU178      0.2260
     33  O         15.0820   17.9530   28.6110 O.2   178  LEU178     -0.2867
     34  CB        17.3910   19.6480   29.4630 C.3   178  LEU178      0.0270
     35  CG        18.8760   19.9630   29.6590 C.3   178  LEU178      0.0019
     36  CD1       19.5730   20.1280   28.3210 C.3   178  LEU178      0.0001
     37  CD2       19.0130   21.2230   30.4870 C.3   178  LEU178      0.0001
     38  N         15.0260   29.5850   30.8870 N.3   186  THR186     -0.1218
     39  CA        16.3780   29.5920   31.4370 C.3   186  THR186      0.1862
     40  C         16.8880   30.9590   30.9400 C.2   186  THR186      0.2287
     41  O         17.1940   31.1300   29.7550 O.2   186  THR186     -0.2866
     42  CB        17.2570   28.4740   30.8770 C.3   186  THR186      0.1770
     43  OG1       16.6970   27.2110   31.2210 O.3   186  THR186     -0.2211
     44  CG2       18.6370   28.5450   31.4810 C.3   186  THR186      0.0375
     45  N         22.4280   33.9780   29.6510 N.3   189  HIS189     -0.1241
     46  CA        23.6930   33.7740   30.3240 C.3   189  HIS189      0.1621
     47  C         24.5820   33.1920   29.2570 C.2   189  HIS189      0.2264
     48  O         24.1380   32.9680   28.1300 O.2   189  HIS189     -0.2867
     49  CB        23.5410   32.7520   31.4450 C.3   189  HIS189      0.0745
     50  CG        23.1630   31.3910   30.9570 C.ar  189  HIS189      0.0817
     51  ND1       21.9030   31.0960   30.4800 N.ar  189  HIS189     -0.2268
     52  CD2       23.8990   30.2630   30.8000 C.ar  189  HIS189      0.1154
     53  CE1       21.8800   29.8470   30.0490 C.ar  189  HIS189      0.1986
     54  NE2       23.0780   29.3190   30.2320 N.ar  189  HIS189     -0.2212
     55  N         28.1430   30.3300   28.5800 N.3   191  ASP191     -0.1239
     56  CA        28.9700   29.2560   29.1080 C.3   191  ASP191      0.1674
     57  C         30.3150   29.4620   28.4490 C.2   191  ASP191      0.2266
     58  O         30.4030   30.1690   27.4460 O.2   191  ASP191     -0.2867
     59  CB        28.3860   27.8920   28.7160 C.3   191  ASP191      0.1410
     60  CG        26.9320   27.6880   29.2200 C.2   191  ASP191      0.3668
     61  OD1       26.7070   27.5730   30.4450 O.co2 191  ASP191     -0.2456
     62  OD2       25.9880   27.6330   28.4000 O.co2 191  ASP191     -0.2456
     63  N         32.1060   26.9500   27.2910 N.3   193  GLN193     -0.1245
     64  CA        32.3440   25.7560   26.4930 C.3   193  GLN193      0.1566
     65  C         31.5600   25.8250   25.1720 C.2   193  GLN193      0.2260
     66  O         30.6540   26.6460   25.0270 O.2   193  GLN193     -0.2867
     67  CB        31.9140   24.5090   27.2850 C.3   193  GLN193      0.0367
     68  CG        32.4240   24.4280   28.7370 C.3   193  GLN193      0.0905
     69  CD        31.4590   25.0500   29.7520 C.2   193  GLN193      0.2608
     70  OE1       30.2390   24.9780   29.5900 O.2   193  GLN193     -0.2717
     71  NE2       32.0080   25.6420   30.8130 N.am  193  GLN193     -0.0878
     72  N         28.8500   24.3000   22.8720 N.3   195  ASN195     -0.1240
     73  CA        27.6930   23.4390   23.1090 C.3   195  ASN195      0.1653
     74  C         26.9520   23.0200   21.8460 C.2   195  ASN195      0.2266
     75  O         26.8630   23.7820   20.8800 O.2   195  ASN195     -0.2867
     76  CB        26.6730   24.1290   24.0290 C.3   195  ASN195      0.1155
     77  CG        27.1900   24.3500   25.4410 C.2   195  ASN195      0.2627
     78  OD1       26.9130   23.5730   26.3510 O.2   195  ASN195     -0.2716
     79  ND2       27.9490   25.4170   25.6260 N.am  195  ASN195     -0.0877
     80  N         23.2830   21.6890   21.0870 N.3   197  PHE197     -0.1241
     81  CA        21.9790   21.5840   21.6880 C.3   197  PHE197      0.1605
     82  C         21.0690   20.7540   20.8000 C.2   197  PHE197      0.2264
     83  O         20.5550   21.2470   19.7900 O.2   197  PHE197     -0.2867
     84  CB        21.4380   23.0040   21.8580 C.3   197  PHE197      0.0534
     85  CG        20.3880   23.1310   22.9060 C.ar  197  PHE197     -0.0203
     86  CD1       20.7300   23.0570   24.2390 C.ar  197  PHE197     -0.0042
     87  CD2       19.0700   23.3420   22.5660 C.ar  197  PHE197     -0.0042
     88  CE1       19.7720   23.1910   25.2280 C.ar  197  PHE197     -0.0003
     89  CE2       18.0950   23.4770   23.5530 C.ar  197  PHE197     -0.0003
     90  CZ        18.4560   23.4000   24.8870 C.ar  197  PHE197     -0.0000
     91  N         11.8190   24.4050   21.7220 N.3   204  LYS204     -0.1245
     92  CA        12.4410   25.3730   22.5920 C.3   204  LYS204      0.1561
     93  C         12.8270   26.5630   21.7390 C.2   204  LYS204      0.2260
     94  O         13.3530   26.4120   20.6250 O.2   204  LYS204     -0.2867
     95  CB        13.6810   24.7910   23.2660 C.3   204  LYS204      0.0271
     96  CG        13.4210   24.1600   24.6150 C.3   204  LYS204      0.0035
     97  CD        14.7340   23.7570   25.2420 C.3   204  LYS204      0.0206
     98  CE        14.5640   23.2140   26.6430 C.3   204  LYS204      0.1093
     99  NZ        15.9070   22.8590   27.1790 N.3   204  LYS204     -0.1314
    100  N         25.8020   26.2240   19.7890 N.3   263  ILE263     -0.1245
    101  CA        25.9200   27.4610   20.5470 C.3   263  ILE263      0.1561
    102  C         27.4130   27.6670   20.7730 C.2   263  ILE263      0.2260
    103  O         28.0080   26.9810   21.5970 O.2   263  ILE263     -0.2867
    104  CB        25.2290   27.3540   21.9160 C.3   263  ILE263      0.0252
    105  CG1       23.7680   26.9490   21.7260 C.3   263  ILE263      0.0019
    106  CG2       25.2750   28.6890   22.6260 C.3   263  ILE263      0.0019
    107  CD1       22.9660   26.7970   23.0190 C.3   263  ILE263      0.0001
    108  N         22.8390   33.0670   25.6510 N.3   269  HIS269     -0.1241
    109  CA        21.6820   32.3820   25.1550 C.3   269  HIS269      0.1621
    110  C         20.5780   32.4250   26.1760 C.2   269  HIS269      0.2264
    111  O         20.8100   32.3140   27.3730 O.2   269  HIS269     -0.2867
    112  CB        21.9820   30.9440   24.6920 C.3   269  HIS269      0.0745
    113  CG        22.8330   30.1550   25.6250 C.ar  269  HIS269      0.0817
    114  ND1       24.2100   30.2290   25.6190 N.ar  269  HIS269     -0.2268
    115  CD2       22.5040   29.2490   26.5730 C.ar  269  HIS269      0.1154
    116  CE1       24.6930   29.3970   26.5230 C.ar  269  HIS269      0.1986
    117  NE2       23.6780   28.7910   27.1140 N.ar  269  HIS269     -0.2212
    118  N         16.8200   30.6730   26.7020 N.3   271  ILE271     -0.1245
    119  CA        16.0490   29.5480   26.2090 C.3   271  ILE271      0.1561
    120  C         14.7470   29.3300   26.9230 C.2   271  ILE271      0.2260
    121  O         14.6970   29.2230   28.1460 O.2   271  ILE271     -0.2867
    122  CB        16.8790   28.2690   26.2700 C.3   271  ILE271      0.0252
    123  CG1       18.0330   28.3830   25.2690 C.3   271  ILE271      0.0019
    124  CG2       16.0150   27.0610   25.9660 C.3   271  ILE271      0.0019
    125  CD1       19.1770   27.5200   25.5870 C.3   271  ILE271      0.0001
    126  N         22.0470   18.0040   25.8690 N.3   284  ASN284     -0.1240
    127  CA        23.0660   18.9540   25.4940 C.3   284  ASN284      0.1653
    128  C         24.4500   18.3520   25.6410 C.2   284  ASN284      0.2266
    129  O         24.7650   17.7630   26.6660 O.2   284  ASN284     -0.2867
    130  CB        22.9420   20.1960   26.3620 C.3   284  ASN284      0.1155
    131  CG        23.9000   21.2780   25.9570 C.2   284  ASN284      0.2627
    132  OD1       23.8380   21.8000   24.8390 O.2   284  ASN284     -0.2716
    133  ND2       24.8000   21.6290   26.8650 N.am  284  ASN284     -0.0877
    134  N         28.6330   19.1290   25.3750 N.3   286  TRP286     -0.1241
    135  CA        29.5640   20.2340   25.3400 C.3   286  TRP286      0.1605
    136  C         31.0040   19.8120   25.4050 C.2   286  TRP286      0.2264
    137  O         31.3570   18.7860   25.9810 O.2   286  TRP286     -0.2867
    138  CB        29.2500   21.2620   26.4250 C.3   286  TRP286      0.0550
    139  CG        29.4960   20.8060   27.8020 C.ar  286  TRP286      0.0003
    140  CD1       30.7000   20.5530   28.3740 C.ar  286  TRP286      0.0946
    141  CD2       28.5130   20.5580   28.8040 C.ar  286  TRP286      0.0152
    142  NE1       30.5370   20.1610   29.6760 N.ar  286  TRP286     -0.2442
    143  CE2       29.2010   20.1540   29.9690 C.ar  286  TRP286      0.0810
    144  CE3       27.1170   20.6390   28.8390 C.ar  286  TRP286      0.0012
    145  CZ2       28.5430   19.8300   31.1540 C.ar  286  TRP286      0.0191
    146  CZ3       26.4620   20.3170   30.0200 C.ar  286  TRP286      0.0001
    147  CH2       27.1780   19.9180   31.1600 C.ar  286  TRP286      0.0015
@<TRIPOS>BOND
     1   100   101    1
     2    83    82    2
     3   101   102    1
     4   101   104    1
     5    94    93    2
     6   102   103    2
     7    82    81    1
     8    75    74    2
     9    80    81    1
    10    81    84    1
    11    91    92    1
    12   105   104    1
    13   105   107    1
    14    93    92    1
    15    74    73    1
    16    84    85    1
    17   104   106    1
    18    87    85   ar
    19    87    89   ar
    20    92    95    1
    21    72    73    1
    22    85    86   ar
    23    73    76    1
    24    95    96    1
    25    89    90   ar
    26    76    77    1
    27    86    88   ar
    28    96    97    1
    29   112   109    1
    30   112   113    1
    31   132   131    2
    32    90    88   ar
    33    66    65    2
    34   109   108    1
    35   109   110    1
    36    65    64    1
    37    97    98    1
    38   123   125    1
    39   123   122    1
    40   135   134    1
    41   135   136    1
    42   135   138    1
    43   136   137    2
    44    77    79   am
    45    77    78    2
    46   127   128    1
    47   127   126    1
    48   127   130    1
    49   114   113   ar
    50   114   116   ar
    51   113   115   ar
    52   128   129    2
    53   131   130    1
    54   131   133   am
    55   124   122    1
    56   110   111    2
    57   119   122    1
    58   119   118    1
    59   119   120    1
    60   138   139    1
    61    64    67    1
    62    64    63    1
    63   116   117   ar
    64   115   117   ar
    65    98    99    1
    66   120   121    2
    67    67    68    1
    68    58    57    2
    69   139   140   ar
    70   139   141   ar
    71    48    47    2
    72    36    35    1
    73    25    24    2
    74   140   142   ar
    75    62    60   ar
    76    57    56    1
    77    55    56    1
    78    33    32    2
    79    59    56    1
    80    59    60    1
    81    68    69    1
    82   141   144   ar
    83   141   143   ar
    84   144   146   ar
    85    22    23    1
    86    60    61   ar
    87    47    46    1
    88    34    35    1
    89    34    31    1
    90    24    23    1
    91    70    69    2
    92    30    31    1
    93    45    46    1
    94    35    37    1
    95   142   143   ar
    96    69    71   am
    97    41    40    2
    98    32    31    1
    99    12    11    1
   100   143   145   ar
   101   146   147   ar
   102    53    54   ar
   103    53    51   ar
   104    23    26    1
   105    54    52   ar
   106    46    49    1
   107    51    50   ar
   108    26    27    1
   109    52    50   ar
   110    42    43    1
   111    42    39    1
   112    42    44    1
   113    38    39    1
   114    40    39    1
   115    50    49    1
   116    11     9   ar
   117    11    10   ar
   118   145   147   ar
   119     9     7   ar
   120    29    27    1
   121    27    28    1
   122    10     8   ar
   123     7     6   ar
   124     8     6   ar
   125     6     5    1
   126    21    19   am
   127    18    19    1
   128    18    17    1
   129    19    20    2
   130    14    17    1
   131    14    15    1
   132    14    13    1
   133    15    16    2
   134     5     2    1
   135     2     3    1
   136     2     1    1
   137     3     4    2
