@<TRIPOS>MOLECULE
tmp/4ai9B00.pdb
 135 129 0 0 0
SMALL
GASTEIGER

@<TRIPOS>ATOM
      1  N         36.3990   54.7080  -24.5810 N.3   126  TYR126     -0.1241
      2  CA        35.0580   54.8530  -25.1320 C.3   126  TYR126      0.1605
      3  C         34.8880   56.3400  -25.4140 C.2   126  TYR126      0.2264
      4  O         35.2090   57.1770  -24.5700 O.2   126  TYR126     -0.2867
      5  CB        34.0230   54.3700  -24.1000 C.3   126  TYR126      0.0534
      6  CG        32.6410   54.0110  -24.6330 C.ar  126  TYR126     -0.0201
      7  CD1       32.3830   53.9110  -26.0030 C.ar  126  TYR126     -0.0009
      8  CD2       31.5960   53.7340  -23.7520 C.ar  126  TYR126     -0.0009
      9  CE1       31.1120   53.5440  -26.4760 C.ar  126  TYR126      0.0417
     10  CE2       30.3330   53.3640  -24.2080 C.ar  126  TYR126      0.0417
     11  CZ        30.0920   53.2680  -25.5600 C.ar  126  TYR126      0.1957
     12  OH        28.8460   52.8720  -26.0000 O.3   126  TYR126     -0.2866
     13  N         21.9750   64.7840  -23.3520 N.3   164  GLY164     -0.1225
     14  CA        21.7640   63.3490  -23.4610 C.3   164  GLY164      0.1811
     15  C         20.3590   62.9080  -23.0990 C.2   164  GLY164      0.2280
     16  O         19.9360   61.8100  -23.4670 O.2   164  GLY164     -0.2866
     17  N         28.0750   58.0960  -29.3070 N.3   171  TYR171     -0.1241
     18  CA        29.0210   57.2530  -28.5880 C.3   171  TYR171      0.1605
     19  C         29.8650   56.4950  -29.6020 C.2   171  TYR171      0.2264
     20  O         29.3380   55.7810  -30.4610 O.2   171  TYR171     -0.2867
     21  CB        28.3210   56.2000  -27.7200 C.3   171  TYR171      0.0534
     22  CG        27.3140   56.7190  -26.7220 C.ar  171  TYR171     -0.0201
     23  CD1       26.0330   57.1040  -27.1230 C.ar  171  TYR171     -0.0009
     24  CD2       27.6300   56.7910  -25.3680 C.ar  171  TYR171     -0.0009
     25  CE1       25.0950   57.5520  -26.1980 C.ar  171  TYR171      0.0417
     26  CE2       26.7010   57.2360  -24.4330 C.ar  171  TYR171      0.0417
     27  CZ        25.4360   57.6120  -24.8570 C.ar  171  TYR171      0.1957
     28  OH        24.5060   58.0560  -23.9470 O.3   171  TYR171     -0.2866
     29  N         28.5950   49.4230  -21.0770 N.3   179  PHE179     -0.1241
     30  CA        27.6670   50.3280  -20.4250 C.3   179  PHE179      0.1605
     31  C         27.1060   49.4680  -19.3010 C.2   179  PHE179      0.2264
     32  O         26.5210   48.4100  -19.5270 O.2   179  PHE179     -0.2867
     33  CB        26.5930   50.9210  -21.3810 C.3   179  PHE179      0.0534
     34  CG        25.8030   49.9200  -22.1820 C.ar  179  PHE179     -0.0203
     35  CD1       26.2930   49.4350  -23.3970 C.ar  179  PHE179     -0.0042
     36  CD2       24.4790   49.6410  -21.8420 C.ar  179  PHE179     -0.0042
     37  CE1       25.4590   48.7040  -24.2820 C.ar  179  PHE179     -0.0003
     38  CE2       23.6420   48.9130  -22.7110 C.ar  179  PHE179     -0.0003
     39  CZ        24.1360   48.4510  -23.9340 C.ar  179  PHE179     -0.0000
     40  N         21.8060   49.8430  -15.5920 N.3   182  HIS182     -0.1241
     41  CA        21.1220   51.0490  -15.1730 C.3   182  HIS182      0.1621
     42  C         19.7290   51.1520  -15.8190 C.2   182  HIS182      0.2264
     43  O         19.3670   50.3520  -16.6890 O.2   182  HIS182     -0.2867
     44  CB        21.9460   52.2490  -15.6220 C.3   182  HIS182      0.0745
     45  CG        21.9820   52.4060  -17.1060 C.ar  182  HIS182      0.0817
     46  ND1       22.6190   51.5090  -17.9400 N.ar  182  HIS182     -0.2268
     47  CD2       21.4000   53.3250  -17.9120 C.ar  182  HIS182      0.1154
     48  CE1       22.4220   51.8700  -19.1960 C.ar  182  HIS182      0.1986
     49  NE2       21.6870   52.9680  -19.2040 N.ar  182  HIS182     -0.2212
     50  N         17.1500   54.4580  -17.1930 N.3   184  GLU184     -0.1245
     51  CA        17.4270   55.8160  -17.6130 C.3   184  GLU184      0.1567
     52  C         17.1570   56.7990  -16.4810 C.2   184  GLU184      0.2260
     53  O         16.5180   56.4420  -15.4870 O.2   184  GLU184     -0.2867
     54  CB        16.5580   56.1540  -18.8180 C.3   184  GLU184      0.0388
     55  CG        16.8100   55.2280  -19.9830 C.3   184  GLU184      0.1160
     56  CD        18.2640   55.2590  -20.4160 C.2   184  GLU184      0.3649
     57  OE1       18.8090   56.3730  -20.5630 O.co2 184  GLU184     -0.2457
     58  OE2       18.8590   54.1770  -20.5940 O.co2 184  GLU184     -0.2457
     59  N         14.3950   55.3810  -23.6840 N.3   190  SER190     -0.1217
     60  CA        15.5670   55.8070  -24.4120 C.3   190  SER190      0.1889
     61  C         15.4820   55.1720  -25.7910 C.2   190  SER190      0.2288
     62  O         14.8370   54.1370  -25.9720 O.2   190  SER190     -0.2866
     63  CB        16.8550   55.4100  -23.6700 C.3   190  SER190      0.2089
     64  OG        17.0360   54.0100  -23.6620 O.3   190  SER190     -0.2183
     65  N         18.0780   54.2520  -29.0360 N.3   192  ASN192     -0.1240
     66  CA        19.4810   54.1500  -29.4330 C.3   192  ASN192      0.1653
     67  C         19.5900   53.6830  -30.8770 C.2   192  ASN192      0.2266
     68  O         19.0280   52.6530  -31.2600 O.2   192  ASN192     -0.2867
     69  CB        20.2410   53.1500  -28.5550 C.3   192  ASN192      0.1155
     70  CG        21.7350   53.0970  -28.8890 C.2   192  ASN192      0.2627
     71  OD1       22.1320   52.6960  -29.9910 O.2   192  ASN192     -0.2716
     72  ND2       22.5700   53.5060  -27.9330 N.am  192  ASN192     -0.0877
     73  N         26.5790   45.9150  -31.0440 N.3   200  LYS200     -0.1245
     74  CA        26.5540   46.2990  -29.6450 C.3   200  LYS200      0.1561
     75  C         25.5840   45.2890  -29.0710 C.2   200  LYS200      0.2260
     76  O         24.4460   45.1850  -29.5280 O.2   200  LYS200     -0.2867
     77  CB        25.9860   47.7130  -29.4560 C.3   200  LYS200      0.0271
     78  CG        26.0320   48.2260  -28.0110 C.3   200  LYS200      0.0035
     79  CD        25.1190   49.4410  -27.8190 C.3   200  LYS200      0.0206
     80  CE        25.4360   50.6030  -28.7640 C.3   200  LYS200      0.1093
     81  NZ        26.5460   51.4810  -28.2960 N.3   200  LYS200     -0.1314
     82  N         23.2520   43.8050  -26.0120 N.3   202  TRP202     -0.1241
     83  CA        22.4940   44.2970  -24.8650 C.3   202  TRP202      0.1605
     84  C         21.9620   43.1960  -23.9640 C.2   202  TRP202      0.2264
     85  O         21.6800   42.0940  -24.4380 O.2   202  TRP202     -0.2867
     86  CB        21.2800   45.0860  -25.3470 C.3   202  TRP202      0.0550
     87  CG        21.5740   46.2840  -26.1760 C.ar  202  TRP202      0.0003
     88  CD1       22.1630   46.3150  -27.4110 C.ar  202  TRP202      0.0946
     89  CD2       21.2300   47.6320  -25.8640 C.ar  202  TRP202      0.0152
     90  NE1       22.1910   47.6040  -27.8930 N.ar  202  TRP202     -0.2442
     91  CE2       21.6270   48.4300  -26.9600 C.ar  202  TRP202      0.0810
     92  CE3       20.6170   48.2430  -24.7650 C.ar  202  TRP202      0.0012
     93  CZ2       21.4350   49.8150  -26.9880 C.ar  202  TRP202      0.0191
     94  CZ3       20.4190   49.6190  -24.7930 C.ar  202  TRP202      0.0001
     95  CH2       20.8320   50.3910  -25.8980 C.ar  202  TRP202      0.0015
     96  N         26.1560   54.2090  -12.7910 N.3   235  LYS235     -0.1245
     97  CA        26.5530   53.4630  -13.9820 C.3   235  LYS235      0.1561
     98  C         27.9660   52.8900  -13.8920 C.2   235  LYS235      0.2260
     99  O         28.7370   52.9870  -14.8470 O.2   235  LYS235     -0.2867
    100  CB        26.4240   54.3610  -15.2310 C.3   235  LYS235      0.0271
    101  CG        24.9890   54.7980  -15.5230 C.3   235  LYS235      0.0035
    102  CD        24.8800   55.6990  -16.7410 C.3   235  LYS235      0.0206
    103  CE        23.4680   56.2580  -16.8630 C.3   235  LYS235      0.1093
    104  NZ        23.2550   57.0680  -18.0990 N.3   235  LYS235     -0.1314
    105  N         19.1730   47.6210  -18.0660 N.3   270  HIS270     -0.1241
    106  CA        19.9330   47.1160  -19.1980 C.3   270  HIS270      0.1621
    107  C         21.4240   47.4190  -19.0830 C.2   270  HIS270      0.2264
    108  O         21.8380   48.3580  -18.3860 O.2   270  HIS270     -0.2867
    109  CB        19.3970   47.7000  -20.5100 C.3   270  HIS270      0.0745
    110  CG        19.3730   49.1960  -20.5480 C.ar  270  HIS270      0.0817
    111  ND1       18.3860   49.9430  -19.9380 N.ar  270  HIS270     -0.2268
    112  CD2       20.2050   50.0830  -21.1420 C.ar  270  HIS270      0.1154
    113  CE1       18.6130   51.2270  -20.1530 C.ar  270  HIS270      0.1986
    114  NE2       19.7100   51.3380  -20.8800 N.ar  270  HIS270     -0.2212
    115  N         21.8260   58.4150  -29.1710 N.3   282  SER282     -0.1202
    116  CA        20.6830   58.1760  -28.3050 C.3   282  SER282      0.2020
    117  C         20.2220   59.4250  -27.5540 C.2   282  SER282      0.2619
    118  O         20.9260   60.4470  -27.4920 O.2   282  SER282     -0.2717
    119  CB        21.0150   57.0750  -27.2910 C.3   282  SER282      0.2103
    120  OG        21.9180   57.5500  -26.3080 O.3   282  SER282     -0.2182
    121  N         19.0160   59.3280  -27.0040 N.am  283  THR283     -0.1938
    122  CA        18.4020   60.3760  -26.2040 C.3   283  THR283      0.2028
    123  C         17.2440   59.6930  -25.4850 C.2   283  THR283      0.2642
    124  O         16.9180   58.5410  -25.7640 O.2   283  THR283     -0.2714
    125  CB        17.8420   61.5480  -27.0630 C.3   283  THR283      0.1808
    126  OG1       17.6280   62.6920  -26.2200 O.3   283  THR283     -0.2208
    127  CG2       16.5100   61.1510  -27.7000 C.3   283  THR283      0.0379
    128  N         16.6440   60.4030  -24.5400 N.am  284  ASN284     -0.1971
    129  CA        15.5240   59.8800  -23.7980 C.3   284  ASN284      0.1688
    130  C         14.2530   60.4850  -24.3740 C.2   284  ASN284      0.2292
    131  O         14.3000   61.4630  -25.1240 O.2   284  ASN284     -0.2864
    132  CB        15.6560   60.2510  -22.3130 C.3   284  ASN284      0.1181
    133  CG        16.8380   59.5750  -21.6330 C.2   284  ASN284      0.2629
    134  OD1       17.6800   60.2330  -21.0130 O.2   284  ASN284     -0.2716
    135  ND2       16.8960   58.2490  -21.7370 N.am  284  ASN284     -0.0877
@<TRIPOS>BOND
     1    68    67    2
     2    73    74    1
     3    67    66    1
     4    20    19    2
     5    71    70    2
     6    74    77    1
     7    74    75    1
     8    19    18    1
     9    76    75    2
    10    77    78    1
    11    66    65    1
    12    66    69    1
    13    17    18    1
    14   115   116    1
    15    70    69    1
    16    70    72   am
    17    80    81    1
    18    80    79    1
    19    18    21    1
    20   116   117    1
    21   116   119    1
    22    78    79    1
    23    90    88   ar
    24    90    91   ar
    25    21    22    1
    26   127   125    1
    27   117   118    2
    28   117   121   am
    29    88    87   ar
    30   119   120    1
    31    23    22   ar
    32    23    25   ar
    33   125   126    1
    34   125   122    1
    35   121   122    1
    36    93    91   ar
    37    93    95   ar
    38    91    89   ar
    39    22    24   ar
    40     9     7   ar
    41     9    11   ar
    42   122   123    1
    43    25    27   ar
    44    87    89   ar
    45    87    86    1
    46    82    83    1
    47     7     6   ar
    48    12    11    1
    49    62    61    2
    50    95    94   ar
    51    89    92   ar
    52    61    60    1
    53   124   123    2
    54    11    10   ar
    55   123   128   am
    56     3     2    1
    57     3     4    2
    58    24    26   ar
    59    86    83    1
    60     2     1    1
    61     2     5    1
    62   131   130    2
    63    83    84    1
    64    27    26   ar
    65    27    28    1
    66    94    92   ar
    67     6     5    1
    68     6     8   ar
    69   128   129    1
    70    85    84    2
    71    60    59    1
    72    60    63    1
    73   130   129    1
    74    37    39   ar
    75    37    35   ar
    76    10     8   ar
    77    39    38   ar
    78   129   132    1
    79    63    64    1
    80    16    15    2
    81    14    13    1
    82    14    15    1
    83    35    34   ar
    84    38    36   ar
    85   132   133    1
    86    34    36   ar
    87    34    33    1
    88   135   133   am
    89   133   134    2
    90    33    30    1
    91   112   114   ar
    92   112   110   ar
    93    29    30    1
    94   114   113   ar
    95    58    56   ar
    96    57    56   ar
    97   110   109    1
    98   110   111   ar
    99   109   106    1
   100    30    31    1
   101    56    55    1
   102   113   111   ar
   103    55    54    1
   104    32    31    2
   105    49    48   ar
   106    49    47   ar
   107   106   107    1
   108   106   105    1
   109    48    46   ar
   110   107   108    2
   111    54    51    1
   112   104   103    1
   113    46    45   ar
   114    47    45   ar
   115    51    50    1
   116    51    52    1
   117    45    44    1
   118   103   102    1
   119   102   101    1
   120    43    42    2
   121    52    53    2
   122    42    41    1
   123    44    41    1
   124    40    41    1
   125   101   100    1
   126   100    97    1
   127    99    98    2
   128    97    98    1
   129    97    96    1
