@<TRIPOS>MOLECULE
tmp/4aiaA00.pdb
 102 101 0 0 0
SMALL
GASTEIGER

@<TRIPOS>ATOM
      1  N         31.9200  -29.6070    0.6940 N.3     8  PHE8       -0.1241
      2  CA        32.9790  -29.0570    1.5590 C.3     8  PHE8        0.1605
      3  C         33.4990  -30.1010    2.5590 C.2     8  PHE8        0.2264
      4  O         33.8600  -29.7860    3.7030 O.2     8  PHE8       -0.2867
      5  CB        32.5010  -27.7360    2.1900 C.3     8  PHE8        0.0534
      6  CG        31.8350  -26.8080    1.1880 C.ar    8  PHE8       -0.0203
      7  CD1       32.6020  -26.0140    0.3480 C.ar    8  PHE8       -0.0042
      8  CD2       30.4480  -26.8160    1.0220 C.ar    8  PHE8       -0.0042
      9  CE1       32.0010  -25.1960   -0.6080 C.ar    8  PHE8       -0.0003
     10  CE2       29.8380  -26.0170    0.0730 C.ar    8  PHE8       -0.0003
     11  CZ        30.6190  -25.1980   -0.7500 C.ar    8  PHE8       -0.0000
     12  N         24.7730  -29.9790    8.0120 N.3    15  TYR15      -0.1241
     13  CA        25.3600  -29.3370    6.8580 C.3    15  TYR15       0.1605
     14  C         24.9190  -30.1010    5.6110 C.2    15  TYR15       0.2264
     15  O         24.6010  -29.4910    4.6040 O.2    15  TYR15      -0.2867
     16  CB        26.8870  -29.2940    6.9950 C.3    15  TYR15       0.0534
     17  CG        27.6040  -28.2120    6.1950 C.ar   15  TYR15      -0.0201
     18  CD1       26.9140  -27.2920    5.3930 C.ar   15  TYR15      -0.0009
     19  CD2       28.9790  -28.0710    6.2950 C.ar   15  TYR15      -0.0009
     20  CE1       27.6040  -26.2860    4.6920 C.ar   15  TYR15       0.0417
     21  CE2       29.6670  -27.0860    5.6040 C.ar   15  TYR15       0.0417
     22  CZ        28.9740  -26.2000    4.7880 C.ar   15  TYR15       0.1957
     23  OH        29.6850  -25.2130    4.1140 O.3    15  TYR15      -0.2866
     24  N         21.3110  -29.1760    4.7140 N.3    18  TYR18      -0.1241
     25  CA        21.4330  -27.8670    4.0880 C.3    18  TYR18       0.1605
     26  C         21.9040  -28.0230    2.6310 C.2    18  TYR18       0.2264
     27  O         21.3170  -27.4390    1.7300 O.2    18  TYR18      -0.2867
     28  CB        22.3930  -26.9730    4.8890 C.3    18  TYR18       0.0534
     29  CG        22.7200  -25.6610    4.2280 C.ar   18  TYR18      -0.0201
     30  CD1       21.8110  -24.5960    4.2690 C.ar   18  TYR18      -0.0009
     31  CD2       23.9340  -25.4740    3.5700 C.ar   18  TYR18      -0.0009
     32  CE1       22.1140  -23.3670    3.6650 C.ar   18  TYR18       0.0417
     33  CE2       24.2350  -24.2770    2.9530 C.ar   18  TYR18       0.0417
     34  CZ        23.3260  -23.2190    3.0220 C.ar   18  TYR18       0.1957
     35  OH        23.6540  -22.0400    2.3960 O.3    18  TYR18      -0.2866
     36  N         21.0720  -25.3870   -0.2780 N.3    23  TRP23      -0.1241
     37  CA        22.1730  -24.8180   -1.0640 C.3    23  TRP23       0.1605
     38  C         22.0410  -25.1420   -2.5450 C.2    23  TRP23       0.2264
     39  O         21.9090  -26.3080   -2.9400 O.2    23  TRP23      -0.2867
     40  CB        23.5010  -25.3070   -0.5040 C.3    23  TRP23       0.0550
     41  CG        24.6800  -24.5310   -1.0040 C.ar   23  TRP23       0.0003
     42  CD1       25.0950  -23.2480   -0.5960 C.ar   23  TRP23       0.0946
     43  CD2       25.6460  -24.9590   -1.9970 C.ar   23  TRP23       0.0152
     44  NE1       26.2210  -22.8660   -1.2780 N.ar   23  TRP23      -0.2442
     45  CE2       26.6210  -23.8670   -2.1230 C.ar   23  TRP23       0.0810
     46  CE3       25.8190  -26.1140   -2.7680 C.ar   23  TRP23       0.0012
     47  CZ2       27.6950  -23.9390   -2.9970 C.ar   23  TRP23       0.0191
     48  CZ3       26.9070  -26.1780   -3.6460 C.ar   23  TRP23       0.0001
     49  CH2       27.8350  -25.1190   -3.7470 C.ar   23  TRP23       0.0015
     50  N         24.1550  -14.7710    5.2140 N.3    40  GLU40      -0.1245
     51  CA        25.4580  -14.6660    4.5290 C.3    40  GLU40       0.1567
     52  C         26.2820  -13.4760    5.0190 C.2    40  GLU40       0.2260
     53  O         27.4980  -13.5780    5.1660 O.2    40  GLU40      -0.2867
     54  CB        25.3260  -14.6030    2.9920 C.3    40  GLU40       0.0388
     55  CG        24.6750  -15.8400    2.3490 C.3    40  GLU40       0.1160
     56  CD        25.5770  -17.0700    2.3760 C.2    40  GLU40       0.3649
     57  OE1       26.8040  -16.9450    2.5170 O.co2  40  GLU40      -0.2457
     58  OE2       25.0430  -18.1840    2.2490 O.co2  40  GLU40      -0.2457
     59  N         28.7880  -13.9840    8.0800 N.3    43  HIS43      -0.1241
     60  CA        29.8720  -14.9780    7.9640 C.3    43  HIS43       0.1621
     61  C         31.2880  -14.5010    8.2340 C.2    43  HIS43       0.2264
     62  O         32.0890  -15.2150    8.8530 O.2    43  HIS43      -0.2867
     63  CB        29.7900  -15.6000    6.5750 C.3    43  HIS43       0.0745
     64  CG        30.9850  -16.4590    6.2150 C.ar   43  HIS43       0.0817
     65  ND1       31.9200  -16.0680    5.3170 N.ar   43  HIS43      -0.2268
     66  CD2       31.3640  -17.7070    6.6650 C.ar   43  HIS43       0.1154
     67  CE1       32.8600  -17.0620    5.1910 C.ar   43  HIS43       0.1986
     68  NE2       32.5260  -18.0430    6.0400 N.ar   43  HIS43      -0.2212
     69  N         31.3140  -21.0110    7.8430 N.3    48  TRP48      -0.1241
     70  CA        29.9040  -20.9640    7.4510 C.3    48  TRP48       0.1605
     71  C         29.0510  -21.8820    8.3190 C.2    48  TRP48       0.2264
     72  O         27.9270  -21.5520    8.6970 O.2    48  TRP48      -0.2867
     73  CB        29.7510  -21.3050    5.9750 C.3    48  TRP48       0.0550
     74  CG        28.2950  -21.3900    5.6220 C.ar   48  TRP48       0.0003
     75  CD1       27.5680  -22.5160    5.2560 C.ar   48  TRP48       0.0946
     76  CD2       27.3270  -20.3170    5.7260 C.ar   48  TRP48       0.0152
     77  NE1       26.2410  -22.1940    5.0920 N.ar   48  TRP48      -0.2442
     78  CE2       26.0400  -20.8820    5.3370 C.ar   48  TRP48       0.0810
     79  CE3       27.4090  -18.9530    6.0430 C.ar   48  TRP48       0.0012
     80  CZ2       24.8850  -20.1110    5.2910 C.ar   48  TRP48       0.0191
     81  CZ3       26.2330  -18.1990    6.0120 C.ar   48  TRP48       0.0001
     82  CH2       25.0210  -18.7620    5.6380 C.ar   48  TRP48       0.0015
     83  N         28.5010  -15.8000   -2.7080 N.3   166  SER166     -0.1217
     84  CA        28.0820  -16.8980   -1.8220 C.3   166  SER166      0.1889
     85  C         26.5750  -17.0110   -1.6800 C.2   166  SER166      0.2288
     86  O         26.0170  -18.1290   -1.7130 O.2   166  SER166     -0.2866
     87  CB        28.7360  -16.7340   -0.4390 C.3   166  SER166      0.2089
     88  OG        30.1420  -16.9500   -0.5370 O.3   166  SER166     -0.2183
     89  N         24.9710  -18.5110   -4.9210 N.3   169  GLU169     -0.1231
     90  CA        25.0870  -19.9870   -4.8910 C.3   169  GLU169      0.1699
     91  C         24.1110  -20.6230   -3.9050 C.2   169  GLU169      0.2592
     92  O         23.4790  -21.6460   -4.2060 O.2   169  GLU169     -0.2718
     93  CB        26.4960  -20.4290   -4.4990 C.3   169  GLU169      0.0402
     94  CG        27.6220  -20.0220   -5.4350 C.3   169  GLU169      0.1161
     95  CD        28.9680  -20.4020   -4.8390 C.2   169  GLU169      0.3649
     96  OE1       29.2620  -20.0240   -3.6910 O.co2 169  GLU169     -0.2457
     97  OE2       29.7670  -21.0560   -5.4990 O.co2 169  GLU169     -0.2457
     98  N         23.9920  -20.0170   -2.7240 N.am  170  ALA170     -0.1980
     99  CA        23.1090  -20.5610   -1.6610 C.3   170  ALA170      0.1597
    100  C         21.6600  -20.5320   -2.0730 C.2   170  ALA170      0.2287
    101  O         20.9450  -21.4930   -1.8180 O.2   170  ALA170     -0.2864
    102  CB        23.2940  -19.8280   -0.3230 C.3   170  ALA170      0.0319
@<TRIPOS>BOND
     1    97    95   ar
     2    94    95    1
     3    94    93    1
     4    89    90    1
     5    90    93    1
     6    90    91    1
     7    95    96   ar
     8    92    91    2
     9    91    98   am
    10    49    48   ar
    11    49    47   ar
    12    48    46   ar
    13    47    45   ar
    14    39    38    2
    15    46    43   ar
    16    98    99    1
    17    83    84    1
    18    38    37    1
    19    45    43   ar
    20    45    44   ar
    21   100   101    2
    22   100    99    1
    23    43    41   ar
    24    84    85    1
    25    84    87    1
    26    86    85    2
    27    99   102    1
    28    44    42   ar
    29    37    40    1
    30    37    36    1
    31    41    42   ar
    32    41    40    1
    33    11     9   ar
    34    11    10   ar
    35     9     7   ar
    36    88    87    1
    37    10     8   ar
    38     7     6   ar
    39     1     2    1
    40     8     6   ar
    41     6     5    1
    42     2     5    1
    43     2     3    1
    44    27    26    2
    45    58    56   ar
    46    55    56    1
    47    55    54    1
    48    56    57   ar
    49    35    34    1
    50     3     4    2
    51    26    25    1
    52    33    34   ar
    53    33    31   ar
    54    54    51    1
    55    34    32   ar
    56    31    29   ar
    57    32    30   ar
    58    25    24    1
    59    25    28    1
    60    23    22    1
    61    29    30   ar
    62    29    28    1
    63    51    52    1
    64    51    50    1
    65    15    14    2
    66    20    22   ar
    67    20    18   ar
    68    22    21   ar
    69    52    53    2
    70    77    75   ar
    71    77    78   ar
    72    67    65   ar
    73    67    68   ar
    74    75    74   ar
    75    80    78   ar
    76    80    82   ar
    77    65    64   ar
    78    78    76   ar
    79    18    17   ar
    80    21    19   ar
    81    14    13    1
    82    74    76   ar
    83    74    73    1
    84    82    81   ar
    85    76    79   ar
    86    73    70    1
    87    81    79   ar
    88    68    66   ar
    89    17    19   ar
    90    17    16    1
    91    64    63    1
    92    64    66   ar
    93    63    60    1
    94    13    16    1
    95    13    12    1
    96    70    69    1
    97    70    71    1
    98    60    59    1
    99    60    61    1
   100    61    62    2
   101    71    72    2
