@<TRIPOS>MOLECULE
tmp/4aidC00.pdb
 145 145 0 0 0
SMALL
GASTEIGER

@<TRIPOS>ATOM
      1  N         53.7290   57.4760  -69.8860 N.3   106  VAL106     -0.1245
      2  CA        53.1700   57.1680  -71.2210 C.3   106  VAL106      0.1561
      3  C         53.7310   55.8630  -71.8390 C.2   106  VAL106      0.2260
      4  O         54.9410   55.6670  -71.9080 O.2   106  VAL106     -0.2867
      5  CB        53.3460   58.3640  -72.2030 C.3   106  VAL106      0.0252
      6  CG1       52.7850   58.0480  -73.5780 C.3   106  VAL106      0.0019
      7  CG2       52.6630   59.6040  -71.6610 C.3   106  VAL106      0.0019
      8  N         55.0540   65.7330  -61.8730 N.3   141  CYS141     -0.1235
      9  CA        54.2330   66.7200  -62.6400 C.3   141  CYS141      0.1677
     10  C         54.9030   68.0740  -62.8700 C.2   141  CYS141      0.2270
     11  O         54.7370   68.6820  -63.9220 O.2   141  CYS141     -0.2867
     12  CB        52.8920   66.9550  -61.9800 C.3   141  CYS141      0.0956
     13  SG        51.8080   65.5230  -62.0680 S.3   141  CYS141     -0.0801
     14  N         57.9350   67.9450  -65.9510 N.3   144  GLY144     -0.1210
     15  CA        57.7090   68.0250  -67.3980 C.3   144  GLY144      0.1956
     16  C         57.7650   66.6650  -68.0790 C.2   144  GLY144      0.2612
     17  O         57.5450   66.5470  -69.2890 O.2   144  GLY144     -0.2717
     18  N         58.0500   65.6320  -67.2960 N.am  145  ALA145     -0.1966
     19  CA        58.0830   64.2850  -67.8130 C.3   145  ALA145      0.1713
     20  C         56.6790   63.8600  -68.2320 C.2   145  ALA145      0.2458
     21  O         55.7160   64.4610  -67.7640 O.2   145  ALA145     -0.2730
     22  CB        58.6210   63.3550  -66.7470 C.3   145  ALA145      0.0333
     23  N         56.5660   62.8260  -69.1090 N.am  146  PRO146     -0.2716
     24  CA        55.3190   62.1950  -69.5810 C.3   146  PRO146      0.1536
     25  C         54.6780   61.2790  -68.5570 C.2   146  PRO146      0.2599
     26  O         54.5470   60.0870  -68.7850 O.2   146  PRO146     -0.2715
     27  CB        55.7660   61.3670  -70.7890 C.3   146  PRO146      0.0310
     28  CG        57.0930   61.9390  -71.1740 C.3   146  PRO146      0.0237
     29  CD        57.7210   62.3190  -69.8720 C.3   146  PRO146      0.0939
     30  N         54.2500   61.8730  -67.4480 N.am  147  PHE147     -0.1960
     31  CA        53.6110   61.1960  -66.3180 C.3   147  PHE147      0.1771
     32  C         52.1870   61.7790  -66.1750 C.2   147  PHE147      0.2619
     33  O         51.9980   62.9770  -65.9850 O.2   147  PHE147     -0.2715
     34  CB        54.5130   61.4130  -65.0870 C.3   147  PHE147      0.0574
     35  CG        53.8530   61.2100  -63.7610 C.ar  147  PHE147     -0.0200
     36  CD1       53.6260   59.9210  -63.2740 C.ar  147  PHE147     -0.0042
     37  CD2       53.5300   62.3140  -62.9570 C.ar  147  PHE147     -0.0042
     38  CE1       53.0350   59.7300  -62.0290 C.ar  147  PHE147     -0.0003
     39  CE2       52.9470   62.1270  -61.7140 C.ar  147  PHE147     -0.0003
     40  CZ        52.6920   60.8420  -61.2510 C.ar  147  PHE147     -0.0000
     41  N         51.1980   60.9050  -66.2720 N.am  148  MET148     -0.1963
     42  CA        49.7950   61.3000  -66.4420 C.3   148  MET148      0.1736
     43  C         48.9510   61.5110  -65.1780 C.2   148  MET148      0.2617
     44  O         48.6190   60.5490  -64.4470 O.2   148  MET148     -0.2715
     45  CB        49.0980   60.3450  -67.4100 C.3   148  MET148      0.0427
     46  CG        49.8090   60.3450  -68.7500 C.3   148  MET148      0.0599
     47  SD        48.8380   59.7120  -70.1170 S.3   148  MET148     -0.1393
     48  CE        47.9850   61.2090  -70.6350 C.3   148  MET148      0.0692
     49  N         48.5520   62.7870  -65.0030 N.am  149  GLY149     -0.1941
     50  CA        47.8230   63.3200  -63.8270 C.3   149  GLY149      0.1998
     51  C         48.7200   63.2040  -62.6020 C.2   149  GLY149      0.2480
     52  O         49.6690   62.4520  -62.6350 O.2   149  GLY149     -0.2729
     53  N         48.4370   63.9460  -61.5200 N.am  150  PRO150     -0.2726
     54  CA        49.2530   63.6920  -60.3280 C.3   150  PRO150      0.1402
     55  C         48.7880   62.4770  -59.5650 C.2   150  PRO150      0.2269
     56  O         47.7180   61.9170  -59.8360 O.2   150  PRO150     -0.2865
     57  CB        49.0180   64.9270  -59.4560 C.3   150  PRO150      0.0296
     58  CG        48.2820   65.9040  -60.3200 C.3   150  PRO150      0.0237
     59  CD        47.5680   65.1170  -61.3660 C.3   150  PRO150      0.0939
     60  N         47.8880   70.0710  -58.8740 N.3   222  ILE222     -0.1245
     61  CA        47.5670   70.6640  -60.1790 C.3   222  ILE222      0.1561
     62  C         47.7030   72.2050  -60.1490 C.2   222  ILE222      0.2260
     63  O         48.1480   72.8470  -61.1220 O.2   222  ILE222     -0.2867
     64  CB        46.1970   70.1840  -60.7230 C.3   222  ILE222      0.0252
     65  CG1       46.2820   68.7190  -61.1660 C.3   222  ILE222      0.0019
     66  CG2       45.7510   71.0270  -61.9170 C.3   222  ILE222      0.0019
     67  CD1       45.3010   68.3240  -62.2590 C.3   222  ILE222      0.0001
     68  N         51.5370   73.1850  -60.1290 N.3   225  ALA225     -0.1231
     69  CA        52.0470   72.8830  -61.4720 C.3   225  ALA225      0.1694
     70  C         51.5040   73.8600  -62.5250 C.2   225  ALA225      0.2591
     71  O         52.2680   74.2800  -63.3840 O.2   225  ALA225     -0.2718
     72  CB        51.7800   71.4270  -61.8620 C.3   225  ALA225      0.0304
     73  N         50.2170   74.2410  -62.4460 N.am  226  GLU226     -0.1979
     74  CA        49.6650   75.2480  -63.3630 C.3   226  GLU226      0.1602
     75  C         50.5120   76.5130  -63.3720 C.2   226  GLU226      0.2287
     76  O         50.5780   77.2120  -64.3670 O.2   226  GLU226     -0.2864
     77  CB        48.2500   75.6260  -62.9720 C.3   226  GLU226      0.0415
     78  CG        47.1710   74.7340  -63.5580 C.3   226  GLU226      0.1163
     79  CD        45.7740   75.0730  -63.0230 C.2   226  GLU226      0.3649
     80  OE1       45.5750   76.2120  -62.5270 O.co2 226  GLU226     -0.2457
     81  OE2       44.8770   74.1960  -63.0790 O.co2 226  GLU226     -0.2457
     82  N         55.2950   74.4540  -63.2390 N.3   229  ALA229     -0.1231
     83  CA        55.8870   73.3590  -64.0140 C.3   229  ALA229      0.1694
     84  C         56.8090   73.8100  -65.1500 C.2   229  ALA229      0.2591
     85  O         56.6990   74.9370  -65.6630 O.2   229  ALA229     -0.2718
     86  CB        54.7860   72.4650  -64.5750 C.3   229  ALA229      0.0304
     87  N         57.7060   72.9120  -65.5490 N.am  230  LYS230     -0.1980
     88  CA        58.5330   73.1060  -66.7440 C.3   230  LYS230      0.1596
     89  C         57.6640   72.8750  -67.9650 C.2   230  LYS230      0.2287
     90  O         56.5670   72.3440  -67.8680 O.2   230  LYS230     -0.2864
     91  CB        59.7120   72.0970  -66.8130 C.3   230  LYS230      0.0298
     92  CG        60.6340   72.0040  -65.6040 C.3   230  LYS230      0.0038
     93  CD        61.8420   72.9150  -65.7200 C.3   230  LYS230      0.0206
     94  CE        62.7930   72.7760  -64.5290 C.3   230  LYS230      0.1093
     95  NZ        62.2230   73.3010  -63.2460 N.3   230  LYS230     -0.1314
     96  N         56.4040   70.8730  -71.0800 N.3   232  PRO232     -0.2102
     97  CA        56.2270   69.4040  -71.1640 C.3   232  PRO232      0.1504
     98  C         57.1950   68.7810  -72.1410 C.2   232  PRO232      0.2576
     99  O         57.4230   69.3470  -73.2020 O.2   232  PRO232     -0.2718
    100  CB        54.7930   69.2270  -71.7090 C.3   232  PRO232      0.0282
    101  CG        54.2240   70.5900  -71.9230 C.3   232  PRO232      0.0208
    102  CD        55.2950   71.6180  -71.7100 C.3   232  PRO232      0.0893
    103  N         57.7530   67.6300  -71.7950 N.am  233  PHE233     -0.1963
    104  CA        58.6480   66.9160  -72.7060 C.3   233  PHE233      0.1771
    105  C         57.7810   66.3480  -73.8080 C.2   233  PHE233      0.2619
    106  O         56.7780   65.6910  -73.5250 O.2   233  PHE233     -0.2715
    107  CB        59.4030   65.7850  -71.9760 C.3   233  PHE233      0.0574
    108  CG        60.5030   65.1260  -72.7970 C.ar  233  PHE233     -0.0200
    109  CD1       61.7250   65.7660  -73.0160 C.ar  233  PHE233     -0.0042
    110  CD2       60.3250   63.8510  -73.3300 C.ar  233  PHE233     -0.0042
    111  CE1       62.7330   65.1450  -73.7500 C.ar  233  PHE233     -0.0003
    112  CE2       61.3260   63.2340  -74.0740 C.ar  233  PHE233     -0.0003
    113  CZ        62.5310   63.8770  -74.2780 C.ar  233  PHE233     -0.0000
    114  N         58.1440   66.6470  -75.0550 N.am  234  ALA234     -0.1963
    115  CA        57.4330   66.1080  -76.2170 C.3   234  ALA234      0.1728
    116  C         57.7830   64.6260  -76.4540 C.2   234  ALA234      0.2616
    117  O         58.9560   64.2300  -76.3860 O.2   234  ALA234     -0.2715
    118  CB        57.7190   66.9470  -77.4600 C.3   234  ALA234      0.0334
    119  N         56.7510   63.8210  -76.7040 N.am  235  PHE235     -0.1960
    120  CA        56.8900   62.3860  -76.9480 C.3   235  PHE235      0.1771
    121  C         55.5290   61.8590  -77.3740 C.2   235  PHE235      0.2619
    122  O         54.6370   61.6560  -76.5400 O.2   235  PHE235     -0.2715
    123  CB        57.4040   61.6420  -75.6910 C.3   235  PHE235      0.0574
    124  CG        57.3640   60.1300  -75.7990 C.ar  235  PHE235     -0.0200
    125  CD1       56.1760   59.4300  -75.5520 C.ar  235  PHE235     -0.0042
    126  CD2       58.5080   59.3990  -76.1310 C.ar  235  PHE235     -0.0042
    127  CE1       56.1260   58.0400  -75.6430 C.ar  235  PHE235     -0.0003
    128  CE2       58.4600   58.0100  -76.2260 C.ar  235  PHE235     -0.0003
    129  CZ        57.2670   57.3330  -75.9860 C.ar  235  PHE235     -0.0000
    130  N         55.3570   61.6600  -78.6760 N.am  236  GLU236     -0.1964
    131  CA        54.1380   61.0430  -79.1630 C.3   236  GLU236      0.1718
    132  C         54.3060   59.5290  -79.1080 C.2   236  GLU236      0.2458
    133  O         55.4180   59.0210  -79.3680 O.2   236  GLU236     -0.2730
    134  CB        53.8100   61.5110  -80.5800 C.3   236  GLU236      0.0428
    135  CG        53.5990   63.0150  -80.6370 C.3   236  GLU236      0.1163
    136  CD        54.8650   63.7140  -81.0960 C.2   236  GLU236      0.3649
    137  OE1       55.9130   63.0600  -81.2990 O.co2 236  GLU236     -0.2457
    138  OE2       54.8030   64.9490  -81.2730 O.co2 236  GLU236     -0.2457
    139  N         53.2070   58.8120  -78.7700 N.am  237  PRO237     -0.2727
    140  CA        53.2010   57.3470  -78.7490 C.3   237  PRO237      0.1402
    141  C         53.2660   56.7980  -80.1730 C.2   237  PRO237      0.2269
    142  O         52.9820   57.5260  -81.1290 O.2   237  PRO237     -0.2865
    143  CB        51.8570   56.9920  -78.0920 C.3   237  PRO237      0.0296
    144  CG        51.0890   58.2660  -77.9470 C.3   237  PRO237      0.0237
    145  CD        51.8610   59.3870  -78.5640 C.3   237  PRO237      0.0939
@<TRIPOS>BOND
     1   137   136   ar
     2   138   136   ar
     3   142   141    2
     4   136   135    1
     5   135   134    1
     6   134   131    1
     7   141   140    1
     8   133   132    2
     9   131   132    1
    10   131   130    1
    11   132   139   am
    12   139   140    1
    13   139   145    1
    14   140   143    1
    15   130   121   am
    16   145   144    1
    17   143   144    1
    18   118   115    1
    19   121   120    1
    20   121   122    2
    21   120   119    1
    22   120   123    1
    23   119   116   am
    24   116   117    2
    25   116   115    1
    26   128   126   ar
    27   128   129   ar
    28   115   114    1
    29   126   124   ar
    30   129   127   ar
    31   124   123    1
    32   124   125   ar
    33   127   125   ar
    34   114   105   am
    35   113   112   ar
    36   113   111   ar
    37   112   110   ar
    38   105   106    2
    39   105   104    1
    40   111   109   ar
    41     6     5    1
    42   110   108   ar
    43    99    98    2
    44   109   108   ar
    45   108   107    1
    46   104   107    1
    47   104   103    1
    48     5     7    1
    49     5     2    1
    50    98   103   am
    51    98    97    1
    52   101   102    1
    53   101   100    1
    54     4     3    2
    55     3     2    1
    56   102    96    1
    57   100    97    1
    58     2     1    1
    59    28    27    1
    60    28    29    1
    61    97    96    1
    62    27    24    1
    63    48    47    1
    64    47    46    1
    65    29    23    1
    66    24    23    1
    67    24    25    1
    68    17    16    2
    69    23    20   am
    70    26    25    2
    71    46    45    1
    72    25    30   am
    73    20    19    1
    74    20    21    2
    75    16    15    1
    76    16    18   am
    77    89    90    2
    78    89    88    1
    79    19    18    1
    80    19    22    1
    81    30    31    1
    82    45    42    1
    83    15    14    1
    84    91    88    1
    85    91    92    1
    86    88    87    1
    87    42    41    1
    88    42    43    1
    89    31    32    1
    90    31    34    1
    91    41    32   am
    92    32    33    2
    93    93    92    1
    94    93    94    1
    95    85    84    2
    96    87    84   am
    97    43    49   am
    98    43    44    2
    99    84    83    1
   100    34    35    1
   101    49    50    1
   102    86    83    1
   103    94    95    1
   104    76    75    2
   105    83    82    1
   106    11    10    2
   107    50    51    1
   108    35    36   ar
   109    35    37   ar
   110    78    79    1
   111    78    77    1
   112    71    70    2
   113    75    74    1
   114    74    77    1
   115    74    73    1
   116    36    38   ar
   117    81    79   ar
   118    79    80   ar
   119    37    39   ar
   120    10     9    1
   121     9    12    1
   122     9     8    1
   123    52    51    2
   124    51    53   am
   125    70    73   am
   126    70    69    1
   127    67    65    1
   128    13    12    1
   129    38    40   ar
   130    66    64    1
   131    72    69    1
   132    39    40   ar
   133    53    59    1
   134    53    54    1
   135    69    68    1
   136    59    58    1
   137    65    64    1
   138    63    62    2
   139    64    61    1
   140    54    55    1
   141    54    57    1
   142    58    57    1
   143    61    62    1
   144    61    60    1
   145    56    55    2
