@<TRIPOS>MOLECULE
tmp/4aidA00.pdb
 179 180 0 0 0
SMALL
GASTEIGER

@<TRIPOS>ATOM
      1  N        -39.2550    9.3000  -31.8530 N.3     5  PHE5       -0.1241
      2  CA       -39.7200   10.6220  -31.5130 C.3     5  PHE5        0.1605
      3  C        -38.8110   11.6460  -32.2110 C.2     5  PHE5        0.2264
      4  O        -37.9150   12.1860  -31.5500 O.2     5  PHE5       -0.2867
      5  CB       -39.4760   10.7170  -30.0120 C.3     5  PHE5        0.0534
      6  CG       -40.2610   11.7640  -29.3160 C.ar    5  PHE5       -0.0203
      7  CD1      -41.6010   12.0170  -29.6630 C.ar    5  PHE5       -0.0042
      8  CD2      -39.6860   12.4600  -28.2470 C.ar    5  PHE5       -0.0042
      9  CE1      -42.3450   12.9960  -28.9890 C.ar    5  PHE5       -0.0003
     10  CE2      -40.4100   13.4490  -27.5630 C.ar    5  PHE5       -0.0003
     11  CZ       -41.7440   13.7230  -27.9380 C.ar    5  PHE5       -0.0000
     12  N        -37.2980   14.9730  -33.8260 N.3     7  ILE7       -0.1245
     13  CA       -37.3880   16.3680  -33.6930 C.3     7  ILE7        0.1561
     14  C        -36.3960   16.9840  -34.7280 C.2     7  ILE7        0.2260
     15  O        -35.2960   16.4660  -34.9860 O.2     7  ILE7       -0.2867
     16  CB       -37.2120   16.7380  -32.2220 C.3     7  ILE7        0.0252
     17  CG1      -38.4970   16.4340  -31.4220 C.3     7  ILE7        0.0019
     18  CG2      -36.9410   18.2060  -32.1290 C.3     7  ILE7        0.0019
     19  CD1      -38.3230   15.9930  -29.9550 C.3     7  ILE7        0.0001
     20  N        -16.3550   22.5770  -19.6580 N.3   107  VAL107     -0.1245
     21  CA       -16.1380   23.2040  -18.3680 C.3   107  VAL107      0.1561
     22  C        -14.7780   22.8590  -17.8020 C.2   107  VAL107      0.2260
     23  O        -14.4170   21.7020  -17.7270 O.2   107  VAL107     -0.2867
     24  CB       -17.2260   22.8210  -17.3740 C.3   107  VAL107      0.0252
     25  CG1      -16.9300   23.4140  -16.0170 C.3   107  VAL107      0.0019
     26  CG2      -18.5330   23.4110  -17.8280 C.3   107  VAL107      0.0019
     27  N        -24.4860   19.7450  -27.8400 N.3   142  CYS142     -0.1235
     28  CA       -25.4620   20.4310  -26.9430 C.3   142  CYS142      0.1677
     29  C        -26.5780   19.4920  -26.5280 C.2   142  CYS142      0.2270
     30  O        -27.0160   19.5060  -25.3850 O.2   142  CYS142     -0.2867
     31  CB       -26.0950   21.6250  -27.6140 C.3   142  CYS142      0.0956
     32  SG       -24.8590   22.8970  -27.9520 S.3   142  CYS142     -0.0801
     33  N        -26.0170   16.6270  -23.4660 N.3   145  GLY145     -0.1210
     34  CA       -25.9510   16.8270  -22.0180 C.3   145  GLY145      0.1956
     35  C        -24.5770   16.9670  -21.3680 C.2   145  GLY145      0.2612
     36  O        -24.5000   17.1690  -20.1500 O.2   145  GLY145     -0.2717
     37  N        -23.5080   16.9220  -22.1630 N.am  146  ALA146     -0.1966
     38  CA       -22.1320   17.0720  -21.6620 C.3   146  ALA146      0.1713
     39  C        -21.9080   18.5130  -21.2530 C.2   146  ALA146      0.2458
     40  O        -22.6000   19.3840  -21.7990 O.2   146  ALA146     -0.2730
     41  CB       -21.1440   16.6890  -22.7480 C.3   146  ALA146      0.0333
     42  N        -20.9920   18.7730  -20.2650 N.am  147  PRO147     -0.2716
     43  CA       -20.7320   20.1370  -19.7680 C.3   147  PRO147      0.1536
     44  C        -19.9110   20.8960  -20.7990 C.2   147  PRO147      0.2599
     45  O        -18.6990   21.1050  -20.6310 O.2   147  PRO147     -0.2715
     46  CB       -19.9220   19.9100  -18.5150 C.3   147  PRO147      0.0310
     47  CG       -20.3020   18.5610  -18.0870 C.3   147  PRO147      0.0237
     48  CD       -20.3420   17.8090  -19.3780 C.3   147  PRO147      0.0939
     49  N        -20.6390   21.2950  -21.8530 N.am  148  PHE148     -0.1960
     50  CA       -20.1490   21.9590  -23.0310 C.3   148  PHE148      0.1771
     51  C        -20.9040   23.2870  -23.2100 C.2   148  PHE148      0.2619
     52  O        -22.0950   23.3440  -23.3830 O.2   148  PHE148     -0.2715
     53  CB       -20.3120   21.0090  -24.2040 C.3   148  PHE148      0.0574
     54  CG       -20.1040   21.6380  -25.5190 C.ar  148  PHE148     -0.0200
     55  CD1      -18.8460   21.9510  -25.9490 C.ar  148  PHE148     -0.0042
     56  CD2      -21.1870   21.8920  -26.3510 C.ar  148  PHE148     -0.0042
     57  CE1      -18.6660   22.5400  -27.2160 C.ar  148  PHE148     -0.0003
     58  CE2      -21.0170   22.4630  -27.6010 C.ar  148  PHE148     -0.0003
     59  CZ       -19.7590   22.8150  -28.0340 C.ar  148  PHE148     -0.0000
     60  N        -20.1420   24.3580  -23.1340 N.am  149  MET149     -0.1963
     61  CA       -20.6750   25.7110  -23.0950 C.3   149  MET149      0.1736
     62  C        -20.7900   26.2540  -24.5190 C.2   149  MET149      0.2617
     63  O        -20.1820   27.2600  -24.8780 O.2   149  MET149     -0.2715
     64  CB       -19.7940   26.5340  -22.1640 C.3   149  MET149      0.0427
     65  CG       -19.9560   25.9240  -20.7810 C.3   149  MET149      0.0599
     66  SD       -19.3840   26.8380  -19.3340 S.3   149  MET149     -0.1393
     67  CE       -17.6200   26.9780  -19.7120 C.3   149  MET149      0.0692
     68  N        -21.5270   25.5300  -25.3490 N.am  150  GLY150     -0.1941
     69  CA       -21.6330   25.9000  -26.7780 C.3   150  GLY150      0.1998
     70  C        -22.9890   26.5240  -26.9330 C.2   150  GLY150      0.2480
     71  O        -23.4750   27.0120  -26.0220 O.2   150  GLY150     -0.2729
     72  N        -23.6190   26.4600  -28.0790 N.am  151  PRO151     -0.2726
     73  CA       -22.9920   25.7780  -29.1980 C.3   151  PRO151      0.1402
     74  C        -21.9180   26.6210  -29.8730 C.2   151  PRO151      0.2269
     75  O        -21.7120   27.7890  -29.5470 O.2   151  PRO151     -0.2865
     76  CB       -24.1470   25.5450  -30.1670 C.3   151  PRO151      0.0296
     77  CG       -25.2120   26.5110  -29.7750 C.3   151  PRO151      0.0237
     78  CD       -24.9910   26.9230  -28.3540 C.3   151  PRO151      0.0939
     79  N        -29.8170   26.0380  -30.4910 N.3   223  ILE223     -0.1245
     80  CA       -30.4920   26.2250  -29.1790 C.3   223  ILE223      0.1561
     81  C        -31.9690   25.8590  -29.2820 C.2   223  ILE223      0.2260
     82  O        -32.5200   25.2540  -28.3720 O.2   223  ILE223     -0.2867
     83  CB       -30.3130   27.6080  -28.5270 C.3   223  ILE223      0.0252
     84  CG1      -28.8720   27.7330  -28.0500 C.3   223  ILE223      0.0019
     85  CG2      -31.2300   27.7350  -27.3170 C.3   223  ILE223      0.0019
     86  CD1      -28.2480   29.0710  -28.3680 C.3   223  ILE223      0.0001
     87  N        -31.9760   22.1770  -29.2130 N.3   226  ALA226     -0.1231
     88  CA       -31.6330   21.7330  -27.8470 C.3   226  ALA226      0.1694
     89  C        -32.8100   21.8400  -26.9210 C.2   226  ALA226      0.2592
     90  O        -33.1100   20.8960  -26.2410 O.2   226  ALA226     -0.2718
     91  CB       -30.4440   22.5070  -27.2840 C.3   226  ALA226      0.0304
     92  N        -33.4750   22.9850  -26.9200 N.am  227  GLU227     -0.1966
     93  CA       -34.6150   23.2590  -26.0450 C.3   227  GLU227      0.1733
     94  C        -35.7780   22.2710  -26.1920 C.2   227  GLU227      0.2616
     95  O        -36.5240   22.0440  -25.2310 O.2   227  GLU227     -0.2715
     96  CB       -35.1820   24.6690  -26.2860 C.3   227  GLU227      0.0429
     97  CG       -34.4900   25.8350  -25.5830 C.3   227  GLU227      0.1163
     98  CD       -34.8590   27.1810  -26.2300 C.2   227  GLU227      0.3649
     99  OE1      -35.9600   27.2660  -26.8590 O.co2 227  GLU227     -0.2457
    100  OE2      -34.0550   28.1630  -26.1250 O.co2 227  GLU227     -0.2457
    101  N        -35.9530   21.7160  -27.3940 N.am  228  HIS228     -0.1959
    102  CA       -36.9780   20.7060  -27.6030 C.3   228  HIS228      0.1787
    103  C        -36.4530   19.2970  -27.3700 C.2   228  HIS228      0.2620
    104  O        -37.2330   18.3890  -27.0620 O.2   228  HIS228     -0.2715
    105  CB       -37.6220   20.8550  -28.9840 C.3   228  HIS228      0.0785
    106  CG       -38.2870   22.2120  -29.2010 C.ar  228  HIS228      0.0821
    107  ND1      -39.5100   22.5300  -28.6690 N.ar  228  HIS228     -0.2267
    108  CD2      -37.8400   23.3700  -29.8770 C.ar  228  HIS228      0.1154
    109  CE1      -39.8320   23.8100  -29.0010 C.ar  228  HIS228      0.1986
    110  NE2      -38.8070   24.3240  -29.7380 N.ar  228  HIS228     -0.2212
    111  N        -35.1340   19.0700  -27.4700 N.am  229  ALA229     -0.1963
    112  CA       -34.6640   17.6950  -27.5640 C.3   229  ALA229      0.1728
    113  C        -33.4760   17.2460  -26.7240 C.2   229  ALA229      0.2616
    114  O        -33.1620   16.0620  -26.7540 O.2   229  ALA229     -0.2715
    115  CB       -34.4360   17.3440  -29.0140 C.3   229  ALA229      0.0334
    116  N        -32.8680   18.1380  -25.9380 N.am  230  ALA230     -0.1963
    117  CA       -31.6140   17.8460  -25.2340 C.3   230  ALA230      0.1728
    118  C        -31.8400   16.8400  -24.1810 C.2   230  ALA230      0.2616
    119  O        -32.9340   16.7100  -23.7630 O.2   230  ALA230     -0.2715
    120  CB       -31.0730   19.1080  -24.5890 C.3   230  ALA230      0.0334
    121  N        -30.8120   16.1690  -23.6970 N.am  231  LYS231     -0.1963
    122  CA       -30.9850   15.2670  -22.5510 C.3   231  LYS231      0.1728
    123  C        -30.7710   16.0460  -21.2750 C.2   231  LYS231      0.2616
    124  O        -30.2710   17.1400  -21.3620 O.2   231  LYS231     -0.2715
    125  CB       -29.9380   14.1590  -22.5860 C.3   231  LYS231      0.0311
    126  CG       -29.7920   13.4360  -23.9140 C.3   231  LYS231      0.0038
    127  CD       -30.7480   12.2700  -24.0310 C.3   231  LYS231      0.0206
    128  CE       -30.7770   11.6740  -25.4170 C.3   231  LYS231      0.1093
    129  NZ       -29.9190   10.4930  -25.3250 N.3   231  LYS231     -0.1314
    130  N        -31.0900   15.4750  -20.1000 N.am  232  GLU232     -0.1964
    131  CA       -30.6620   16.0550  -18.8020 C.3   232  GLU232      0.1722
    132  C        -29.2040   16.5170  -18.7670 C.2   232  GLU232      0.2496
    133  O        -28.2900   15.7490  -19.0870 O.2   232  GLU232     -0.2727
    134  CB       -30.8680   15.0740  -17.6410 C.3   232  GLU232      0.0428
    135  CG       -32.3240   14.9410  -17.2210 C.3   232  GLU232      0.1163
    136  CD       -32.9000   16.2370  -16.6110 C.2   232  GLU232      0.3649
    137  OE1      -32.3980   16.7280  -15.5540 O.co2 232  GLU232     -0.2457
    138  OE2      -33.8800   16.7690  -17.1830 O.co2 232  GLU232     -0.2457
    139  N        -28.9740   17.7690  -18.3370 N.am  233  PRO233     -0.2490
    140  CA       -27.5980   18.2310  -18.2280 C.3   233  PRO233      0.1619
    141  C        -26.8820   17.3430  -17.2380 C.2   233  PRO233      0.2605
    142  O        -27.4060   17.1190  -16.1540 O.2   233  PRO233     -0.2715
    143  CB       -27.7240   19.6350  -17.6460 C.3   233  PRO233      0.0570
    144  CG       -29.1280   19.8160  -17.2110 C.2   233  PRO233     -0.0077
    145  CD       -29.9420   18.6460  -17.6590 C.2   233  PRO233      0.0634
    146  N        -25.7210   16.8140  -17.6050 N.am  234  PHE234     -0.1960
    147  CA       -24.8490   16.1690  -16.6310 C.3   234  PHE234      0.1771
    148  C        -24.4160   17.1430  -15.5640 C.2   234  PHE234      0.2619
    149  O        -23.7800   18.1720  -15.8440 O.2   234  PHE234     -0.2715
    150  CB       -23.5850   15.6850  -17.3210 C.3   234  PHE234      0.0574
    151  CG       -22.7410   14.7560  -16.5060 C.ar  234  PHE234     -0.0200
    152  CD1      -23.1830   13.4710  -16.2140 C.ar  234  PHE234     -0.0042
    153  CD2      -21.4590   15.1370  -16.1040 C.ar  234  PHE234     -0.0042
    154  CE1      -22.3830   12.5960  -15.4960 C.ar  234  PHE234     -0.0003
    155  CE2      -20.6590   14.2670  -15.3790 C.ar  234  PHE234     -0.0003
    156  CZ       -21.1180   12.9860  -15.0840 C.ar  234  PHE234     -0.0000
    157  N        -24.7110   16.7770  -14.3320 N.am  235  ALA235     -0.1963
    158  CA       -24.2470   17.5530  -13.1740 C.3   235  ALA235      0.1728
    159  C        -22.7330   17.4730  -13.0960 C.2   235  ALA235      0.2616
    160  O        -22.1760   16.3930  -13.1940 O.2   235  ALA235     -0.2715
    161  CB       -24.8680   17.0210  -11.8770 C.3   235  ALA235      0.0334
    162  N        -22.0700   18.6040  -12.9330 N.am  236  PHE236     -0.1974
    163  CA       -20.6610   18.5750  -12.6240 C.3   236  PHE236      0.1639
    164  C        -20.2730   19.9320  -12.0730 C.2   236  PHE236      0.2290
    165  O        -20.2000   20.8980  -12.8310 O.2   236  PHE236     -0.2864
    166  CB       -19.8510   18.2500  -13.8900 C.3   236  PHE236      0.0560
    167  CG       -18.3900   18.5610  -13.7680 C.ar  236  PHE236     -0.0200
    168  CD1      -17.9070   19.8260  -14.0570 C.ar  236  PHE236     -0.0042
    169  CD2      -17.4940   17.5870  -13.3360 C.ar  236  PHE236     -0.0042
    170  CE1      -16.5600   20.1130  -13.9140 C.ar  236  PHE236     -0.0003
    171  CE2      -16.1310   17.8700  -13.1930 C.ar  236  PHE236     -0.0003
    172  CZ       -15.6650   19.1370  -13.4780 C.ar  236  PHE236     -0.0000
    173  N        -17.2640   22.2200  -10.5290 N.3   238  PRO238     -0.2116
    174  CA       -15.8230   22.1800  -10.2930 C.3   238  PRO238      0.1372
    175  C        -15.4740   22.6500   -8.8670 C.2   238  PRO238      0.2244
    176  O        -16.3730   23.0160   -8.0920 O.2   238  PRO238     -0.2868
    177  CB       -15.2540   23.1160  -11.3790 C.3   238  PRO238      0.0268
    178  CG       -16.4400   23.7740  -12.0570 C.3   238  PRO238      0.0207
    179  CD       -17.6760   23.4280  -11.2670 C.3   238  PRO238      0.0892
@<TRIPOS>BOND
     1    15    14    2
     2    14    13    1
     3    12    13    1
     4    13    16    1
     5    16    18    1
     6    16    17    1
     7     3     4    2
     8     3     2    1
     9     1     2    1
    10     2     5    1
    11    17    19    1
    12    79    80    1
    13    76    77    1
    14    76    73    1
    15     5     6    1
    16   108   110   ar
    17   108   106   ar
    18    74    75    2
    19    74    73    1
    20    77    78    1
    21   110   109   ar
    22     7     6   ar
    23     7     9   ar
    24     6     8   ar
    25    81    80    1
    26    81    82    2
    27    87    88    1
    28   106   105    1
    29   106   107   ar
    30    73    72    1
    31    80    83    1
    32   115   112    1
    33   109   107   ar
    34     9    11   ar
    35   105   102    1
    36    83    84    1
    37    83    85    1
    38    86    84    1
    39    78    72    1
    40     8    10   ar
    41    72    70   am
    42    59    58   ar
    43    59    57   ar
    44    32    31    1
    45    11    10   ar
    46    88    91    1
    47    88    89    1
    48    27    28    1
    49    31    28    1
    50   102   101    1
    51   102   103    1
    52    58    56   ar
    53   112   111    1
    54   112   113    1
    55   111   103   am
    56   101    94   am
    57   103   104    2
    58    57    55   ar
    59    28    29    1
    60    70    69    1
    61    70    71    2
    62    89    92   am
    63    89    90    2
    64    92    93    1
    65    99    98   ar
    66    69    68    1
    67   114   113    2
    68   113   116   am
    69    29    30    2
    70    56    54   ar
    71    96    93    1
    72    96    97    1
    73    98   100   ar
    74    98    97    1
    75    94    93    1
    76    94    95    2
    77    55    54   ar
    78   116   117    1
    79    54    53    1
    80   128   129    1
    81   128   127    1
    82    68    62   am
    83   117   120    1
    84   117   118    1
    85    63    62    2
    86    62    61    1
    87    53    50    1
    88   118   119    2
    89   118   121   am
    90   127   126    1
    91   126   125    1
    92   121   122    1
    93    33    34    1
    94    52    51    2
    95    51    60   am
    96    51    50    1
    97    60    61    1
    98    61    64    1
    99    50    49    1
   100    41    38    1
   101   125   122    1
   102   122   123    1
   103    64    65    1
   104    37    38    1
   105    37    35   am
   106    34    35    1
   107    49    44   am
   108    40    39    2
   109    38    39    1
   110    35    36    2
   111   124   123    2
   112   123   130   am
   113    39    42   am
   114    44    45    2
   115    44    43    1
   116    65    66    1
   117    42    43    1
   118    42    48    1
   119   130   131    1
   120    43    46    1
   121    67    66    1
   122    20    21    1
   123    48    47    1
   124   133   132    2
   125   131   132    1
   126   131   134    1
   127   132   139   am
   128    46    47    1
   129    21    22    1
   130    21    24    1
   131   139   140    1
   132   139   145    1
   133   140   143    1
   134   140   141    1
   135    26    24    1
   136    22    23    2
   137   145   144    2
   138   143   144    1
   139   134   135    1
   140   146   141   am
   141   146   147    1
   142    24    25    1
   143   150   147    1
   144   150   151    1
   145   141   142    2
   146   135   136    1
   147   138   136   ar
   148   147   148    1
   149   136   137   ar
   150   151   152   ar
   151   151   153   ar
   152   152   154   ar
   153   153   155   ar
   154   149   148    2
   155   148   157   am
   156   154   156   ar
   157   155   156   ar
   158   157   158    1
   159   168   170   ar
   160   168   167   ar
   161   170   172   ar
   162   166   167    1
   163   166   163    1
   164   167   169   ar
   165   172   171   ar
   166   169   171   ar
   167   160   159    2
   168   158   159    1
   169   158   161    1
   170   159   162   am
   171   162   163    1
   172   165   164    2
   173   163   164    1
   174   178   177    1
   175   178   179    1
   176   177   174    1
   177   179   173    1
   178   173   174    1
   179   174   175    1
   180   175   176    2
