@<TRIPOS>MOLECULE
tmp/4aimA00.pdb
 179 180 0 0 0
SMALL
GASTEIGER

@<TRIPOS>ATOM
      1  N        -11.1430   38.3930   32.6070 N.3     4  PHE4       -0.1241
      2  CA       -12.1900   39.2220   32.0230 C.3     4  PHE4        0.1605
      3  C        -13.5440   38.5460   32.2490 C.2     4  PHE4        0.2264
      4  O        -14.3840   38.4580   31.3360 O.2     4  PHE4       -0.2867
      5  CB       -11.8540   39.4030   30.5320 C.3     4  PHE4        0.0534
      6  CG       -12.8950   40.1250   29.7200 C.ar    4  PHE4       -0.0203
      7  CD1      -13.0270   41.5140   29.7890 C.ar    4  PHE4       -0.0042
      8  CD2      -13.6980   39.4160   28.8350 C.ar    4  PHE4       -0.0042
      9  CE1      -13.9650   42.1770   29.0130 C.ar    4  PHE4       -0.0003
     10  CE2      -14.6400   40.0700   28.0580 C.ar    4  PHE4       -0.0003
     11  CZ       -14.7730   41.4530   28.1450 C.ar    4  PHE4       -0.0000
     12  N        -17.2090   38.3080   34.5330 N.3     6  ILE6       -0.1245
     13  CA       -17.8590   37.0620   34.1120 C.3     6  ILE6        0.1561
     14  C        -18.0930   36.0630   35.2720 C.2     6  ILE6        0.2260
     15  O        -17.1530   35.5460   35.8590 O.2     6  ILE6       -0.2867
     16  CB       -17.1280   36.4380   32.9040 C.3     6  ILE6        0.0252
     17  CG1      -17.1750   37.3330   31.6430 C.3     6  ILE6        0.0019
     18  CG2      -17.6710   35.0600   32.6280 C.3     6  ILE6        0.0019
     19  CD1      -18.5040   37.9600   31.3310 C.3     6  ILE6        0.0001
     20  N        -23.4660   15.8570   20.0020 N.3   106  VAL106     -0.1245
     21  CA       -23.9340   15.7560   18.6000 C.3   106  VAL106      0.1561
     22  C        -23.6030   14.4150   17.9110 C.2   106  VAL106      0.2260
     23  O        -22.4330   13.9840   17.9140 O.2   106  VAL106     -0.2867
     24  CB       -23.3160   16.8940   17.7710 C.3   106  VAL106      0.0252
     25  CG1      -23.3630   16.5700   16.2870 C.3   106  VAL106      0.0019
     26  CG2      -24.0050   18.2100   18.0830 C.3   106  VAL106      0.0019
     27  N        -20.6080   23.6650   28.1850 N.3   141  CYS141     -0.1235
     28  CA       -21.3400   24.6600   27.3850 C.3   141  CYS141      0.1677
     29  C        -20.4510   25.8240   26.9930 C.2   141  CYS141      0.2270
     30  O        -20.4300   26.2600   25.8370 O.2   141  CYS141     -0.2867
     31  CB       -22.5140   25.1960   28.1750 C.3   141  CYS141      0.0956
     32  SG       -23.5220   23.8300   28.7200 S.3   141  CYS141     -0.0801
     33  N        -17.8070   25.4600   23.8580 N.3   144  GLY144     -0.1210
     34  CA       -18.2210   25.5120   22.4630 C.3   144  GLY144      0.1956
     35  C        -18.3010   24.1350   21.8280 C.2   144  GLY144      0.2612
     36  O        -18.7620   23.9840   20.6920 O.2   144  GLY144     -0.2717
     37  N        -17.8540   23.1190   22.5610 N.am  145  ALA145     -0.1966
     38  CA       -17.8460   21.7540   22.0420 C.3   145  ALA145      0.1713
     39  C        -19.2830   21.3390   21.7640 C.2   145  ALA145      0.2458
     40  O        -20.1820   21.8770   22.4060 O.2   145  ALA145     -0.2730
     41  CB       -17.1930   20.8200   23.0460 C.3   145  ALA145      0.0333
     42  N        -19.5080   20.4020   20.8200 N.am  146  PRO146     -0.2716
     43  CA       -20.8580   20.0500   20.3850 C.3   146  PRO146      0.1536
     44  C        -21.6910   19.2710   21.4150 C.2   146  PRO146      0.2599
     45  O        -21.9990   18.0860   21.2000 O.2   146  PRO146     -0.2715
     46  CB       -20.6000   19.2140   19.1240 C.3   146  PRO146      0.0310
     47  CG       -19.2710   19.6730   18.6620 C.3   146  PRO146      0.0237
     48  CD       -18.5180   19.7760   19.9450 C.3   146  PRO146      0.0939
     49  N        -22.0890   19.9440   22.4980 N.am  147  PHE147     -0.1960
     50  CA       -22.6090   19.2480   23.6890 C.3   147  PHE147      0.1771
     51  C        -24.0020   19.7210   24.0330 C.2   147  PHE147      0.2619
     52  O        -24.1920   20.6560   24.7930 O.2   147  PHE147     -0.2715
     53  CB       -21.6360   19.3960   24.8720 C.3   147  PHE147      0.0574
     54  CG       -22.2540   19.1510   26.2150 C.ar  147  PHE147     -0.0200
     55  CD1      -22.8470   17.9180   26.5330 C.ar  147  PHE147     -0.0042
     56  CD2      -22.2320   20.1510   27.1850 C.ar  147  PHE147     -0.0042
     57  CE1      -23.4140   17.6950   27.7850 C.ar  147  PHE147     -0.0003
     58  CE2      -22.7960   19.9320   28.4440 C.ar  147  PHE147     -0.0003
     59  CZ       -23.3830   18.6970   28.7380 C.ar  147  PHE147     -0.0000
     60  N        -24.9830   19.0480   23.4660 N.am  148  MET148     -0.1963
     61  CA       -26.3210   19.6030   23.4040 C.3   148  MET148      0.1736
     62  C        -27.0670   19.9060   24.7120 C.2   148  MET148      0.2617
     63  O        -27.6710   19.0220   25.3500 O.2   148  MET148     -0.2715
     64  CB       -27.1690   18.7940   22.4630 C.3   148  MET148      0.0427
     65  CG       -26.9710   19.2420   21.0540 C.3   148  MET148      0.0599
     66  SD       -27.3330   17.7890   20.0930 S.3   148  MET148     -0.1393
     67  CE       -28.9420   17.2600   20.7250 C.3   148  MET148      0.0692
     68  N        -27.0300   21.1940   25.0560 N.am  149  GLY149     -0.1941
     69  CA       -27.8890   21.7550   26.0800 C.3   149  GLY149      0.1998
     70  C        -27.3370   21.5330   27.4570 C.2   149  GLY149      0.2480
     71  O        -26.9530   20.4160   27.7970 O.2   149  GLY149     -0.2729
     72  N        -27.3140   22.5870   28.2710 N.am  150  PRO150     -0.2726
     73  CA       -26.8020   22.4030   29.6200 C.3   150  PRO150      0.1402
     74  C        -27.6430   21.4030   30.4020 C.2   150  PRO150      0.2269
     75  O        -28.8460   21.2420   30.1800 O.2   150  PRO150     -0.2865
     76  CB       -26.8910   23.7930   30.2480 C.3   150  PRO150      0.0296
     77  CG       -27.9760   24.4460   29.5060 C.3   150  PRO150      0.0237
     78  CD       -28.0380   23.8480   28.1170 C.3   150  PRO150      0.0939
     79  N        -27.1320   28.7080   31.0290 N.3   222  ILE222     -0.1245
     80  CA       -27.3900   29.4550   29.8330 C.3   222  ILE222      0.1561
     81  C        -27.0350   30.9260   30.0430 C.2   222  ILE222      0.2260
     82  O        -26.2060   31.4630   29.3040 O.2   222  ILE222     -0.2867
     83  CB       -28.8260   29.2860   29.3690 C.3   222  ILE222      0.0252
     84  CG1      -28.9820   27.9010   28.7870 C.3   222  ILE222      0.0019
     85  CG2      -29.1410   30.3180   28.2930 C.3   222  ILE222      0.0019
     86  CD1      -30.2250   27.1860   29.2360 C.3   222  ILE222      0.0001
     87  N        -23.2050   31.2790   29.9420 N.3   225  ALA225     -0.1231
     88  CA       -22.8920   30.9610   28.5740 C.3   225  ALA225      0.1694
     89  C        -23.1460   32.1640   27.6810 C.2   225  ALA225      0.2592
     90  O        -22.2530   32.5660   26.9250 O.2   225  ALA225     -0.2718
     91  CB       -23.7310   29.7790   28.1190 C.3   225  ALA225      0.0304
     92  N        -24.3420   32.7580   27.8090 N.am  226  GLU226     -0.1966
     93  CA       -24.7790   33.7890   26.8860 C.3   226  GLU226      0.1733
     94  C        -23.7010   34.8340   26.6650 C.2   226  GLU226      0.2616
     95  O        -23.4120   35.1880   25.5300 O.2   226  GLU226     -0.2715
     96  CB       -26.1450   34.3640   27.2510 C.3   226  GLU226      0.0429
     97  CG       -27.2920   33.4990   26.7110 C.3   226  GLU226      0.1163
     98  CD       -28.7100   34.0210   27.0190 C.2   226  GLU226      0.3649
     99  OE1      -28.9360   34.6770   28.0670 O.co2 226  GLU226     -0.2457
    100  OE2      -29.6290   33.7460   26.2100 O.co2 226  GLU226     -0.2457
    101  N        -23.0550   35.2810   27.7240 N.am  227  HIS227     -0.1959
    102  CA       -21.9470   36.2060   27.5400 C.3   227  HIS227      0.1787
    103  C        -20.7520   35.6390   28.2220 C.2   227  HIS227      0.2620
    104  O        -20.3830   36.0930   29.2990 O.2   227  HIS227     -0.2715
    105  CB       -22.3090   37.5780   28.1040 C.3   227  HIS227      0.0785
    106  CG       -23.3910   37.5200   29.1640 C.ar  227  HIS227      0.0821
    107  ND1      -23.4330   36.5430   30.1050 N.ar  227  HIS227     -0.2267
    108  CD2      -24.5040   38.3410   29.3920 C.ar  227  HIS227      0.1154
    109  CE1      -24.4970   36.7450   30.9020 C.ar  227  HIS227      0.1986
    110  NE2      -25.1540   37.8430   30.4610 N.ar  227  HIS227     -0.2212
    111  N        -20.1490   34.6140   27.6190 N.am  228  ALA228     -0.1963
    112  CA       -18.9650   33.9350   28.2020 C.3   228  ALA228      0.1728
    113  C        -18.5170   32.6680   27.4480 C.2   228  ALA228      0.2616
    114  O        -17.3210   32.3930   27.3510 O.2   228  ALA228     -0.2715
    115  CB       -19.1840   33.6150   29.6770 C.3   228  ALA228      0.0334
    116  N        -19.4650   31.8920   26.9300 N.am  229  ALA229     -0.1963
    117  CA       -19.0980   30.7350   26.1300 C.3   229  ALA229      0.1728
    118  C        -18.1790   31.1000   24.9770 C.2   229  ALA229      0.2616
    119  O        -18.2140   32.2180   24.4680 O.2   229  ALA229     -0.2715
    120  CB       -20.3210   30.0510   25.5860 C.3   229  ALA229      0.0334
    121  N        -17.3460   30.1450   24.5710 N.am  230  LYS230     -0.1963
    122  CA       -16.4730   30.3220   23.4100 C.3   230  LYS230      0.1728
    123  C        -17.2590   30.0640   22.1230 C.2   230  LYS230      0.2616
    124  O        -18.3150   29.4350   22.1470 O.2   230  LYS230     -0.2715
    125  CB       -15.2070   29.4660   23.5390 C.3   230  LYS230      0.0311
    126  CG       -14.3170   29.8730   24.7220 C.3   230  LYS230      0.0038
    127  CD       -12.9070   29.2850   24.6240 C.3   230  LYS230      0.0206
    128  CE       -11.8100   30.1860   25.1840 C.3   230  LYS230      0.1093
    129  NZ       -11.6360   30.0650   26.6580 N.3   230  LYS230     -0.1314
    130  N        -16.7650   30.6070   21.0160 N.am  231  GLU231     -0.1964
    131  CA       -17.4300   30.5000   19.7280 C.3   231  GLU231      0.1718
    132  C        -17.7180   29.0250   19.4880 C.2   231  GLU231      0.2458
    133  O        -16.8130   28.2120   19.5370 O.2   231  GLU231     -0.2730
    134  CB       -16.5350   31.0880   18.6180 C.3   231  GLU231      0.0428
    135  CG       -17.2060   31.3060   17.2570 C.3   231  GLU231      0.1163
    136  CD       -17.9030   32.6630   17.1140 C.2   231  GLU231      0.3649
    137  OE1      -18.7760   33.0080   17.9520 O.co2 231  GLU231     -0.2457
    138  OE2      -17.5800   33.3910   16.1460 O.co2 231  GLU231     -0.2457
    139  N        -18.9770   28.6670   19.2380 N.am  232  PRO232     -0.2716
    140  CA       -19.2520   27.2530   19.1900 C.3   232  PRO232      0.1536
    141  C        -18.5330   26.6320   18.0160 C.2   232  PRO232      0.2599
    142  O        -18.2820   27.2880   17.0050 O.2   232  PRO232     -0.2715
    143  CB       -20.7530   27.1850   19.0220 C.3   232  PRO232      0.0310
    144  CG       -21.0560   28.4060   18.2590 C.3   232  PRO232      0.0237
    145  CD       -20.0650   29.4530   18.6540 C.3   232  PRO232      0.0939
    146  N        -18.1580   25.3810   18.2170 N.am  233  PHE233     -0.1960
    147  CA       -17.2510   24.6540   17.3660 C.3   233  PHE233      0.1771
    148  C        -18.1260   24.0450   16.2890 C.2   233  PHE233      0.2619
    149  O        -19.0950   23.3160   16.5770 O.2   233  PHE233     -0.2715
    150  CB       -16.5710   23.5870   18.2400 C.3   233  PHE233      0.0574
    151  CG       -15.7270   22.6030   17.4920 C.ar  233  PHE233     -0.0200
    152  CD1      -14.3980   22.9010   17.1820 C.ar  233  PHE233     -0.0042
    153  CD2      -16.2430   21.3570   17.1450 C.ar  233  PHE233     -0.0042
    154  CE1      -13.6120   21.9870   16.4980 C.ar  233  PHE233     -0.0003
    155  CE2      -15.4600   20.4390   16.4610 C.ar  233  PHE233     -0.0003
    156  CZ       -14.1460   20.7510   16.1370 C.ar  233  PHE233     -0.0000
    157  N        -17.8150   24.3810   15.0450 N.am  234  ALA234     -0.1963
    158  CA       -18.6820   23.9630   13.9480 C.3   234  ALA234      0.1728
    159  C        -18.4800   22.4960   13.6650 C.2   234  ALA234      0.2616
    160  O        -17.3780   22.0580   13.3190 O.2   234  ALA234     -0.2715
    161  CB       -18.4350   24.7970   12.6920 C.3   234  ALA234      0.0334
    162  N        -19.5310   21.7190   13.8240 N.am  235  PHE235     -0.1974
    163  CA       -19.4210   20.3470   13.4160 C.3   235  PHE235      0.1639
    164  C        -20.7650   19.9550   12.8300 C.2   235  PHE235      0.2290
    165  O        -21.8260   20.2230   13.4390 O.2   235  PHE235     -0.2864
    166  CB       -19.0010   19.4740   14.6030 C.3   235  PHE235      0.0560
    167  CG       -19.1530   18.0010   14.3650 C.ar  235  PHE235     -0.0200
    168  CD1      -18.1200   17.2690   13.8020 C.ar  235  PHE235     -0.0042
    169  CD2      -20.3410   17.3380   14.7090 C.ar  235  PHE235     -0.0042
    170  CE1      -18.2650   15.9000   13.5920 C.ar  235  PHE235     -0.0003
    171  CE2      -20.4950   15.9790   14.4930 C.ar  235  PHE235     -0.0003
    172  CZ       -19.4540   15.2550   13.9390 C.ar  235  PHE235     -0.0000
    173  N        -23.4850   17.8470   12.3280 N.3   237  PRO237     -0.2116
    174  CA       -24.1640   16.6830   12.8660 C.3   237  PRO237      0.1372
    175  C        -24.4130   15.6810   11.7390 C.2   237  PRO237      0.2244
    176  O        -25.3020   15.8710   10.9150 O.2   237  PRO237     -0.2868
    177  CB       -25.4730   17.2620   13.3900 C.3   237  PRO237      0.0268
    178  CG       -25.1330   18.6600   13.7490 C.3   237  PRO237      0.0207
    179  CD       -24.1440   19.1030   12.7170 C.3   237  PRO237      0.0892
@<TRIPOS>BOND
     1   176   175    2
     2   175   174    1
     3   173   179    1
     4   173   174    1
     5   161   158    1
     6   179   178    1
     7   164   163    1
     8   164   165    2
     9   174   177    1
    10   160   159    2
    11   177   178    1
    12   163   162    1
    13   163   166    1
    14   170   168   ar
    15   170   172   ar
    16   159   162   am
    17   159   158    1
    18   168   167   ar
    19   172   171   ar
    20   158   157    1
    21   167   166    1
    22   167   169   ar
    23   171   169   ar
    24   157   148   am
    25   156   155   ar
    26   156   154   ar
    27   138   136   ar
    28    25    24    1
    29   148   149    2
    30   148   147    1
    31   155   153   ar
    32   154   152   ar
    33   142   141    2
    34   136   135    1
    35   136   137   ar
    36   153   151   ar
    37   152   151   ar
    38   135   134    1
    39   147   146    1
    40   147   150    1
    41   151   150    1
    42    24    26    1
    43    24    21    1
    44    22    23    2
    45    22    21    1
    46   141   146   am
    47   141   140    1
    48   144   145    1
    49   144   143    1
    50    21    20    1
    51   134   131    1
    52   145   139    1
    53    47    46    1
    54    47    48    1
    55   143   140    1
    56    46    43    1
    57   140   139    1
    58   139   132   am
    59   132   133    2
    60   132   131    1
    61   131   130    1
    62    48    42    1
    63    66    67    1
    64    66    65    1
    65    43    42    1
    66    43    44    1
    67    36    35    2
    68    42    39   am
    69   130   123   am
    70    65    64    1
    71    45    44    2
    72    44    49   am
    73    39    38    1
    74    39    40    2
    75    35    34    1
    76    35    37   am
    77    38    37    1
    78    38    41    1
    79   123   124    2
    80   123   122    1
    81    64    61    1
    82    34    33    1
    83    49    50    1
    84    61    60    1
    85    61    62    1
    86   122   125    1
    87   122   121    1
    88    60    51   am
    89   125   126    1
    90    50    51    1
    91    50    53    1
    92    51    52    2
    93   119   118    2
    94   121   118   am
    95   127   126    1
    96   127   128    1
    97    62    68   am
    98    62    63    2
    99    53    54    1
   100   118   117    1
   101    68    69    1
   102   128   129    1
   103    95    94    2
   104   120   117    1
   105    30    29    2
   106    69    70    1
   107   117   116    1
   108   100    98   ar
   109    54    55   ar
   110    54    56   ar
   111    55    57   ar
   112    94    93    1
   113    94   101   am
   114    97    98    1
   115    97    96    1
   116    93    96    1
   117    93    92    1
   118    90    89    2
   119   116   113   am
   120    29    28    1
   121    98    99   ar
   122    56    58   ar
   123   114   113    2
   124    28    31    1
   125    28    27    1
   126   113   112    1
   127    70    71    2
   128    70    72   am
   129   102   101    1
   130   102   105    1
   131   102   103    1
   132   111   112    1
   133   111   103   am
   134    89    92   am
   135    89    88    1
   136    57    59   ar
   137    10    11   ar
   138    10     8   ar
   139   105   106    1
   140    78    72    1
   141    78    77    1
   142    91    88    1
   143    11     9   ar
   144    31    32    1
   145   112   115    1
   146   103   104    2
   147    72    73    1
   148    85    83    1
   149    58    59   ar
   150    88    87    1
   151    84    86    1
   152    84    83    1
   153     8     6   ar
   154     9     7   ar
   155   106   108   ar
   156   106   107   ar
   157    82    81    2
   158    83    80    1
   159   108   110   ar
   160    77    76    1
   161    73    76    1
   162    73    74    1
   163     6     7   ar
   164     6     5    1
   165    80    81    1
   166    80    79    1
   167   107   109   ar
   168    75    74    2
   169   110   109   ar
   170     5     2    1
   171    19    17    1
   172     4     3    2
   173    17    16    1
   174     2     3    1
   175     2     1    1
   176    18    16    1
   177    16    13    1
   178    13    12    1
   179    13    14    1
   180    14    15    2
