@<TRIPOS>MOLECULE
tmp/4ainB00.pdb
 102 105 0 0 0
SMALL
GASTEIGER

@<TRIPOS>ATOM
      1  N        -25.9610   21.5210  -55.3020 N.3    89  GLY89      -0.1210
      2  CA       -25.9240   22.0050  -53.9340 C.3    89  GLY89       0.1956
      3  C        -25.2140   23.3350  -53.7900 C.2    89  GLY89       0.2612
      4  O        -25.5950   24.1660  -52.9640 O.2    89  GLY89      -0.2717
      5  N        -24.1750   23.5350  -54.5940 N.am   90  MET90      -0.1965
      6  CA       -23.4170   24.7810  -54.5720 C.3    90  MET90       0.1736
      7  C        -23.9830   25.8090  -55.5510 C.2    90  MET90       0.2617
      8  O        -24.1540   25.5250  -56.7360 O.2    90  MET90      -0.2715
      9  CB       -21.9460   24.5170  -54.8880 C.3    90  MET90       0.0427
     10  CG       -21.1210   25.7820  -55.0380 C.3    90  MET90       0.0599
     11  SD       -21.3340   26.9110  -53.6470 S.3    90  MET90      -0.1393
     12  CE       -20.8440   25.8610  -52.2790 C.3    90  MET90       0.0692
     13  N        -24.2710   27.0050  -55.0480 N.am   91  GLY91      -0.1940
     14  CA       -24.7940   28.0770  -55.8730 C.3    91  GLY91       0.2014
     15  C        -23.8290   29.2440  -55.9590 C.2    91  GLY91       0.2639
     16  O        -22.6440   29.0620  -56.2310 O.2    91  GLY91      -0.2714
     17  N        -24.3430   30.4460  -55.7180 N.am   92  ILE92      -0.1963
     18  CA       -23.5430   31.6690  -55.7700 C.3    92  ILE92       0.1727
     19  C        -22.3650   31.6720  -54.7890 C.2    92  ILE92       0.2616
     20  O        -21.4070   32.4240  -54.9610 O.2    92  ILE92      -0.2715
     21  CB       -24.4270   32.9110  -55.5280 C.3    92  ILE92       0.0290
     22  CG1      -24.5330   33.7340  -56.8100 C.3    92  ILE92       0.0022
     23  CG2      -23.8940   33.7520  -54.3740 C.3    92  ILE92       0.0023
     24  CD1      -25.0880   32.9520  -57.9780 C.3    92  ILE92       0.0001
     25  N        -22.4450   30.8220  -53.7700 N.am   93  GLY93      -0.1955
     26  CA       -21.4290   30.7340  -52.7340 C.3    93  GLY93       0.1869
     27  C        -20.0420   31.2380  -53.0930 C.2    93  GLY93       0.2309
     28  O        -19.7220   32.4050  -52.8710 O.2    93  GLY93      -0.2863
     29  N        -17.6570   26.9210  -45.2390 N.3   129  TRP129     -0.1241
     30  CA       -17.8350   26.3860  -46.5930 C.3   129  TRP129      0.1605
     31  C        -17.4660   24.9110  -46.8120 C.2   129  TRP129      0.2264
     32  O        -17.7600   24.3540  -47.8700 O.2   129  TRP129     -0.2867
     33  CB       -17.0880   27.2540  -47.6110 C.3   129  TRP129      0.0550
     34  CG       -17.5420   28.6730  -47.6360 C.ar  129  TRP129      0.0003
     35  CD1      -16.9240   29.7350  -47.0580 C.ar  129  TRP129      0.0946
     36  CD2      -18.7180   29.1870  -48.2710 C.ar  129  TRP129      0.0152
     37  NE1      -17.6370   30.8830  -47.2950 N.ar  129  TRP129     -0.2442
     38  CE2      -18.7450   30.5720  -48.0370 C.ar  129  TRP129      0.0810
     39  CE3      -19.7500   28.6090  -49.0140 C.ar  129  TRP129      0.0012
     40  CZ2      -19.7640   31.3900  -48.5190 C.ar  129  TRP129      0.0191
     41  CZ3      -20.7590   29.4210  -49.4940 C.ar  129  TRP129      0.0001
     42  CH2      -20.7600   30.7950  -49.2440 C.ar  129  TRP129      0.0015
     43  N        -26.2260   18.7840  -46.1050 N.3   137  TYR137     -0.1241
     44  CA       -26.6660   18.2510  -47.3890 C.3   137  TYR137      0.1605
     45  C        -26.6830   16.7240  -47.3760 C.2   137  TYR137      0.2264
     46  O        -27.5450   16.0960  -47.9910 O.2   137  TYR137     -0.2867
     47  CB       -25.7660   18.7570  -48.5180 C.3   137  TYR137      0.0534
     48  CG       -26.0970   20.1530  -48.9870 C.ar  137  TYR137     -0.0201
     49  CD1      -27.3130   20.7420  -48.6660 C.ar  137  TYR137     -0.0009
     50  CD2      -25.2030   20.8760  -49.7620 C.ar  137  TYR137     -0.0009
     51  CE1      -27.6250   22.0180  -49.0990 C.ar  137  TYR137      0.0417
     52  CE2      -25.5070   22.1500  -50.2000 C.ar  137  TYR137      0.0417
     53  CZ       -26.7190   22.7160  -49.8650 C.ar  137  TYR137      0.1957
     54  OH       -27.0280   23.9850  -50.2970 O.3   137  TYR137     -0.2866
     55  N        -30.3150   33.4740  -52.8660 N.3   193  SER193     -0.1217
     56  CA       -29.1700   33.1130  -53.6850 C.3   193  SER193      0.1889
     57  C        -29.2180   33.8110  -55.0410 C.2   193  SER193      0.2288
     58  O        -28.1790   34.1740  -55.5950 O.2   193  SER193     -0.2866
     59  CB       -29.1090   31.5990  -53.8700 C.3   193  SER193      0.2089
     60  OG       -27.9650   31.2290  -54.6160 O.3   193  SER193     -0.2183
     61  N        -29.0380   29.5560  -44.2420 N.3   313  TRP313     -0.1227
     62  CA       -29.1340   29.5680  -45.6960 C.3   313  TRP313      0.1737
     63  C        -29.0300   28.1560  -46.2650 C.2   313  TRP313      0.2595
     64  O        -29.8810   27.7290  -47.0440 O.2   313  TRP313     -0.2718
     65  CB       -28.0420   30.4600  -46.2850 C.3   313  TRP313      0.0564
     66  CG       -28.1820   30.6900  -47.7500 C.ar  313  TRP313      0.0003
     67  CD1      -29.2130   30.2910  -48.5470 C.ar  313  TRP313      0.0946
     68  CD2      -27.2600   31.3820  -48.6010 C.ar  313  TRP313      0.0152
     69  NE1      -28.9900   30.6880  -49.8440 N.ar  313  TRP313     -0.2442
     70  CE2      -27.7980   31.3610  -49.9030 C.ar  313  TRP313      0.0810
     71  CE3      -26.0300   32.0150  -48.3900 C.ar  313  TRP313      0.0012
     72  CZ2      -27.1520   31.9490  -50.9870 C.ar  313  TRP313      0.0191
     73  CZ3      -25.3900   32.5960  -49.4670 C.ar  313  TRP313      0.0001
     74  CH2      -25.9520   32.5600  -50.7500 C.ar  313  TRP313      0.0015
     75  N        -27.9840   27.4350  -45.8690 N.am  314  TRP314     -0.1976
     76  CA       -27.7790   26.0520  -46.3040 C.3   314  TRP314      0.1640
     77  C        -28.9610   25.1570  -45.9290 C.2   314  TRP314      0.2290
     78  O        -29.2290   24.1560  -46.5930 O.2   314  TRP314     -0.2864
     79  CB       -26.4820   25.4860  -45.7120 C.3   314  TRP314      0.0576
     80  CG       -25.2410   26.1010  -46.2770 C.ar  314  TRP314      0.0006
     81  CD1      -24.6950   27.3030  -45.9360 C.ar  314  TRP314      0.0946
     82  CD2      -24.3870   25.5450  -47.2830 C.ar  314  TRP314      0.0152
     83  NE1      -23.5550   27.5330  -46.6680 N.ar  314  TRP314     -0.2442
     84  CE2      -23.3450   26.4680  -47.5030 C.ar  314  TRP314      0.0810
     85  CE3      -24.4010   24.3560  -48.0190 C.ar  314  TRP314      0.0012
     86  CZ2      -22.3280   26.2390  -48.4270 C.ar  314  TRP314      0.0191
     87  CZ3      -23.3890   24.1310  -48.9360 C.ar  314  TRP314      0.0001
     88  CH2      -22.3680   25.0670  -49.1320 C.ar  314  TRP314      0.0015
     89  N        -31.6720   25.3090  -48.1440 N.3   317  TRP317     -0.1241
     90  CA       -31.1870   24.6690  -49.3560 C.3   317  TRP317      0.1605
     91  C        -31.1520   23.1500  -49.2270 C.2   317  TRP317      0.2264
     92  O        -31.1300   22.4370  -50.2280 O.2   317  TRP317     -0.2867
     93  CB       -29.8130   25.2220  -49.7380 C.3   317  TRP317      0.0550
     94  CG       -29.9010   26.3500  -50.7140 C.ar  317  TRP317      0.0003
     95  CD1      -30.6640   27.4720  -50.5980 C.ar  317  TRP317      0.0946
     96  CD2      -29.2020   26.4670  -51.9600 C.ar  317  TRP317      0.0152
     97  NE1      -30.4870   28.2800  -51.6940 N.ar  317  TRP317     -0.2442
     98  CE2      -29.5930   27.6860  -52.5450 C.ar  317  TRP317      0.0810
     99  CE3      -28.2810   25.6590  -52.6350 C.ar  317  TRP317      0.0012
    100  CZ2      -29.0980   28.1180  -53.7740 C.ar  317  TRP317      0.0191
    101  CZ3      -27.7920   26.0880  -53.8580 C.ar  317  TRP317      0.0001
    102  CH2      -28.2010   27.3070  -54.4140 C.ar  317  TRP317      0.0015
@<TRIPOS>BOND
     1    24    22    1
     2    22    21    1
     3     8     7    2
     4    16    15    2
     5    15    14    1
     6    15    17   am
     7    14    13    1
     8    18    17    1
     9    18    21    1
    10    18    19    1
    11    58    57    2
    12     7    13   am
    13     7     6    1
    14    21    23    1
    15     1     2    1
    16    57    56    1
    17    10     9    1
    18    10    11    1
    19    20    19    2
    20     9     6    1
    21    19    25   am
    22    60    59    1
    23     5     6    1
    24     5     3   am
    25   102   101   ar
    26   102   100   ar
    27     2     3    1
    28    59    56    1
    29   101    99   ar
    30     3     4    2
    31   100    98   ar
    32    25    26    1
    33    56    55    1
    34    11    12    1
    35    27    28    2
    36    27    26    1
    37    99    96   ar
    38    98    96   ar
    39    98    97   ar
    40    96    94   ar
    41    97    95   ar
    42    72    74   ar
    43    72    70   ar
    44    74    73   ar
    45    94    95   ar
    46    94    93    1
    47    54    53    1
    48    92    91    2
    49    52    53   ar
    50    52    50   ar
    51    70    69   ar
    52    70    68   ar
    53    53    51   ar
    54    69    67   ar
    55    50    48   ar
    56    93    90    1
    57    41    42   ar
    58    41    39   ar
    59    73    71   ar
    60    90    91    1
    61    90    89    1
    62    42    40   ar
    63    88    87   ar
    64    88    86   ar
    65    51    49   ar
    66    39    36   ar
    67    48    49   ar
    68    48    47    1
    69    87    85   ar
    70    68    71   ar
    71    68    66   ar
    72    67    66   ar
    73    40    38   ar
    74    47    44    1
    75    86    84   ar
    76    36    38   ar
    77    36    34   ar
    78    38    37   ar
    79    85    82   ar
    80    46    45    2
    81    32    31    2
    82    66    65    1
    83    34    33    1
    84    34    35   ar
    85    33    30    1
    86    84    82   ar
    87    84    83   ar
    88    44    45    1
    89    44    43    1
    90    37    35   ar
    91    82    80   ar
    92    64    63    2
    93    31    30    1
    94    83    81   ar
    95    30    29    1
    96    78    77    2
    97    76    77    1
    98    76    75    1
    99    76    79    1
   100    65    62    1
   101    80    81   ar
   102    80    79    1
   103    63    75   am
   104    63    62    1
   105    62    61    1
