@<TRIPOS>MOLECULE
tmp/4aipA01.pdb
 123 118 0 0 0
SMALL
GASTEIGER

@<TRIPOS>ATOM
      1  N        -11.3740   17.6910  -11.6840 N.3   197  THR197     -0.1218
      2  CA       -10.3090   17.7470  -10.6940 C.3   197  THR197      0.1862
      3  C        -10.0290   16.3810  -10.0710 C.2   197  THR197      0.2287
      4  O        -10.9360   15.6100   -9.7210 O.2   197  THR197     -0.2866
      5  CB       -10.5230   18.8410   -9.5720 C.3   197  THR197      0.1770
      6  OG1       -9.5120   18.6940   -8.5970 O.3   197  THR197     -0.2211
      7  CG2      -11.8440   18.7100   -8.8370 C.3   197  THR197      0.0375
      8  N         -7.8400   14.9120   -6.8890 N.3   199  PHE199     -0.1241
      9  CA        -7.2070   15.3510   -5.6610 C.3   199  PHE199      0.1605
     10  C         -7.1510   14.2350   -4.6130 C.2   199  PHE199      0.2264
     11  O         -7.7960   13.1990   -4.7470 O.2   199  PHE199     -0.2867
     12  CB        -7.9130   16.5970   -5.1090 C.3   199  PHE199      0.0534
     13  CG        -9.3500   16.3860   -4.7900 C.ar  199  PHE199     -0.0203
     14  CD1      -10.3210   16.4240   -5.7950 C.ar  199  PHE199     -0.0042
     15  CD2       -9.7470   16.1300   -3.4770 C.ar  199  PHE199     -0.0042
     16  CE1      -11.6570   16.2180   -5.5070 C.ar  199  PHE199     -0.0003
     17  CE2      -11.0790   15.9340   -3.1690 C.ar  199  PHE199     -0.0003
     18  CZ       -12.0500   15.9860   -4.1900 C.ar  199  PHE199     -0.0000
     19  N        -13.6760   14.6290   -9.3500 N.3   206  ILE206     -0.1245
     20  CA       -14.9450   15.2040   -9.7070 C.3   206  ILE206      0.1561
     21  C        -14.8290   15.6830  -11.1510 C.2   206  ILE206      0.2260
     22  O        -13.8620   16.3720  -11.5150 O.2   206  ILE206     -0.2867
     23  CB       -15.3800   16.4070   -8.8070 C.3   206  ILE206      0.0252
     24  CG1      -15.7580   15.9410   -7.4090 C.3   206  ILE206      0.0019
     25  CG2      -16.6110   17.0420   -9.3530 C.3   206  ILE206      0.0019
     26  CD1      -15.0920   16.7250   -6.3400 C.3   206  ILE206      0.0001
     27  N        -17.1430   17.4810  -14.3120 N.3   208  LEU208     -0.1245
     28  CA       -18.3650   18.0630  -14.8670 C.3   208  LEU208      0.1561
     29  C        -18.2260   18.0920  -16.3700 C.2   208  LEU208      0.2260
     30  O        -17.1650   18.4420  -16.8930 O.2   208  LEU208     -0.2867
     31  CB       -18.5410   19.5010  -14.4020 C.3   208  LEU208      0.0270
     32  CG       -19.6000   19.7610  -13.3620 C.3   208  LEU208      0.0019
     33  CD1      -19.4730   21.1960  -13.0770 C.3   208  LEU208      0.0001
     34  CD2      -21.0120   19.3850  -13.8160 C.3   208  LEU208      0.0001
     35  N        -25.6890   16.8680  -19.4870 N.3   251  THR251     -0.1203
     36  CA       -24.8260   17.4970  -18.5180 C.3   251  THR251      0.1994
     37  C        -24.7300   16.5160  -17.3820 C.2   251  THR251      0.2618
     38  O        -25.7500   16.0470  -16.8850 O.2   251  THR251     -0.2717
     39  CB       -25.3940   18.8230  -17.9880 C.3   251  THR251      0.1784
     40  OG1      -25.9000   19.5510  -19.0950 O.3   251  THR251     -0.2211
     41  CG2      -24.3400   19.5870  -17.2570 C.3   251  THR251      0.0376
     42  N        -23.4990   16.2210  -16.9830 N.am  252  ASN252     -0.1960
     43  CA       -23.2160   15.1170  -16.0610 C.3   252  ASN252      0.1819
     44  C        -22.2200   15.5420  -15.0110 C.2   252  ASN252      0.2621
     45  O        -21.1940   16.1840  -15.3010 O.2   252  ASN252     -0.2715
     46  CB       -22.6480   13.9540  -16.8370 C.3   252  ASN252      0.1195
     47  CG       -22.4590   12.6960  -15.9860 C.2   252  ASN252      0.2630
     48  OD1      -23.4300   12.0310  -15.6610 O.2   252  ASN252     -0.2716
     49  ND2      -21.2190   12.3470  -15.6540 N.am  252  ASN252     -0.0877
     50  N        -22.5380   15.2200  -13.7740 N.am  253  LEU253     -0.1977
     51  CA       -21.6370   15.4730  -12.6520 C.3   253  LEU253      0.1596
     52  C        -21.2360   14.1040  -12.1240 C.2   253  LEU253      0.2287
     53  O        -22.0820   13.3100  -11.7080 O.2   253  LEU253     -0.2864
     54  CB       -22.3210   16.2360  -11.5120 C.3   253  LEU253      0.0297
     55  CG       -21.3600   16.3510  -10.3000 C.3   253  LEU253      0.0022
     56  CD1      -20.0960   17.2410  -10.5310 C.3   253  LEU253      0.0001
     57  CD2      -22.1660   16.9210   -9.1650 C.3   253  LEU253      0.0001
     58  N        -24.7840   12.1760  -11.3870 N.3   270  ALA270     -0.1231
     59  CA       -26.0620   12.8500  -11.3610 C.3   270  ALA270      0.1694
     60  C        -26.0660   13.5700  -12.6870 C.2   270  ALA270      0.2592
     61  O        -25.0440   14.1600  -13.0460 O.2   270  ALA270     -0.2718
     62  CB       -26.1140   13.8370  -10.2230 C.3   270  ALA270      0.0304
     63  N        -27.1640   13.4990  -13.4340 N.am  271  TYR271     -0.1962
     64  CA       -27.1280   13.9110  -14.7990 C.3   271  TYR271      0.1771
     65  C        -28.4810   14.3740  -15.2480 C.2   271  TYR271      0.2619
     66  O        -29.5040   14.0570  -14.6350 O.2   271  TYR271     -0.2715
     67  CB       -26.7090   12.7580  -15.7040 C.3   271  TYR271      0.0574
     68  CG       -27.6990   11.6540  -15.7790 C.ar  271  TYR271     -0.0198
     69  CD1      -28.8000   11.7120  -16.6440 C.ar  271  TYR271     -0.0009
     70  CD2      -27.5540   10.5350  -14.9840 C.ar  271  TYR271     -0.0009
     71  CE1      -29.7090   10.6660  -16.7070 C.ar  271  TYR271      0.0417
     72  CE2      -28.4300    9.5230  -15.0500 C.ar  271  TYR271      0.0417
     73  CZ       -29.4900    9.5800  -15.9210 C.ar  271  TYR271      0.1957
     74  OH       -30.3390    8.5170  -15.9310 O.3   271  TYR271     -0.2866
     75  N        -28.4880   15.0810  -16.3840 N.am  272  VAL272     -0.1977
     76  CA       -29.7440   15.4970  -17.0070 C.3   272  VAL272      0.1596
     77  C        -29.5470   15.2100  -18.4600 C.2   272  VAL272      0.2287
     78  O        -28.5960   15.6490  -19.0620 O.2   272  VAL272     -0.2864
     79  CB       -30.1220   16.9840  -16.7360 C.3   272  VAL272      0.0276
     80  CG1      -28.9380   17.8580  -16.9730 C.3   272  VAL272      0.0022
     81  CG2      -31.3080   17.3880  -17.6250 C.3   272  VAL272      0.0022
     82  N        -33.7960   13.1690  -15.7460 N.3   302  ARG302     -0.1231
     83  CA       -32.9130   13.4870  -14.6250 C.3   302  ARG302      0.1694
     84  C        -32.6040   12.2090  -13.8630 C.2   302  ARG302      0.2593
     85  O        -33.5220   11.4860  -13.4360 O.2   302  ARG302     -0.2718
     86  CB       -33.5850   14.4300  -13.6670 C.3   302  ARG302      0.0321
     87  CG       -33.8500   15.7700  -14.2360 C.3   302  ARG302      0.0489
     88  CD       -34.5750   16.6730  -13.2080 C.3   302  ARG302      0.2205
     89  NE       -35.1120   17.8130  -13.8900 N.pl3 302  ARG302     -0.0865
     90  CZ       -34.3810   18.6680  -14.6110 C.cat 302  ARG302      0.5346
     91  NH1      -33.1000   18.5110  -14.6530 N.pl3 302  ARG302      0.1354
     92  NH2      -34.8800   19.6970  -15.2980 N.pl3 302  ARG302      0.1354
     93  N        -31.3350   11.9360  -13.6670 N.am  303  GLY303     -0.1942
     94  CA       -31.0320   10.7250  -12.9480 C.3   303  GLY303      0.2014
     95  C        -29.9060   10.9020  -11.9790 C.2   303  GLY303      0.2638
     96  O        -29.1060   11.8720  -12.0460 O.2   303  GLY303     -0.2714
     97  N        -29.7950    9.9330  -11.0930 N.am  304  ALA304     -0.1977
     98  CA       -28.6030    9.8870  -10.2610 C.3   304  ALA304      0.1597
     99  C        -28.3690    8.4650   -9.9280 C.2   304  ALA304      0.2287
    100  O        -29.3490    7.7620   -9.7420 O.2   304  ALA304     -0.2864
    101  CB       -28.8170   10.6820   -8.9600 C.3   304  ALA304      0.0319
    102  N        -31.6670    6.2310   -9.3860 N.3   324  TYR324     -0.1241
    103  CA       -32.8260    7.0910   -9.4980 C.3   324  TYR324      0.1605
    104  C        -32.8870    7.6780  -10.8960 C.2   324  TYR324      0.2264
    105  O        -31.9030    8.2720  -11.3890 O.2   324  TYR324     -0.2867
    106  CB       -32.7780    8.2560   -8.4410 C.3   324  TYR324      0.0534
    107  CG       -33.9130    9.2420   -8.6220 C.ar  324  TYR324     -0.0201
    108  CD1      -35.1420    9.0330   -8.0020 C.ar  324  TYR324     -0.0009
    109  CD2      -33.7850   10.3370   -9.4710 C.ar  324  TYR324     -0.0009
    110  CE1      -36.2180    9.9080   -8.1860 C.ar  324  TYR324      0.0417
    111  CE2      -34.8730   11.2280   -9.6580 C.ar  324  TYR324      0.0417
    112  CZ       -36.0610   10.9880   -8.9910 C.ar  324  TYR324      0.1957
    113  OH       -37.1330   11.7900   -9.1590 O.3   324  TYR324     -0.2866
    114  N        -35.8550   10.1050  -13.3480 N.3   326  HIS326     -0.1241
    115  CA       -37.1180   10.7410  -13.5950 C.3   326  HIS326      0.1621
    116  C        -37.1580   11.1730  -15.0540 C.2   326  HIS326      0.2264
    117  O        -36.2160   11.7960  -15.5740 O.2   326  HIS326     -0.2867
    118  CB       -37.2370   11.9930  -12.6940 C.3   326  HIS326      0.0745
    119  CG       -38.5310   12.7440  -12.8620 C.ar  326  HIS326      0.0817
    120  ND1      -38.6870   13.7550  -13.7960 N.ar  326  HIS326     -0.2268
    121  CD2      -39.7340   12.5930  -12.2550 C.ar  326  HIS326      0.1154
    122  CE1      -39.9210   14.2230  -13.7190 C.ar  326  HIS326      0.1986
    123  NE2      -40.5790   13.5140  -12.8150 N.ar  326  HIS326     -0.2212
@<TRIPOS>BOND
     1    35    36    1
     2    40    39    1
     3    78    77    2
     4    36    39    1
     5    36    37    1
     6    77    76    1
     7    39    41    1
     8    81    79    1
     9    37    42   am
    10    37    38    2
    11    76    79    1
    12    76    75    1
    13    42    43    1
    14    80    79    1
    15    30    29    2
    16    46    43    1
    17    46    47    1
    18    71    69   ar
    19    71    73   ar
    20    69    68   ar
    21    75    65   am
    22    29    28    1
    23    43    44    1
    24    47    48    2
    25    47    49   am
    26    74    73    1
    27    73    72   ar
    28    68    67    1
    29    68    70   ar
    30    82    83    1
    31    67    64    1
    32   117   116    2
    33    45    44    2
    34    92    90    1
    35    65    64    1
    36    65    66    2
    37   116   115    1
    38    72    70   ar
    39    44    50   am
    40    28    31    1
    41    28    27    1
    42    64    63    1
    43    91    90    1
    44    83    84    1
    45    83    86    1
    46    90    89    2
    47    31    32    1
    48    87    86    1
    49    87    88    1
    50    89    88    1
    51    84    93   am
    52    84    85    2
    53    34    32    1
    54   120   122   ar
    55   120   119   ar
    56    50    51    1
    57   122   123   ar
    58    93    94    1
    59   115   114    1
    60   115   118    1
    61    63    60   am
    62    32    33    1
    63    61    60    2
    64    94    95    1
    65   119   118    1
    66   119   121   ar
    67   123   121   ar
    68    60    59    1
    69    51    52    1
    70    51    54    1
    71    52    53    2
    72    96    95    2
    73    95    97   am
    74     1     2    1
    75    22    21    2
    76    54    55    1
    77   105   104    2
    78    58    59    1
    79    59    62    1
    80    21    20    1
    81    97    98    1
    82   104   103    1
    83     2     3    1
    84     2     5    1
    85    56    55    1
    86    55    57    1
    87    98    99    1
    88    98   101    1
    89     3     4    2
    90    99   100    2
    91    20    19    1
    92    20    23    1
    93   111   109   ar
    94   111   112   ar
    95     5     7    1
    96     5     6    1
    97   103   102    1
    98   103   106    1
    99   109   107   ar
   100    25    23    1
   101   113   112    1
   102   112   110   ar
   103    23    24    1
   104   107   106    1
   105   107   108   ar
   106   110   108   ar
   107    24    26    1
   108     8     9    1
   109    14    16   ar
   110    14    13   ar
   111     9    12    1
   112     9    10    1
   113    16    18   ar
   114    12    13    1
   115    13    15   ar
   116    11    10    2
   117    18    17   ar
   118    15    17   ar
