@<TRIPOS>MOLECULE
tmp/4aipB00.pdb
 138 135 0 0 0
SMALL
GASTEIGER

@<TRIPOS>ATOM
      1  N          0.6970   24.0510  -40.4170 N.3   148  GLY148     -0.1210
      2  CA         1.9840   23.5780  -39.9490 C.3   148  GLY148      0.1956
      3  C          2.5920   22.4380  -40.7180 C.2   148  GLY148      0.2612
      4  O          2.0990   22.0450  -41.7530 O.2   148  GLY148     -0.2717
      5  N          3.6700   21.9140  -40.1650 N.am  149  LYS149     -0.1965
      6  CA         4.5400   20.9370  -40.8040 C.3   149  LYS149      0.1728
      7  C          5.2600   20.0250  -39.7160 C.2   149  LYS149      0.2616
      8  O          5.8200   20.5010  -38.7200 O.2   149  LYS149     -0.2715
      9  CB         5.4370   21.6880  -41.8090 C.3   149  LYS149      0.0311
     10  CG         6.9000   21.4230  -41.8590 C.3   149  LYS149      0.0038
     11  CD         7.6280   22.3090  -42.9620 C.3   149  LYS149      0.0206
     12  CE         7.9880   23.7020  -42.3700 C.3   149  LYS149      0.1093
     13  NZ         8.9990   24.5510  -43.1910 N.3   149  LYS149     -0.1314
     14  N          5.1680   18.7110  -39.8700 N.am  150  GLU150     -0.1977
     15  CA         5.9230   17.7930  -39.0320 C.3   150  GLU150      0.1602
     16  C          6.4580   16.6000  -39.8250 C.2   150  GLU150      0.2287
     17  O          5.6880   15.8630  -40.4640 O.2   150  GLU150     -0.2864
     18  CB         5.0860   17.2800  -37.8490 C.3   150  GLU150      0.0415
     19  CG         5.9640   16.5090  -36.7970 C.3   150  GLU150      0.1163
     20  CD         5.2350   15.9780  -35.5110 C.2   150  GLU150      0.3649
     21  OE1        3.9840   15.9800  -35.3980 O.co2 150  GLU150     -0.2457
     22  OE2        5.9370   15.5290  -34.5860 O.co2 150  GLU150     -0.2457
     23  N          5.1250   15.8940  -43.4840 N.3   153  PHE153     -0.1227
     24  CA         3.7370   16.2410  -43.5420 C.3   153  PHE153      0.1736
     25  C          3.5010   17.6840  -43.2800 C.2   153  PHE153      0.2595
     26  O          4.2820   18.2970  -42.5720 O.2   153  PHE153     -0.2718
     27  CB         3.0840   15.5040  -42.4110 C.3   153  PHE153      0.0547
     28  CG         2.5850   14.3180  -42.7810 C.ar  153  PHE153     -0.0202
     29  CD1        3.3520   13.3030  -42.9790 C.ar  153  PHE153     -0.0042
     30  CD2        1.3370   14.2110  -43.0040 C.ar  153  PHE153     -0.0042
     31  CE1        2.8480   12.2330  -43.3760 C.ar  153  PHE153     -0.0003
     32  CE2        0.8640   13.1300  -43.3940 C.ar  153  PHE153     -0.0003
     33  CZ         1.5970   12.1460  -43.5770 C.ar  153  PHE153     -0.0000
     34  N          2.4000   18.2090  -43.8240 N.am  154  ASP154     -0.1960
     35  CA         1.9800   19.5850  -43.5590 C.3   154  ASP154      0.1840
     36  C          0.4640   19.6940  -43.6660 C.2   154  ASP154      0.2623
     37  O         -0.1620   18.8540  -44.2700 O.2   154  ASP154     -0.2715
     38  CB         2.6520   20.5270  -44.5600 C.3   154  ASP154      0.1450
     39  CG         2.4210   20.0840  -46.0050 C.2   154  ASP154      0.3671
     40  OD1        3.1780   19.2180  -46.5160 O.co2 154  ASP154     -0.2456
     41  OD2        1.4550   20.5710  -46.5990 O.co2 154  ASP154     -0.2456
     42  N         -0.1330   20.7340  -43.0920 N.am  155  GLY155     -0.1940
     43  CA        -1.6120   20.8930  -43.2440 C.3   155  GLY155      0.2014
     44  C         -2.0750   22.2940  -42.9000 C.2   155  GLY155      0.2639
     45  O         -1.3190   23.0300  -42.2680 O.2   155  GLY155     -0.2714
     46  N         -3.2840   22.6630  -43.3160 N.am  156  LEU156     -0.1963
     47  CA        -3.8590   23.8780  -42.8770 C.3   156  LEU156      0.1728
     48  C         -5.3460   23.7520  -42.8050 C.2   156  LEU156      0.2616
     49  O         -5.9250   22.8940  -43.5090 O.2   156  LEU156     -0.2715
     50  CB        -3.5020   24.9960  -43.8230 C.3   156  LEU156      0.0311
     51  CG        -4.2560   25.0150  -45.1470 C.3   156  LEU156      0.0022
     52  CD1       -5.4730   25.9100  -45.0840 C.3   156  LEU156      0.0001
     53  CD2       -3.3210   25.5540  -46.1990 C.3   156  LEU156      0.0001
     54  N         -5.9380   24.6130  -41.9590 N.am  157  PHE157     -0.1974
     55  CA        -7.3450   24.8810  -41.9420 C.3   157  PHE157      0.1639
     56  C         -7.5600   26.3890  -41.9380 C.2   157  PHE157      0.2290
     57  O         -7.0150   27.0570  -41.0640 O.2   157  PHE157     -0.2864
     58  CB        -8.0210   24.2840  -40.7090 C.3   157  PHE157      0.0560
     59  CG        -9.5530   24.3600  -40.7570 C.ar  157  PHE157     -0.0200
     60  CD1      -10.2770   23.4470  -41.5100 C.ar  157  PHE157     -0.0042
     61  CD2      -10.2570   25.3600  -40.0600 C.ar  157  PHE157     -0.0042
     62  CE1      -11.6880   23.5110  -41.6010 C.ar  157  PHE157     -0.0003
     63  CE2      -11.6740   25.4140  -40.1230 C.ar  157  PHE157     -0.0003
     64  CZ       -12.3740   24.4920  -40.8940 C.ar  157  PHE157     -0.0000
     65  N        -14.2050   27.6910  -46.4040 N.3   192  TYR192     -0.1241
     66  CA       -13.1550   26.9620  -45.6910 C.3   192  TYR192      0.1605
     67  C        -12.2550   26.2070  -46.5650 C.2   192  TYR192      0.2264
     68  O        -12.6290   25.7260  -47.6230 O.2   192  TYR192     -0.2867
     69  CB       -13.6200   25.8690  -44.8140 C.3   192  TYR192      0.0534
     70  CG       -14.9300   25.9290  -44.3670 C.ar  192  TYR192     -0.0201
     71  CD1      -15.8830   25.6260  -45.1940 C.ar  192  TYR192     -0.0009
     72  CD2      -15.2040   26.1570  -43.0600 C.ar  192  TYR192     -0.0009
     73  CE1      -17.0710   25.6220  -44.8050 C.ar  192  TYR192      0.0417
     74  CE2      -16.4320   26.1640  -42.6300 C.ar  192  TYR192      0.0417
     75  CZ       -17.3510   25.8870  -43.5080 C.ar  192  TYR192      0.1957
     76  OH       -18.5920   25.8440  -43.0280 O.3   192  TYR192     -0.2866
     77  N         -9.4400   22.9880  -46.1670 N.3   194  ALA194     -0.1231
     78  CA        -8.7340   21.9660  -45.3570 C.3   194  ALA194      0.1694
     79  C         -7.7440   21.2790  -46.2180 C.2   194  ALA194      0.2592
     80  O         -8.1000   20.5880  -47.1870 O.2   194  ALA194     -0.2718
     81  CB        -9.7080   20.9590  -44.7650 C.3   194  ALA194      0.0304
     82  N         -6.4780   21.4000  -45.8790 N.am  195  LYS195     -0.1966
     83  CA        -5.4970   20.6930  -46.6630 C.3   195  LYS195      0.1728
     84  C         -4.5370   19.8570  -45.8890 C.2   195  LYS195      0.2616
     85  O         -3.9920   20.2920  -44.9070 O.2   195  LYS195     -0.2715
     86  CB        -4.6200   21.6550  -47.3580 C.3   195  LYS195      0.0311
     87  CG        -5.2120   22.2700  -48.5160 C.3   195  LYS195      0.0038
     88  CD        -4.0420   22.5910  -49.4830 C.3   195  LYS195      0.0206
     89  CE        -4.7160   23.4570  -50.4290 C.3   195  LYS195      0.1093
     90  NZ        -4.2410   24.0750  -51.5430 N.3   195  LYS195     -0.1314
     91  N         -4.1960   18.6920  -46.4200 N.am  196  ILE196     -0.1977
     92  CA        -3.0850   17.9630  -45.8420 C.3   196  ILE196      0.1596
     93  C         -2.2180   17.5340  -46.9910 C.2   196  ILE196      0.2287
     94  O         -2.7170   17.2630  -48.1060 O.2   196  ILE196     -0.2864
     95  CB        -3.5770   16.7480  -44.9480 C.3   196  ILE196      0.0276
     96  CG1       -2.4040   16.1410  -44.2100 C.3   196  ILE196      0.0022
     97  CG2       -4.3900   15.7170  -45.7700 C.3   196  ILE196      0.0022
     98  CD1       -2.6320   14.7480  -43.6900 C.3   196  ILE196      0.0001
     99  N         -4.0120   16.5530  -50.2470 N.3   209  LEU209     -0.1231
    100  CA        -5.4480   16.3210  -50.2400 C.3   209  LEU209      0.1693
    101  C         -6.1280   17.5400  -49.6380 C.2   209  LEU209      0.2593
    102  O         -5.7120   18.0190  -48.5310 O.2   209  LEU209     -0.2718
    103  CB        -5.7580   15.1110  -49.3850 C.3   209  LEU209      0.0284
    104  CG        -6.6290   14.0160  -49.9430 C.3   209  LEU209      0.0019
    105  CD1       -7.0490   13.1910  -48.7250 C.3   209  LEU209      0.0001
    106  CD2       -7.8610   14.4550  -50.6770 C.3   209  LEU209      0.0001
    107  N         -7.2170   17.9420  -50.2920 N.am  210  SER210     -0.1938
    108  CA        -7.7310   19.2690  -50.1500 C.3   210  SER210      0.2055
    109  C         -9.2630   19.2260  -50.1130 C.2   210  SER210      0.2643
    110  O         -9.8470   18.4940  -50.9290 O.2   210  SER210     -0.2714
    111  CB        -7.2270   19.9980  -51.3790 C.3   210  SER210      0.2130
    112  OG        -7.8720   21.2200  -51.5920 O.3   210  SER210     -0.2179
    113  N         -9.9270   19.9370  -49.1900 N.am  211  HIS211     -0.1973
    114  CA       -11.3630   20.1370  -49.3580 C.3   211  HIS211      0.1656
    115  C        -11.6590   21.6050  -49.2270 C.2   211  HIS211      0.2291
    116  O        -11.1970   22.2190  -48.2520 O.2   211  HIS211     -0.2864
    117  CB       -12.2360   19.3330  -48.3850 C.3   211  HIS211      0.0771
    118  CG       -13.7000   19.6070  -48.5510 C.ar  211  HIS211      0.0820
    119  ND1      -14.4730   18.9330  -49.4610 N.ar  211  HIS211     -0.2267
    120  CD2      -14.5230   20.5030  -47.9580 C.ar  211  HIS211      0.1154
    121  CE1      -15.7130   19.3770  -49.4130 C.ar  211  HIS211      0.1986
    122  NE2      -15.7650   20.3530  -48.5280 N.ar  211  HIS211     -0.2212
    123  N        -14.7430   24.7270  -49.4030 N.3   213  LYS213     -0.1245
    124  CA       -16.1340   25.0710  -49.5050 C.3   213  LYS213      0.1561
    125  C        -16.2440   26.5840  -49.5440 C.2   213  LYS213      0.2260
    126  O        -15.5500   27.2540  -48.7970 O.2   213  LYS213     -0.2867
    127  CB       -16.9470   24.4840  -48.3460 C.3   213  LYS213      0.0271
    128  CG       -18.3690   24.8050  -48.5130 C.3   213  LYS213      0.0035
    129  CD       -19.2170   24.6960  -47.2850 C.3   213  LYS213      0.0206
    130  CE       -19.6320   23.3230  -47.0040 C.3   213  LYS213      0.1093
    131  NZ       -21.0520   23.3830  -46.6320 N.3   213  LYS213     -0.1314
    132  N        -13.4870   18.6050  -53.3000 N.3   252  THR252     -0.1218
    133  CA       -12.4290   17.7610  -52.7390 C.3   252  THR252      0.1862
    134  C        -11.4950   17.3420  -53.8700 C.2   252  THR252      0.2287
    135  O        -11.9590   16.8750  -54.9100 O.2   252  THR252     -0.2866
    136  CB       -12.9680   16.4760  -52.0660 C.3   252  THR252      0.1770
    137  OG1      -14.0890   16.7690  -51.2300 O.3   252  THR252     -0.2211
    138  CG2      -11.9330   15.8800  -51.2230 C.3   252  THR252      0.0375
@<TRIPOS>BOND
     1   135   134    2
     2   134   133    1
     3   132   133    1
     4   133   136    1
     5   136   137    1
     6   136   138    1
     7   112   111    1
     8    90    89    1
     9   111   108    1
    10   110   109    2
    11   106   104    1
    12    89    88    1
    13   107   108    1
    14   107   101   am
    15    99   100    1
    16   100   101    1
    17   100   103    1
    18   108   109    1
    19   109   113   am
    20   104   103    1
    21   104   105    1
    22   101   102    2
    23   125   124    1
    24   125   126    2
    25   124   123    1
    26   124   127    1
    27    88    87    1
    28   119   121   ar
    29   119   118   ar
    30   121   122   ar
    31   114   115    1
    32   114   113    1
    33   114   117    1
    34   115   116    2
    35   118   117    1
    36   118   120   ar
    37   122   120   ar
    38    87    86    1
    39   128   127    1
    40   128   129    1
    41    94    93    2
    42    68    67    2
    43    86    83    1
    44   129   130    1
    45    80    79    2
    46   130   131    1
    47    93    92    1
    48    83    84    1
    49    83    82    1
    50    41    39   ar
    51    67    66    1
    52    40    39   ar
    53    91    84   am
    54    91    92    1
    55    65    66    1
    56    79    82   am
    57    79    78    1
    58    53    51    1
    59    77    78    1
    60    39    38    1
    61    84    85    2
    62    92    95    1
    63    97    95    1
    64    66    69    1
    65    78    81    1
    66    71    73   ar
    67    71    70   ar
    68    51    52    1
    69    51    50    1
    70    95    96    1
    71    69    70    1
    72    73    75   ar
    73    38    35    1
    74    70    72   ar
    75    37    36    2
    76    96    98    1
    77    34    35    1
    78    34    25   am
    79    50    47    1
    80    36    35    1
    81    36    42   am
    82    33    32   ar
    83    33    31   ar
    84    24    23    1
    85    24    25    1
    86    24    27    1
    87    49    48    2
    88    75    76    1
    89    75    74   ar
    90    32    30   ar
    91    31    29   ar
    92    46    44   am
    93    46    47    1
    94    25    26    2
    95    43    42    1
    96    43    44    1
    97    13    12    1
    98    72    74   ar
    99    30    28   ar
   100    29    28   ar
   101    11    12    1
   102    11    10    1
   103    44    45    2
   104    47    48    1
   105    48    54   am
   106    28    27    1
   107    54    55    1
   108    55    56    1
   109    55    58    1
   110    56    57    2
   111    10     9    1
   112     9     6    1
   113     4     3    2
   114    62    60   ar
   115    62    64   ar
   116    60    59   ar
   117    64    63   ar
   118     6     5    1
   119     6     7    1
   120    59    58    1
   121    59    61   ar
   122     3     5   am
   123     3     2    1
   124    17    16    2
   125     1     2    1
   126    63    61   ar
   127    14     7   am
   128    14    15    1
   129    16    15    1
   130     7     8    2
   131    15    18    1
   132    18    19    1
   133    19    20    1
   134    20    21   ar
   135    20    22   ar
