@<TRIPOS>MOLECULE
tmp/4aipA02.pdb
 124 118 0 0 0
SMALL
GASTEIGER

@<TRIPOS>ATOM
      1  N         -6.5260   17.5930  -34.2020 N.3   129  LEU129     -0.1231
      2  CA        -7.3590   17.8640  -35.3770 C.3   129  LEU129      0.1693
      3  C         -7.6090   16.5930  -36.1500 C.2   129  LEU129      0.2592
      4  O         -6.7620   15.7120  -36.1980 O.2   129  LEU129     -0.2718
      5  CB        -6.7160   18.9030  -36.3160 C.3   129  LEU129      0.0284
      6  CG        -6.1000   20.1110  -35.6260 C.3   129  LEU129      0.0019
      7  CD1       -4.9740   20.7090  -36.4670 C.3   129  LEU129      0.0001
      8  CD2       -7.1190   21.1810  -35.3130 C.3   129  LEU129      0.0001
      9  N         -8.7650   16.5380  -36.7700 N.am  130  ASN130     -0.1960
     10  CA        -9.0960   15.4470  -37.6500 C.3   130  ASN130      0.1819
     11  C         -9.9190   15.9050  -38.8420 C.2   130  ASN130      0.2622
     12  O        -10.6320   16.8840  -38.7530 O.2   130  ASN130     -0.2715
     13  CB        -9.8110   14.3420  -36.8950 C.3   130  ASN130      0.1195
     14  CG       -11.2400   14.6840  -36.5820 C.2   130  ASN130      0.2630
     15  OD1      -12.1110   14.3100  -37.3110 O.2   130  ASN130     -0.2716
     16  ND2      -11.4800   15.4160  -35.5270 N.am  130  ASN130     -0.0877
     17  N         -9.7730   15.1950  -39.9510 N.am  131  SER131     -0.1936
     18  CA       -10.6310   15.3450  -41.0950 C.3   131  SER131      0.2055
     19  C        -10.9840   14.0420  -41.7910 C.2   131  SER131      0.2644
     20  O        -10.3040   13.0310  -41.6760 O.2   131  SER131     -0.2714
     21  CB       -10.0790   16.3400  -42.0840 C.3   131  SER131      0.2130
     22  OG        -8.9890   15.8470  -42.7360 O.3   131  SER131     -0.2179
     23  N        -12.0870   14.0820  -42.5040 N.am  132  GLY132     -0.1939
     24  CA       -12.5710   12.9200  -43.1690 C.3   132  GLY132      0.2014
     25  C        -13.1340   13.2650  -44.4930 C.2   132  GLY132      0.2638
     26  O        -13.8180   14.2350  -44.6710 O.2   132  GLY132     -0.2714
     27  N        -12.8520   12.3960  -45.4120 N.am  133  PHE133     -0.1973
     28  CA       -13.4340   12.4370  -46.6510 C.3   133  PHE133      0.1639
     29  C        -14.1410   11.0850  -47.0010 C.2   133  PHE133      0.2290
     30  O        -13.5590   10.0020  -46.8690 O.2   133  PHE133     -0.2864
     31  CB       -12.2930   12.7330  -47.5780 C.3   133  PHE133      0.0560
     32  CG       -12.6950   12.7870  -48.8500 C.ar  133  PHE133     -0.0200
     33  CD1      -13.3330   13.8230  -49.2530 C.ar  133  PHE133     -0.0042
     34  CD2      -12.5910   11.7330  -49.6130 C.ar  133  PHE133     -0.0042
     35  CE1      -13.7960   13.8490  -50.3940 C.ar  133  PHE133     -0.0003
     36  CE2      -13.0620   11.7570  -50.7510 C.ar  133  PHE133     -0.0003
     37  CZ       -13.6650   12.8150  -51.1870 C.ar  133  PHE133     -0.0000
     38  N        -18.2640   14.6930  -45.8880 N.3   139  VAL139     -0.1231
     39  CA       -17.0360   15.3240  -45.4480 C.3   139  VAL139      0.1692
     40  C        -17.1070   15.5730  -43.9130 C.2   139  VAL139      0.2593
     41  O        -18.1650   15.9220  -43.3660 O.2   139  VAL139     -0.2718
     42  CB       -16.7630   16.5950  -46.3630 C.3   139  VAL139      0.0266
     43  CG1      -17.2070   17.8910  -45.7350 C.3   139  VAL139      0.0020
     44  CG2      -15.3320   16.6670  -46.7450 C.3   139  VAL139      0.0020
     45  N        -16.0030   15.3700  -43.2160 N.am  140  SER140     -0.1938
     46  CA       -16.0490   15.5210  -41.7660 C.3   140  SER140      0.2055
     47  C        -14.8010   16.2260  -41.2420 C.2   140  SER140      0.2643
     48  O        -13.7730   16.1800  -41.8850 O.2   140  SER140     -0.2714
     49  CB       -16.3360   14.1360  -41.0840 C.3   140  SER140      0.2130
     50  OG       -15.1750   13.3020  -40.9990 O.3   140  SER140     -0.2179
     51  N        -14.8980   16.8880  -40.0960 N.am  141  TYR141     -0.1973
     52  CA       -13.7170   17.4720  -39.4180 C.3   141  TYR141      0.1639
     53  C        -14.0300   17.7850  -37.9850 C.2   141  TYR141      0.2290
     54  O        -15.1860   17.8620  -37.6110 O.2   141  TYR141     -0.2864
     55  CB       -13.2180   18.7660  -40.0950 C.3   141  TYR141      0.0560
     56  CG       -14.3050   19.8060  -40.1800 C.ar  141  TYR141     -0.0198
     57  CD1      -15.1980   19.7870  -41.2210 C.ar  141  TYR141     -0.0009
     58  CD2      -14.4960   20.7560  -39.1650 C.ar  141  TYR141     -0.0009
     59  CE1      -16.2510   20.7120  -41.2890 C.ar  141  TYR141      0.0417
     60  CE2      -15.5420   21.6520  -39.2150 C.ar  141  TYR141      0.0417
     61  CZ       -16.4070   21.6390  -40.3020 C.ar  141  TYR141      0.1957
     62  OH       -17.4650   22.5530  -40.3890 O.3   141  TYR141     -0.2866
     63  N        -17.7970   17.5170  -36.6540 N.3   160  ARG160     -0.1245
     64  CA       -18.8570   17.7050  -37.6210 C.3   160  ARG160      0.1563
     65  C        -18.7260   16.7510  -38.7700 C.2   160  ARG160      0.2260
     66  O        -17.6380   16.5200  -39.2570 O.2   160  ARG160     -0.2867
     67  CB       -18.8770   19.1690  -38.1220 C.3   160  ARG160      0.0307
     68  CG       -20.0510   19.3800  -38.9890 C.3   160  ARG160      0.0489
     69  CD       -20.0810   20.7140  -39.6490 C.3   160  ARG160      0.2205
     70  NE       -21.1320   20.7070  -40.6790 N.pl3 160  ARG160     -0.0865
     71  CZ       -21.4710   21.7490  -41.4330 C.cat 160  ARG160      0.5346
     72  NH1      -20.8770   22.9000  -41.2990 N.pl3 160  ARG160      0.1354
     73  NH2      -22.4050   21.6480  -42.3280 N.pl3 160  ARG160      0.1354
     74  N        -20.6920   16.0800  -42.3430 N.3   162  ASP162     -0.1239
     75  CA       -21.6950   16.5640  -43.2960 C.3   162  ASP162      0.1674
     76  C        -21.8730   15.5270  -44.3950 C.2   162  ASP162      0.2266
     77  O        -21.0140   15.3770  -45.2820 O.2   162  ASP162     -0.2867
     78  CB       -21.3060   17.9020  -43.8940 C.3   162  ASP162      0.1410
     79  CG       -22.5150   18.6660  -44.4710 C.2   162  ASP162      0.3668
     80  OD1      -23.6960   18.3590  -44.1350 O.co2 162  ASP162     -0.2456
     81  OD2      -22.3020   19.6140  -45.2380 O.co2 162  ASP162     -0.2456
     82  N          4.6110    8.8370  -38.3920 N.3   616  LEU616     -0.1245
     83  CA         5.5520    9.4020  -37.4500 C.3   616  LEU616      0.1561
     84  C          5.8490    8.3820  -36.3810 C.2   616  LEU616      0.2260
     85  O          6.7110    8.6250  -35.5060 O.2   616  LEU616     -0.2867
     86  CB         4.9560   10.6620  -36.7800 C.3   616  LEU616      0.0270
     87  CG         4.2910   11.8410  -37.4880 C.3   616  LEU616      0.0019
     88  CD1        4.0200   12.8120  -36.3600 C.3   616  LEU616      0.0001
     89  CD2        5.1080   12.5750  -38.6530 C.3   616  LEU616      0.0001
     90  N         -0.3130   10.7470  -35.1620 N.3   621  LEU621     -0.1245
     91  CA        -0.7230   11.0060  -36.5570 C.3   621  LEU621      0.1561
     92  C         -1.1740    9.7040  -37.1890 C.2   621  LEU621      0.2260
     93  O         -0.3750    8.7430  -37.2780 O.2   621  LEU621     -0.2867
     94  CB         0.3710   11.7060  -37.3800 C.3   621  LEU621      0.0270
     95  CG        -0.0020   11.9000  -38.8540 C.3   621  LEU621      0.0019
     96  CD1       -1.1870   12.8500  -39.1270 C.3   621  LEU621      0.0001
     97  CD2        1.1750   12.2860  -39.6910 C.3   621  LEU621      0.0001
     98  N        -10.9860    8.4310  -46.6700 N.3   655  LEU655     -0.1245
     99  CA        -9.7410    8.7760  -46.0500 C.3   655  LEU655      0.1561
    100  C         -9.9710    9.7330  -44.8690 C.2   655  LEU655      0.2260
    101  O        -10.5580   10.7920  -45.0820 O.2   655  LEU655     -0.2867
    102  CB        -8.8370    9.5090  -47.0460 C.3   655  LEU655      0.0270
    103  CG        -7.3950    9.5150  -46.5110 C.3   655  LEU655      0.0019
    104  CD1       -6.4650    8.7340  -47.4150 C.3   655  LEU655      0.0001
    105  CD2       -6.9960   10.8910  -46.3770 C.3   655  LEU655      0.0001
    106  N         -7.8870   11.4570  -41.1830 N.3   657  VAL657     -0.1245
    107  CA        -6.5700   11.8480  -40.5980 C.3   657  VAL657      0.1561
    108  C         -6.8260   12.4230  -39.2260 C.2   657  VAL657      0.2260
    109  O         -7.7700   13.1740  -39.1150 O.2   657  VAL657     -0.2867
    110  CB        -5.9630   12.9940  -41.3620 C.3   657  VAL657      0.0252
    111  CG1       -4.5610   13.3570  -40.7890 C.3   657  VAL657      0.0019
    112  CG2       -5.9480   12.6820  -42.9110 C.3   657  VAL657      0.0019
    113  N         -4.5540   14.2100  -35.9830 N.3   659  TYR659     -0.1241
    114  CA        -3.2000   14.5930  -35.6340 C.3   659  TYR659      0.1605
    115  C         -3.2230   15.2950  -34.3020 C.2   659  TYR659      0.2264
    116  O         -4.1170   16.1010  -34.0560 O.2   659  TYR659     -0.2867
    117  CB        -2.6990   15.4830  -36.7360 C.3   659  TYR659      0.0534
    118  CG        -1.4400   16.1950  -36.4710 C.ar  659  TYR659     -0.0201
    119  CD1       -0.2610   15.5160  -36.1910 C.ar  659  TYR659     -0.0009
    120  CD2       -1.3880   17.5620  -36.5890 C.ar  659  TYR659     -0.0009
    121  CE1        0.9300   16.2060  -36.0190 C.ar  659  TYR659      0.0417
    122  CE2       -0.2070   18.2630  -36.3810 C.ar  659  TYR659      0.0417
    123  CZ         0.9290   17.6010  -36.0830 C.ar  659  TYR659      0.1957
    124  OH         2.0580   18.3770  -35.8680 O.3   659  TYR659     -0.2866
@<TRIPOS>BOND
     1    37    36   ar
     2    37    35   ar
     3    36    34   ar
     4    35    33   ar
     5    34    32   ar
     6    33    32   ar
     7    32    31    1
     8    31    28    1
     9   104   103    1
    10   102   103    1
    11   102    99    1
    12    29    30    2
    13    29    28    1
    14    44    42    1
    15    98    99    1
    16    28    27    1
    17   103   105    1
    18    42    43    1
    19    42    39    1
    20    99   100    1
    21    38    39    1
    22    39    40    1
    23    27    25   am
    24    77    76    2
    25    81    79   ar
    26   101   100    2
    27    26    25    2
    28    25    24    1
    29    79    80   ar
    30    79    78    1
    31    76    75    1
    32    40    41    2
    33    40    45   am
    34    78    75    1
    35    75    74    1
    36    45    46    1
    37    24    23    1
    38   112   110    1
    39    22    21    1
    40    23    19   am
    41    73    71    1
    42    21    18    1
    43    48    47    2
    44    19    20    2
    45    19    18    1
    46    46    47    1
    47    46    49    1
    48    71    72    1
    49    71    70    2
    50   110   111    1
    51   110   107    1
    52    59    57   ar
    53    59    61   ar
    54    47    51   am
    55    57    56   ar
    56   106   107    1
    57    18    17    1
    58    49    50    1
    59    70    69    1
    60   107   108    1
    61    62    61    1
    62    61    60   ar
    63    56    55    1
    64    56    58   ar
    65    51    52    1
    66    55    52    1
    67    17    11   am
    68    97    95    1
    69    69    68    1
    70    52    53    1
    71    66    65    2
    72   108   109    2
    73    60    58   ar
    74    96    95    1
    75    68    67    1
    76    95    94    1
    77    11    12    2
    78    11    10    1
    79    65    64    1
    80    89    87    1
    81    82    83    1
    82    67    64    1
    83    53    54    2
    84    10    13    1
    85    10     9    1
    86    64    63    1
    87    87    86    1
    88    87    88    1
    89    83    86    1
    90    83    84    1
    91    94    91    1
    92    15    14    2
    93    93    92    2
    94    92    91    1
    95    13    14    1
    96     9     3   am
    97   117   118    1
    98   117   114    1
    99   120   118   ar
   100   120   122   ar
   101    14    16   am
   102    91    90    1
   103   118   119   ar
   104     7     6    1
   105    84    85    2
   106   122   123   ar
   107     5     6    1
   108     5     2    1
   109     4     3    2
   110   119   121   ar
   111     3     2    1
   112   123   121   ar
   113   123   124    1
   114   113   114    1
   115   114   115    1
   116     6     8    1
   117     2     1    1
   118   115   116    2
