@<TRIPOS>MOLECULE
tmp/4airB01.pdb
 79 74 0 0 0
SMALL
GASTEIGER

@<TRIPOS>ATOM
      1  N          4.1090   11.3750   25.0060 N.3    48  LYS48      -0.1245
      2  CA         3.8070   11.0140   26.3810 C.3    48  LYS48       0.1561
      3  C          4.7970    9.9880   26.9390 C.2    48  LYS48       0.2260
      4  O          4.8390    9.7940   28.1790 O.2    48  LYS48      -0.2867
      5  CB         2.3580   10.5420   26.5480 C.3    48  LYS48       0.0271
      6  CG         1.3040   11.6090   26.2290 C.3    48  LYS48       0.0035
      7  CD         1.4290   12.9390   27.0380 C.3    48  LYS48       0.0206
      8  CE         0.2000   13.8730   26.8260 C.3    48  LYS48       0.1093
      9  NZ         0.2490   14.3770   25.4560 N.3    48  LYS48      -0.1314
     10  N         -7.0410    6.6070   32.6540 N.3    76  SER76      -0.1202
     11  CA        -6.9340    7.1940   31.3330 C.3    76  SER76       0.2020
     12  C         -6.4520    6.1090   30.3700 C.2    76  SER76       0.2619
     13  O         -5.5560    5.3320   30.7380 O.2    76  SER76      -0.2717
     14  CB        -5.8860    8.3060   31.3770 C.3    76  SER76       0.2103
     15  OG        -5.8130    8.9980   30.1650 O.3    76  SER76      -0.2182
     16  N         -6.9560    6.1140   29.1320 N.am   77  SER77      -0.1937
     17  CA        -6.6340    5.0740   28.1620 C.3    77  SER77       0.2055
     18  C         -5.9560    5.6220   26.8970 C.2    77  SER77       0.2644
     19  O         -5.8620    4.9130   25.9150 O.2    77  SER77      -0.2714
     20  CB        -7.8970    4.2870   27.7880 C.3    77  SER77       0.2130
     21  OG        -8.8910    5.1200   27.2260 O.3    77  SER77      -0.2179
     22  N         -5.5110    6.8800   26.9500 N.am   78  GLY78      -0.1939
     23  CA        -4.8410    7.5310   25.8300 C.3    78  GLY78       0.2014
     24  C         -3.3310    7.3190   25.9690 C.2    78  GLY78       0.2639
     25  O         -2.8940    6.3950   26.6380 O.2    78  GLY78      -0.2714
     26  N         -2.5340    8.1570   25.3410 N.am   79  ASN79      -0.1958
     27  CA        -1.0940    7.8750   25.2500 C.3    79  ASN79       0.1819
     28  C         -0.3620    7.8870   26.5930 C.2    79  ASN79       0.2621
     29  O          0.6880    7.2240   26.7360 O.2    79  ASN79      -0.2715
     30  CB        -0.3820    8.8130   24.2760 C.3    79  ASN79       0.1195
     31  CG        -0.8570    8.6280   22.8410 C.2    79  ASN79       0.2630
     32  OD1       -1.2090    7.5200   22.4600 O.2    79  ASN79      -0.2716
     33  ND2       -0.9260    9.7060   22.0760 N.am   79  ASN79      -0.0877
     34  N         -0.8650    8.6450   27.5670 N.am   80  THR80      -0.1951
     35  CA        -0.1980    8.6480   28.8940 C.3    80  THR80       0.1897
     36  C         -0.3800    7.2810   29.5440 C.2    80  THR80       0.2313
     37  O          0.5760    6.7200   30.0990 O.2    80  THR80      -0.2863
     38  CB        -0.6850    9.7570   29.8450 C.3    80  THR80       0.1794
     39  OG1       -0.5540   11.0250   29.2090 O.3    80  THR80      -0.2208
     40  CG2        0.1390    9.7390   31.1590 C.3    80  THR80       0.0378
     41  N        -14.9150    3.3570   25.4200 N.3   103  MET103     -0.1245
     42  CA       -13.6360    3.6180   24.7080 C.3   103  MET103      0.1570
     43  C        -13.3320    2.4600   23.7680 C.2   103  MET103      0.2261
     44  O        -13.7270    1.3320   23.9870 O.2   103  MET103     -0.2867
     45  CB       -12.4710    3.8230   25.6730 C.3   103  MET103      0.0387
     46  CG       -12.6200    5.0090   26.6540 C.3   103  MET103      0.0595
     47  SD       -12.9690    6.5980   25.8640 S.3   103  MET103     -0.1393
     48  CE       -11.3660    6.9530   25.2730 C.3   103  MET103      0.0692
     49  N         -7.9890    0.6580   21.8840 N.3   107  ARG107     -0.1245
     50  CA        -7.3260    1.2260   23.0510 C.3   107  ARG107      0.1563
     51  C         -7.1610    0.1260   24.1300 C.2   107  ARG107      0.2260
     52  O         -6.0710   -0.0360   24.7290 O.2   107  ARG107     -0.2867
     53  CB        -8.0840    2.4340   23.6180 C.3   107  ARG107      0.0307
     54  CG        -7.8460    3.7890   22.8980 C.3   107  ARG107      0.0489
     55  CD        -8.5830    4.9490   23.6080 C.3   107  ARG107      0.2205
     56  NE        -8.0950    6.2580   23.1610 N.pl3 107  ARG107     -0.0865
     57  CZ        -7.9930    7.3650   23.9040 C.cat 107  ARG107      0.5346
     58  NH1       -8.3480    7.3900   25.1960 N.pl3 107  ARG107      0.1354
     59  NH2       -7.5380    8.4780   23.3340 N.pl3 107  ARG107      0.1354
     60  N        -15.9720    9.4420   32.0250 N.3   127  MET127     -0.1245
     61  CA       -14.6070    9.4860   32.5430 C.3   127  MET127      0.1570
     62  C        -14.6150    9.5070   34.0650 C.2   127  MET127      0.2261
     63  O        -13.7310    8.9360   34.7060 O.2   127  MET127     -0.2867
     64  CB       -13.8470   10.7080   32.0040 C.3   127  MET127      0.0387
     65  CG       -13.4030   10.5770   30.5530 C.3   127  MET127      0.0595
     66  SD       -12.4890    9.0270   30.3350 S.3   127  MET127     -0.1393
     67  CE       -10.8970    9.4780   31.0240 C.3   127  MET127      0.0692
     68  N         -4.3690    5.9410   14.9270 N.3   278  TYR278     -0.1241
     69  CA        -5.6500    6.6280   14.6470 C.3   278  TYR278      0.1605
     70  C         -6.3350    6.1880   13.3520 C.2   278  TYR278      0.2264
     71  O         -7.3660    6.7450   12.9660 O.2   278  TYR278     -0.2867
     72  CB        -5.4220    8.1480   14.7050 C.3   278  TYR278      0.0534
     73  CG        -4.6990    8.5320   15.9740 C.ar  278  TYR278     -0.0201
     74  CD1       -5.2700    8.2360   17.2240 C.ar  278  TYR278     -0.0009
     75  CD2       -3.4530    9.0890   15.9490 C.ar  278  TYR278     -0.0009
     76  CE1       -4.5940    8.5010   18.4020 C.ar  278  TYR278      0.0417
     77  CE2       -2.7590    9.3920   17.1400 C.ar  278  TYR278      0.0417
     78  CZ        -3.3340    9.0920   18.3520 C.ar  278  TYR278      0.1957
     79  OH        -2.6840    9.3600   19.5330 O.3   278  TYR278     -0.2866
@<TRIPOS>BOND
     1    71    70    2
     2    70    69    1
     3    69    72    1
     4    69    68    1
     5    72    73    1
     6    75    73   ar
     7    75    77   ar
     8    73    74   ar
     9    77    78   ar
    10    74    76   ar
    11    78    76   ar
    12    78    79    1
    13    49    50    1
    14    33    31   am
    15    32    31    2
    16    31    30    1
    17    54    55    1
    18    54    53    1
    19    50    53    1
    20    50    51    1
    21    56    55    1
    22    56    57    2
    23    59    57    1
    24    43    44    2
    25    43    42    1
    26    57    58    1
    27    51    52    2
    28    30    27    1
    29    42    41    1
    30    42    45    1
    31     1     2    1
    32    27    26    1
    33    27    28    1
    34    48    47    1
    35    26    24   am
    36     9     8    1
    37    45    46    1
    38    23    24    1
    39    23    22    1
    40    47    46    1
    41    19    18    2
    42    24    25    2
    43     6     5    1
    44     6     7    1
    45     2     5    1
    46     2     3    1
    47    28    29    2
    48    28    34   am
    49     8     7    1
    50    18    22   am
    51    18    17    1
    52     3     4    2
    53    21    20    1
    54    34    35    1
    55    20    17    1
    56    17    16    1
    57    35    36    1
    58    35    38    1
    59    16    12   am
    60    39    38    1
    61    36    37    2
    62    38    40    1
    63    15    14    1
    64    66    65    1
    65    66    67    1
    66    12    13    2
    67    12    11    1
    68    65    64    1
    69    11    14    1
    70    11    10    1
    71    64    61    1
    72    60    61    1
    73    61    62    1
    74    62    63    2
