@<TRIPOS>MOLECULE
tmp/4airB00.pdb
 79 74 0 0 0
SMALL
GASTEIGER

@<TRIPOS>ATOM
      1  N          4.1090   11.3750   25.0060 N.3    48  LYS48      -0.1245
      2  CA         3.8070   11.0140   26.3810 C.3    48  LYS48       0.1561
      3  C          4.7970    9.9880   26.9390 C.2    48  LYS48       0.2260
      4  O          4.8390    9.7940   28.1790 O.2    48  LYS48      -0.2867
      5  CB         2.3580   10.5420   26.5480 C.3    48  LYS48       0.0271
      6  CG         1.3040   11.6090   26.2290 C.3    48  LYS48       0.0035
      7  CD         1.4290   12.9390   27.0380 C.3    48  LYS48       0.0206
      8  CE         0.2000   13.8730   26.8260 C.3    48  LYS48       0.1093
      9  NZ         0.2490   14.3770   25.4560 N.3    48  LYS48      -0.1314
     10  N         -5.5110    6.8800   26.9500 N.3    78  GLY78      -0.1210
     11  CA        -4.8410    7.5310   25.8300 C.3    78  GLY78       0.1956
     12  C         -3.3310    7.3190   25.9690 C.2    78  GLY78       0.2611
     13  O         -2.8940    6.3950   26.6380 O.2    78  GLY78      -0.2717
     14  N         -2.5340    8.1570   25.3410 N.am   79  ASN79      -0.1974
     15  CA        -1.0940    7.8750   25.2500 C.3    79  ASN79       0.1688
     16  C         -0.3620    7.8870   26.5930 C.2    79  ASN79       0.2292
     17  O          0.6880    7.2240   26.7360 O.2    79  ASN79      -0.2864
     18  CB        -0.3820    8.8130   24.2760 C.3    79  ASN79       0.1181
     19  CG        -0.8570    8.6280   22.8410 C.2    79  ASN79       0.2629
     20  OD1       -1.2090    7.5200   22.4600 O.2    79  ASN79      -0.2716
     21  ND2       -0.9260    9.7060   22.0760 N.am   79  ASN79      -0.0877
     22  N         -7.9890    0.6580   21.8840 N.3   107  ARG107     -0.1245
     23  CA        -7.3260    1.2260   23.0510 C.3   107  ARG107      0.1563
     24  C         -7.1610    0.1260   24.1300 C.2   107  ARG107      0.2260
     25  O         -6.0710   -0.0360   24.7290 O.2   107  ARG107     -0.2867
     26  CB        -8.0840    2.4340   23.6180 C.3   107  ARG107      0.0307
     27  CG        -7.8460    3.7890   22.8980 C.3   107  ARG107      0.0489
     28  CD        -8.5830    4.9490   23.6080 C.3   107  ARG107      0.2205
     29  NE        -8.0950    6.2580   23.1610 N.pl3 107  ARG107     -0.0865
     30  CZ        -7.9930    7.3650   23.9040 C.cat 107  ARG107      0.5346
     31  NH1       -8.3480    7.3900   25.1960 N.pl3 107  ARG107      0.1354
     32  NH2       -7.5380    8.4780   23.3340 N.pl3 107  ARG107      0.1354
     33  N         -1.4410   12.5330   14.3530 N.3   243  GLY243     -0.1210
     34  CA        -2.8270   12.5860   14.8050 C.3   243  GLY243      0.1956
     35  C         -3.4360   13.9660   14.7090 C.2   243  GLY243      0.2612
     36  O         -2.8690   14.8720   14.0890 O.2   243  GLY243     -0.2717
     37  N         -4.5900   14.1190   15.3490 N.am  244  PHE244     -0.1962
     38  CA        -5.3770   15.3350   15.2730 C.3   244  PHE244      0.1771
     39  C         -4.6020   16.5400   15.7850 C.2   244  PHE244      0.2620
     40  O         -4.6140   17.6050   15.1410 O.2   244  PHE244     -0.2715
     41  CB        -6.6780   15.1360   16.0670 C.3   244  PHE244      0.0574
     42  CG        -7.6320   16.2990   16.0120 C.ar  244  PHE244     -0.0200
     43  CD1       -8.5180   16.4480   14.9710 C.ar  244  PHE244     -0.0042
     44  CD2       -7.6610   17.2260   17.0390 C.ar  244  PHE244     -0.0042
     45  CE1       -9.4340   17.5360   14.9530 C.ar  244  PHE244     -0.0003
     46  CE2       -8.5570   18.3090   17.0200 C.ar  244  PHE244     -0.0003
     47  CZ        -9.4510   18.4370   15.9900 C.ar  244  PHE244     -0.0000
     48  N         -3.9040   16.3850   16.9160 N.am  245  SER245     -0.1950
     49  CA        -3.2090   17.5180   17.5310 C.3   245  SER245      0.1924
     50  C         -2.0560   18.0290   16.6800 C.2   245  SER245      0.2314
     51  O         -1.8270   19.2310   16.6450 O.2   245  SER245     -0.2863
     52  CB        -2.7680   17.2220   18.9780 C.3   245  SER245      0.2116
     53  OG        -1.9030   16.1140   19.0600 O.3   245  SER245     -0.2180
     54  N          2.1940   12.7680   18.1500 N.3   273  SER273     -0.1217
     55  CA         1.9340   11.3400   18.0570 C.3   273  SER273      0.1889
     56  C          1.8680   10.8350   16.6320 C.2   273  SER273      0.2288
     57  O          1.3830   11.5290   15.7290 O.2   273  SER273     -0.2866
     58  CB         0.6180   11.0020   18.7740 C.3   273  SER273      0.2089
     59  OG        -0.5130   11.6000   18.1520 O.3   273  SER273     -0.2183
     60  N         -4.3690    5.9410   14.9270 N.3   278  TYR278     -0.1241
     61  CA        -5.6500    6.6280   14.6470 C.3   278  TYR278      0.1605
     62  C         -6.3350    6.1880   13.3520 C.2   278  TYR278      0.2264
     63  O         -7.3660    6.7450   12.9660 O.2   278  TYR278     -0.2867
     64  CB        -5.4220    8.1480   14.7050 C.3   278  TYR278      0.0534
     65  CG        -4.6990    8.5320   15.9740 C.ar  278  TYR278     -0.0201
     66  CD1       -5.2700    8.2360   17.2240 C.ar  278  TYR278     -0.0009
     67  CD2       -3.4530    9.0890   15.9490 C.ar  278  TYR278     -0.0009
     68  CE1       -4.5940    8.5010   18.4020 C.ar  278  TYR278      0.0417
     69  CE2       -2.7590    9.3920   17.1400 C.ar  278  TYR278      0.0417
     70  CZ        -3.3340    9.0920   18.3520 C.ar  278  TYR278      0.1957
     71  OH        -2.6840    9.3600   19.5330 O.3   278  TYR278     -0.2866
     72  N        -10.4610   10.5530   12.6270 N.3   283  LEU283     -0.1245
     73  CA        -9.4490   11.3260   11.9300 C.3   283  LEU283      0.1561
     74  C         -9.2320   10.8650   10.4710 C.2   283  LEU283      0.2260
     75  O         -8.9970   11.6770    9.5910 O.2   283  LEU283     -0.2867
     76  CB        -8.1170   11.2820   12.6960 C.3   283  LEU283      0.0270
     77  CG        -6.8940   11.9760   12.0470 C.3   283  LEU283      0.0019
     78  CD1       -7.1580   13.4580   11.8780 C.3   283  LEU283      0.0001
     79  CD2       -5.6220   11.7670   12.8780 C.3   283  LEU283      0.0001
@<TRIPOS>BOND
     1    75    74    2
     2    74    73    1
     3    78    77    1
     4    73    72    1
     5    73    76    1
     6    77    76    1
     7    77    79    1
     8    63    62    2
     9    62    61    1
    10    36    35    2
    11    33    34    1
    12    61    64    1
    13    61    60    1
    14    64    65    1
    15    35    34    1
    16    35    37   am
    17    45    43   ar
    18    45    47   ar
    19    43    42   ar
    20    40    39    2
    21    38    37    1
    22    38    39    1
    23    38    41    1
    24    57    56    2
    25    39    48   am
    26    67    65   ar
    27    67    69   ar
    28    65    66   ar
    29    47    46   ar
    30    42    41    1
    31    42    44   ar
    32    56    55    1
    33    51    50    2
    34    50    49    1
    35    48    49    1
    36    46    44   ar
    37    69    70   ar
    38    66    68   ar
    39    49    52    1
    40    55    54    1
    41    55    58    1
    42    59    58    1
    43    70    68   ar
    44    70    71    1
    45    52    53    1
    46    22    23    1
    47    21    19   am
    48    20    19    2
    49    19    18    1
    50    27    28    1
    51    27    26    1
    52    23    26    1
    53    23    24    1
    54    29    28    1
    55    29    30    2
    56    32    30    1
    57    30    31    1
    58    24    25    2
    59    18    15    1
    60     1     2    1
    61    15    14    1
    62    15    16    1
    63    14    12   am
    64     9     8    1
    65    11    12    1
    66    11    10    1
    67    12    13    2
    68     6     5    1
    69     6     7    1
    70     2     5    1
    71     2     3    1
    72    16    17    2
    73     8     7    1
    74     3     4    2
