@<TRIPOS>MOLECULE
tmp/4aiuA00.pdb
 159 153 0 0 0
SMALL
GASTEIGER

@<TRIPOS>ATOM
      1  N        -15.3810  -12.6810   13.7230 N.3   124  GLY124     -0.1210
      2  CA       -14.2940  -13.3400   13.0400 C.3   124  GLY124      0.1956
      3  C        -12.8690  -12.9290   13.4240 C.2   124  GLY124      0.2612
      4  O        -11.9390  -13.1620   12.6510 O.2   124  GLY124     -0.2717
      5  N        -12.6880  -12.2980   14.5880 N.am  125  PHE125     -0.1962
      6  CA       -11.3600  -11.9120   15.1040 C.3   125  PHE125      0.1771
      7  C        -10.5580  -13.1290   15.6950 C.2   125  PHE125      0.2619
      8  O        -11.1340  -14.2240   15.9160 O.2   125  PHE125     -0.2715
      9  CB       -11.5710  -10.8640   16.1960 C.3   125  PHE125      0.0574
     10  CG       -12.5710  -11.2760   17.2290 C.ar  125  PHE125     -0.0200
     11  CD1      -12.2150  -12.1460   18.2550 C.ar  125  PHE125     -0.0042
     12  CD2      -13.8810  -10.8440   17.1480 C.ar  125  PHE125     -0.0042
     13  CE1      -13.1850  -12.5700   19.2240 C.ar  125  PHE125     -0.0003
     14  CE2      -14.8400  -11.2270   18.0830 C.ar  125  PHE125     -0.0003
     15  CZ       -14.4900  -12.1070   19.0950 C.ar  125  PHE125     -0.0000
     16  N         -9.2610  -12.9080   15.9450 N.am  126  TYR126     -0.1974
     17  CA        -8.3500  -13.7810   16.7760 C.3   126  TYR126      0.1639
     18  C         -8.4720  -13.4200   18.2340 C.2   126  TYR126      0.2290
     19  O         -8.5200  -12.2340   18.5590 O.2   126  TYR126     -0.2864
     20  CB        -6.8850  -13.5590   16.3890 C.3   126  TYR126      0.0560
     21  CG        -6.5640  -14.0400   15.0150 C.ar  126  TYR126     -0.0198
     22  CD1       -6.7280  -13.2120   13.9340 C.ar  126  TYR126     -0.0009
     23  CD2       -6.1540  -15.3620   14.8060 C.ar  126  TYR126     -0.0009
     24  CE1       -6.4430  -13.6760   12.6330 C.ar  126  TYR126      0.0417
     25  CE2       -5.8890  -15.8680   13.5340 C.ar  126  TYR126      0.0417
     26  CZ        -6.0250  -15.0030   12.4410 C.ar  126  TYR126      0.1957
     27  OH        -5.7630  -15.4530   11.1620 O.3   126  TYR126     -0.2866
     28  N        -11.9990  -17.4580   14.9750 N.3   155  LYS155     -0.1245
     29  CA       -10.6950  -18.0410   14.6600 C.3   155  LYS155      0.1561
     30  C        -10.2170  -19.1650   15.6030 C.2   155  LYS155      0.2260
     31  O         -9.6050  -20.1560   15.1440 O.2   155  LYS155     -0.2867
     32  CB        -9.6260  -16.9430   14.5590 C.3   155  LYS155      0.0271
     33  CG        -9.7120  -16.1350   13.2890 C.3   155  LYS155      0.0035
     34  CD        -9.3150  -16.9930   12.1000 C.3   155  LYS155      0.0206
     35  CE        -9.1350  -16.1350   10.8700 C.3   155  LYS155      0.1093
     36  NZ        -9.4030  -16.9900    9.7170 N.3   155  LYS155     -0.1314
     37  N         -9.7660  -17.3620    4.5600 N.3   231  ASN231     -0.1225
     38  CA        -8.8330  -16.2820    4.9110 C.3   231  ASN231      0.1785
     39  C         -7.6090  -16.7490    5.7420 C.2   231  ASN231      0.2597
     40  O         -7.7700  -17.5620    6.6790 O.2   231  ASN231     -0.2718
     41  CB        -9.6020  -15.1830    5.6540 C.3   231  ASN231      0.1169
     42  CG       -10.4820  -15.7460    6.7930 C.2   231  ASN231      0.2627
     43  OD1      -11.0310  -16.8250    6.6760 O.2   231  ASN231     -0.2716
     44  ND2      -10.5880  -15.0210    7.8950 N.am  231  ASN231     -0.0877
     45  N         -6.4030  -16.2410    5.4160 N.am  232  ASP232     -0.1974
     46  CA        -5.2500  -16.3600    6.3320 C.3   232  ASP232      0.1709
     47  C         -4.8280  -17.8110    6.4670 C.2   232  ASP232      0.2293
     48  O         -4.7260  -18.3550    7.5700 O.2   232  ASP232     -0.2864
     49  CB        -5.5720  -15.8000    7.7350 C.3   232  ASP232      0.1436
     50  CG        -5.5740  -14.2520    7.7850 C.2   232  ASP232      0.3671
     51  OD1       -5.3520  -13.5910    6.7370 O.co2 232  ASP232     -0.2456
     52  OD2       -5.7880  -13.6770    8.8920 O.co2 232  ASP232     -0.2456
     53  N        -15.4910  -16.5760    1.9430 N.3   267  CYS267     -0.1235
     54  CA       -14.4790  -15.5770    2.1920 C.3   267  CYS267      0.1677
     55  C        -13.2000  -16.0440    1.5010 C.2   267  CYS267      0.2270
     56  O        -12.6550  -17.1060    1.8390 O.2   267  CYS267     -0.2867
     57  CB       -14.2230  -15.3840    3.6920 C.3   267  CYS267      0.0956
     58  SG       -13.0630  -14.0170    4.0040 S.3   267  CYS267     -0.0801
     59  N         -8.2680  -11.3750   -0.0360 N.3   271  TYR271     -0.1241
     60  CA        -9.4750  -10.6790    0.4330 C.3   271  TYR271      0.1605
     61  C         -9.3720   -9.1320    0.5470 C.2   271  TYR271      0.2264
     62  O        -10.3020   -8.4340    0.9870 O.2   271  TYR271     -0.2867
     63  CB        -9.9650  -11.3260    1.7400 C.3   271  TYR271      0.0534
     64  CG        -8.9500  -11.3290    2.8910 C.ar  271  TYR271     -0.0201
     65  CD1       -8.6340  -10.1340    3.5890 C.ar  271  TYR271     -0.0009
     66  CD2       -8.2850  -12.5070    3.2710 C.ar  271  TYR271     -0.0009
     67  CE1       -7.7110  -10.1090    4.6380 C.ar  271  TYR271      0.0417
     68  CE2       -7.3860  -12.5030    4.3460 C.ar  271  TYR271      0.0417
     69  CZ        -7.1070  -11.2800    5.0180 C.ar  271  TYR271      0.1957
     70  OH        -6.2120  -11.2450    6.0570 O.3   271  TYR271     -0.2866
     71  N        -12.4710   -7.1090    2.1720 N.3   299  THR299     -0.1218
     72  CA       -12.1130   -6.1230    3.2680 C.3   299  THR299      0.1862
     73  C        -11.6820   -4.7270    2.7910 C.2   299  THR299      0.2287
     74  O        -11.6100   -3.7860    3.5820 O.2   299  THR299     -0.2866
     75  CB       -11.0180   -6.6300    4.2540 C.3   299  THR299      0.1770
     76  OG1       -9.7300   -6.6740    3.5880 O.3   299  THR299     -0.2211
     77  CG2      -11.3830   -7.9930    4.8040 C.3   299  THR299      0.0375
     78  N         -6.0170   -5.0350    4.4950 N.3   303  VAL303     -0.1231
     79  CA        -6.6430   -5.8270    5.5200 C.3   303  VAL303      0.1692
     80  C         -7.5280   -4.9350    6.3360 C.2   303  VAL303      0.2591
     81  O         -8.6880   -5.2490    6.5380 O.2   303  VAL303     -0.2718
     82  CB        -5.5990   -6.5010    6.4110 C.3   303  VAL303      0.0266
     83  CG1       -6.2740   -7.3240    7.5840 C.3   303  VAL303      0.0020
     84  CG2       -4.7190   -7.3910    5.5630 C.3   303  VAL303      0.0020
     85  N         -6.9960   -3.8000    6.7820 N.am  304  ILE304     -0.1980
     86  CA        -7.8460   -2.8160    7.4440 C.3   304  ILE304      0.1595
     87  C         -7.9990   -1.6080    6.5540 C.2   304  ILE304      0.2287
     88  O         -7.0160   -0.9450    6.2370 O.2   304  ILE304     -0.2864
     89  CB        -7.2930   -2.3370    8.8280 C.3   304  ILE304      0.0276
     90  CG1       -6.4320   -3.3930    9.4960 C.3   304  ILE304      0.0022
     91  CG2       -8.4880   -1.8130    9.7150 C.3   304  ILE304      0.0022
     92  CD1       -7.1750   -4.6600    9.9580 C.3   304  ILE304      0.0001
     93  N        -16.5790   -7.1400    4.4270 N.3   326  TRP326     -0.1241
     94  CA       -16.0820   -7.5000    5.7680 C.3   326  TRP326      0.1605
     95  C        -15.2110   -6.2740    6.2360 C.2   326  TRP326      0.2264
     96  O        -14.0430   -6.1380    5.8500 O.2   326  TRP326     -0.2867
     97  CB       -15.2120   -8.7740    5.5950 C.3   326  TRP326      0.0550
     98  CG       -14.5050   -9.3090    6.8180 C.ar  326  TRP326      0.0003
     99  CD1      -13.7930   -8.5930    7.7650 C.ar  326  TRP326      0.0946
    100  CD2      -14.4000  -10.6920    7.1990 C.ar  326  TRP326      0.0152
    101  NE1      -13.2860   -9.4460    8.7170 N.ar  326  TRP326     -0.2442
    102  CE2      -13.6200  -10.7400    8.3850 C.ar  326  TRP326      0.0810
    103  CE3      -14.8850  -11.8950    6.6460 C.ar  326  TRP326      0.0012
    104  CZ2      -13.3540  -11.9490    9.0710 C.ar  326  TRP326      0.0191
    105  CZ3      -14.5960  -13.1150    7.3090 C.ar  326  TRP326      0.0001
    106  CH2      -13.8340  -13.1250    8.5200 C.ar  326  TRP326      0.0015
    107  N        -12.9990   -4.4380    8.8130 N.3   328  ASN328     -0.1240
    108  CA       -12.1920   -4.7650    9.9520 C.3   328  ASN328      0.1653
    109  C        -12.0130   -3.5860   10.8890 C.2   328  ASN328      0.2266
    110  O        -10.8950   -3.0920   11.0420 O.2   328  ASN328     -0.2867
    111  CB       -10.8460   -5.2390    9.5060 C.3   328  ASN328      0.1155
    112  CG       -10.8450   -6.6650    9.2010 C.2   328  ASN328      0.2627
    113  OD1      -11.4260   -7.4520    9.9450 O.2   328  ASN328     -0.2716
    114  ND2      -10.1150   -7.0550    8.1290 N.am  328  ASN328     -0.0877
    115  N        -12.3730   -4.1360   15.2160 N.3   331  VAL331     -0.1245
    116  CA       -11.4860   -5.2280   15.5790 C.3   331  VAL331      0.1561
    117  C        -10.1160   -4.7270   16.0420 C.2   331  VAL331      0.2260
    118  O         -9.5220   -3.8370   15.4380 O.2   331  VAL331     -0.2867
    119  CB       -11.3110   -6.3130   14.5010 C.3   331  VAL331      0.0252
    120  CG1      -10.5960   -5.7110   13.2440 C.3   331  VAL331      0.0019
    121  CG2      -10.4700   -7.5250   15.0850 C.3   331  VAL331      0.0019
    122  N         -7.6540   -7.0350   17.3110 N.3   333  ASP333     -0.1225
    123  CA        -6.8760   -8.2120   17.6010 C.3   333  ASP333      0.1805
    124  C         -5.3810   -8.0680   17.2750 C.2   333  ASP333      0.2597
    125  O         -4.6120   -8.9290   17.6040 O.2   333  ASP333     -0.2718
    126  CB        -7.5030   -9.4920   17.0490 C.3   333  ASP333      0.1424
    127  CG        -7.5840   -9.5440   15.5390 C.2   333  ASP333      0.3668
    128  OD1       -6.9350   -8.7290   14.8320 O.co2 333  ASP333     -0.2456
    129  OD2       -8.3110  -10.4820   15.0560 O.co2 333  ASP333     -0.2456
    130  N         -4.9830   -6.9340   16.7370 N.am  334  TYR334     -0.1976
    131  CA        -3.6150   -6.7280   16.3520 C.3   334  TYR334      0.1639
    132  C         -3.1550   -5.4530   17.0710 C.2   334  TYR334      0.2290
    133  O         -2.0850   -4.9180   16.7910 O.2   334  TYR334     -0.2864
    134  CB        -3.4780   -6.5910   14.8160 C.3   334  TYR334      0.0560
    135  CG        -4.2990   -5.4250   14.2660 C.ar  334  TYR334     -0.0198
    136  CD1       -5.6270   -5.6170   13.9060 C.ar  334  TYR334     -0.0009
    137  CD2       -3.7520   -4.1290   14.1300 C.ar  334  TYR334     -0.0009
    138  CE1       -6.3860   -4.5930   13.4500 C.ar  334  TYR334      0.0417
    139  CE2       -4.5290   -3.0720   13.6760 C.ar  334  TYR334      0.0417
    140  CZ        -5.8550   -3.3490   13.3370 C.ar  334  TYR334      0.1957
    141  OH        -6.6770   -2.3970   12.8210 O.3   334  TYR334     -0.2866
    142  N        -16.3810   -6.7870   11.6250 N.3   361  ASN361     -0.1240
    143  CA       -15.5050   -7.5800   12.5140 C.3   361  ASN361      0.1653
    144  C        -15.2130   -6.7510   13.7650 C.2   361  ASN361      0.2266
    145  O        -14.5090   -5.8010   13.7000 O.2   361  ASN361     -0.2867
    146  CB       -14.1950   -7.8600   11.7950 C.3   361  ASN361      0.1155
    147  CG       -13.4030   -9.0110   12.4130 C.2   361  ASN361      0.2627
    148  OD1      -13.8930   -9.7270   13.2590 O.2   361  ASN361     -0.2716
    149  ND2      -12.1570   -9.2000   11.9520 N.am  361  ASN361     -0.0877
    150  N         -0.5340   -2.4750   10.2370 N.3   422  HIS422     -0.1241
    151  CA        -1.4230   -2.1690    9.1170 C.3   422  HIS422      0.1621
    152  C         -1.5040   -0.7040    8.8070 C.2   422  HIS422      0.2264
    153  O         -2.2080   -0.3560    7.8880 O.2   422  HIS422     -0.2867
    154  CB        -2.8470   -2.6460    9.3640 C.3   422  HIS422      0.0745
    155  CG        -2.9730   -4.1150    9.5960 C.ar  422  HIS422      0.0817
    156  ND1       -2.8950   -5.0340    8.5790 N.ar  422  HIS422     -0.2268
    157  CD2       -3.2750   -4.8190   10.7050 C.ar  422  HIS422      0.1154
    158  CE1       -3.0880   -6.2510    9.0560 C.ar  422  HIS422      0.1986
    159  NE2       -3.3240   -6.1500   10.3450 N.ar  422  HIS422     -0.2212
@<TRIPOS>BOND
     1    59    60    1
     2    60    61    1
     3    60    63    1
     4    61    62    2
     5    55    56    2
     6    55    54    1
     7    63    64    1
     8    53    54    1
     9    71    72    1
    10    54    57    1
    11    73    72    1
    12    73    74    2
    13    64    66   ar
    14    64    65   ar
    15    72    75    1
    16    66    68   ar
    17    76    75    1
    18    65    67   ar
    19    57    58    1
    20    75    77    1
    21    68    69   ar
    22    93    94    1
    23    78    79    1
    24    37    38    1
    25    67    69   ar
    26    38    41    1
    27    38    39    1
    28    69    70    1
    29    45    39   am
    30    45    46    1
    31    79    80    1
    32    79    82    1
    33    84    82    1
    34    97    94    1
    35    97    98    1
    36    41    42    1
    37    39    40    2
    38    94    95    1
    39    96    95    2
    40    88    87    2
    41    46    47    1
    42    46    49    1
    43    80    81    2
    44    80    85   am
    45    82    83    1
    46    47    48    2
    47    87    86    1
    48   103   100   ar
    49   103   105   ar
    50    43    42    2
    51    51    50   ar
    52    85    86    1
    53    42    44   am
    54    98   100   ar
    55    98    99   ar
    56   100   102   ar
    57   105   106   ar
    58    86    89    1
    59    49    50    1
    60    99   101   ar
    61    50    52   ar
    62   153   152    2
    63   114   112   am
    64   102   101   ar
    65   102   104   ar
    66   106   104   ar
    67   156   158   ar
    68   156   155   ar
    69   152   151    1
    70   107   108    1
    71    89    90    1
    72    89    91    1
    73   158   159   ar
    74   151   154    1
    75   151   150    1
    76   112   111    1
    77   112   113    2
    78   154   155    1
    79    90    92    1
    80   111   108    1
    81   155   157   ar
    82    36    35    1
    83   108   109    1
    84   159   157   ar
    85    35    34    1
    86   109   110    2
    87    27    26    1
    88   142   143    1
    89   146   147    1
    90   146   143    1
    91   149   147   am
    92    34    33    1
    93   147   148    2
    94    26    24   ar
    95    26    25   ar
    96   143   144    1
    97    24    22   ar
    98     4     3    2
    99   141   140    1
   100     2     3    1
   101     2     1    1
   102   120   119    1
   103    33    32    1
   104   140   138   ar
   105   140   139   ar
   106     3     5   am
   107   138   136   ar
   108    25    23   ar
   109   139   137   ar
   110   145   144    2
   111   136   135   ar
   112    22    21   ar
   113   137   135   ar
   114   135   134    1
   115   119   121    1
   116   119   116    1
   117    32    29    1
   118     5     6    1
   119    29    28    1
   120    29    30    1
   121    23    21   ar
   122   134   131    1
   123   128   127   ar
   124    21    20    1
   125   129   127   ar
   126     6     7    1
   127     6     9    1
   128    31    30    2
   129   115   116    1
   130   118   117    2
   131   127   126    1
   132   116   117    1
   133     7     8    2
   134     7    16   am
   135    16    17    1
   136     9    10    1
   137   131   130    1
   138   131   132    1
   139    20    17    1
   140   130   124   am
   141    17    18    1
   142   133   132    2
   143   126   123    1
   144    12    10   ar
   145    12    14   ar
   146    10    11   ar
   147   124   123    1
   148   124   125    2
   149   122   123    1
   150    14    15   ar
   151    18    19    2
   152    11    13   ar
   153    15    13   ar
