@<TRIPOS>MOLECULE
tmp/4aizB00.pdb
 99 93 0 0 0
SMALL
GASTEIGER

@<TRIPOS>ATOM
      1  N         27.4810  -13.3740  -16.2500 N.3    34  GLN34      -0.1245
      2  CA        27.8480  -14.1340  -17.4300 C.3    34  GLN34       0.1566
      3  C         26.8580  -13.8270  -18.5470 C.2    34  GLN34       0.2260
      4  O         25.6450  -13.9840  -18.3730 O.2    34  GLN34      -0.2867
      5  CB        27.7720  -15.6120  -17.0900 C.3    34  GLN34       0.0367
      6  CG        28.2200  -16.5490  -18.2050 C.3    34  GLN34       0.0905
      7  CD        27.8600  -17.9810  -17.8960 C.2    34  GLN34       0.2608
      8  OE1       26.6970  -18.3610  -17.9780 O.2    34  GLN34      -0.2717
      9  NE2       28.8540  -18.7830  -17.5260 N.am   34  GLN34      -0.0878
     10  N         25.6810  -14.7000  -22.3970 N.3    36  LYS36      -0.1245
     11  CA        25.6740  -15.5650  -23.5750 C.3    36  LYS36       0.1561
     12  C         24.5170  -15.1280  -24.4640 C.2    36  LYS36       0.2260
     13  O         23.4910  -14.6720  -23.9630 O.2    36  LYS36      -0.2867
     14  CB        25.4680  -17.0260  -23.1730 C.3    36  LYS36       0.0271
     15  CG        26.6410  -17.6780  -22.4570 C.3    36  LYS36       0.0035
     16  CD        26.3700  -19.1760  -22.2960 C.3    36  LYS36       0.0206
     17  CE        27.5010  -19.8680  -21.5350 C.3    36  LYS36       0.1093
     18  NZ        27.0810  -21.2270  -21.1400 N.3    36  LYS36      -0.1314
     19  N         20.0630  -15.8720  -23.9640 N.3    39  GLN39      -0.1245
     20  CA        19.5770  -16.1990  -22.6250 C.3    39  GLN39       0.1566
     21  C         19.7370  -15.0190  -21.6850 C.2    39  GLN39       0.2260
     22  O         20.5500  -14.1270  -21.9210 O.2    39  GLN39      -0.2867
     23  CB        20.3040  -17.4260  -22.0570 C.3    39  GLN39       0.0367
     24  CG        21.8060  -17.2460  -21.9390 C.3    39  GLN39       0.0905
     25  CD        22.4990  -18.4720  -21.3760 C.2    39  GLN39       0.2608
     26  OE1       22.1260  -19.6000  -21.6870 O.2    39  GLN39      -0.2717
     27  NE2       23.5100  -18.2540  -20.5370 N.am   39  GLN39      -0.0878
     28  N         23.3980  -14.1440  -16.3840 N.3    42  VAL42      -0.1245
     29  CA        23.4730  -14.9780  -15.1780 C.3    42  VAL42       0.1561
     30  C         24.4170  -14.3460  -14.1720 C.2    42  VAL42       0.2260
     31  O         25.6210  -14.2810  -14.4040 O.2    42  VAL42      -0.2867
     32  CB        23.9850  -16.4040  -15.4820 C.3    42  VAL42       0.0252
     33  CG1       24.0800  -17.2320  -14.1890 C.3    42  VAL42       0.0019
     34  CG2       23.0870  -17.1040  -16.4980 C.3    42  VAL42       0.0019
     35  N         26.8010  -14.1810  -11.3260 N.3    44  VAL44      -0.1245
     36  CA        27.6670  -15.1750  -10.6750 C.3    44  VAL44       0.1561
     37  C         28.2210  -14.6760   -9.3410 C.2    44  VAL44       0.2260
     38  O         28.5140  -15.4750   -8.4580 O.2    44  VAL44      -0.2867
     39  CB        28.8140  -15.6700  -11.6090 C.3    44  VAL44       0.0252
     40  CG1       28.2200  -16.3420  -12.8290 C.3    44  VAL44       0.0019
     41  CG2       29.7670  -14.5240  -12.0060 C.3    44  VAL44       0.0019
     42  N         22.7550  -21.6770   -7.0470 N.3    54  GLY54      -0.1210
     43  CA        22.8050  -22.2730   -8.3740 C.3    54  GLY54       0.1956
     44  C         24.1230  -22.0480   -9.0970 C.2    54  GLY54       0.2612
     45  O         24.3810  -22.6560  -10.1330 O.2    54  GLY54      -0.2717
     46  N         24.9550  -21.1660   -8.5500 N.am   55  ILE55      -0.1966
     47  CA        26.2560  -20.8610   -9.1490 C.3    55  ILE55       0.1712
     48  C         27.3350  -21.7610   -8.5430 C.2    55  ILE55       0.2458
     49  O         27.5020  -21.7820   -7.3160 O.2    55  ILE55      -0.2730
     50  CB        26.6260  -19.3840   -8.9210 C.3    55  ILE55       0.0289
     51  CG1       25.5190  -18.4840   -9.4650 C.3    55  ILE55       0.0022
     52  CG2       27.9650  -19.0410   -9.5840 C.3    55  ILE55       0.0023
     53  CD1       25.1720  -18.7470  -10.9130 C.3    55  ILE55       0.0001
     54  N         28.0600  -22.5110   -9.3950 N.am   56  PRO56      -0.2727
     55  CA        29.1100  -23.4080   -8.8980 C.3    56  PRO56       0.1402
     56  C         30.1230  -22.7030   -8.0010 C.2    56  PRO56       0.2269
     57  O         30.4290  -21.5180   -8.1830 O.2    56  PRO56      -0.2865
     58  CB        29.7920  -23.9150  -10.1780 C.3    56  PRO56       0.0296
     59  CG        29.0650  -23.2700  -11.3390 C.3    56  PRO56       0.0237
     60  CD        27.7850  -22.7180  -10.8280 C.3    56  PRO56       0.0939
     61  N         33.1880  -22.9750   -7.9420 N.3    58  ARG58      -0.1231
     62  CA        34.4070  -22.6490   -8.6810 C.3    58  ARG58       0.1694
     63  C         34.4600  -21.1680   -9.0440 C.2    58  ARG58       0.2592
     64  O         35.5310  -20.6230   -9.3060 O.2    58  ARG58      -0.2718
     65  CB        34.5630  -23.5310   -9.9320 C.3    58  ARG58       0.0321
     66  CG        33.6000  -23.2350  -11.0760 C.3    58  ARG58       0.0489
     67  CD        33.8540  -24.1690  -12.2620 C.3    58  ARG58       0.2205
     68  NE        32.8340  -24.0350  -13.2980 N.pl3  58  ARG58      -0.0865
     69  CZ        31.7450  -24.7950  -13.3710 C.cat  58  ARG58       0.5346
     70  NH1       31.5380  -25.7470  -12.4660 N.pl3  58  ARG58       0.1354
     71  NH2       30.8640  -24.6100  -14.3430 N.pl3  58  ARG58       0.1354
     72  N         33.3020  -20.5160   -9.0400 N.am   59  PHE59      -0.1976
     73  CA        33.2350  -19.0770   -9.2950 C.3    59  PHE59       0.1639
     74  C         33.4330  -18.3150   -7.9910 C.2    59  PHE59       0.2290
     75  O         32.6850  -18.5030   -7.0420 O.2    59  PHE59      -0.2864
     76  CB        31.8830  -18.6770   -9.8930 C.3    59  PHE59       0.0560
     77  CG        31.6920  -19.1120  -11.3030 C.ar   59  PHE59      -0.0200
     78  CD1       31.1770  -20.3610  -11.5910 C.ar   59  PHE59      -0.0042
     79  CD2       32.0360  -18.2770  -12.3470 C.ar   59  PHE59      -0.0042
     80  CE1       31.0030  -20.7720  -12.9050 C.ar   59  PHE59      -0.0003
     81  CE2       31.8720  -18.6850  -13.6610 C.ar   59  PHE59      -0.0003
     82  CZ        31.3480  -19.9300  -13.9380 C.ar   59  PHE59      -0.0000
     83  N         31.3930  -25.0110  -20.6580 N.3    78  GLU78      -0.1231
     84  CA        30.1800  -24.2100  -20.5370 C.3    78  GLU78       0.1699
     85  C         30.4680  -22.8560  -19.9050 C.2    78  GLU78       0.2592
     86  O         29.5970  -21.9940  -19.8620 O.2    78  GLU78      -0.2718
     87  CB        29.0870  -24.9430  -19.7560 C.3    78  GLU78       0.0402
     88  CG        29.4250  -25.2530  -18.3090 C.3    78  GLU78       0.1161
     89  CD        30.2140  -26.5440  -18.1530 C.2    78  GLU78       0.3649
     90  OE1       30.6640  -27.1070  -19.1810 O.co2  78  GLU78      -0.2457
     91  OE2       30.3780  -26.9960  -16.9970 O.co2  78  GLU78      -0.2457
     92  N         31.6990  -22.6700  -19.4360 N.am   79  ASP79      -0.1974
     93  CA        32.1100  -21.4020  -18.8560 C.3    79  ASP79       0.1709
     94  C         32.4230  -20.4030  -19.9680 C.2    79  ASP79       0.2293
     95  O         32.5200  -19.2110  -19.7200 O.2    79  ASP79      -0.2864
     96  CB        33.3340  -21.5800  -17.9570 C.3    79  ASP79       0.1436
     97  CG        33.0210  -22.3570  -16.6820 C.2    79  ASP79       0.3671
     98  OD1       31.8360  -22.4260  -16.2890 O.co2  79  ASP79      -0.2456
     99  OD2       33.9710  -22.8900  -16.0700 O.co2  79  ASP79      -0.2456
@<TRIPOS>BOND
     1    12    13    2
     2    12    11    1
     3    19    20    1
     4    11    14    1
     5    11    10    1
     6    14    15    1
     7    20    23    1
     8    20    21    1
     9    15    16    1
    10    16    17    1
    11    23    24    1
    12    24    25    1
    13    22    21    2
    14    26    25    2
    15    17    18    1
    16    25    27   am
    17    83    84    1
    18    84    85    1
    19    84    87    1
    20    94    95    2
    21    94    93    1
    22    85    86    2
    23    85    92   am
    24    87    88    1
    25    92    93    1
    26    90    89   ar
    27    93    96    1
    28     3     4    2
    29     3     2    1
    30    88    89    1
    31     6     7    1
    32     6     5    1
    33    89    91   ar
    34     8     7    2
    35    96    97    1
    36     7     9   am
    37     2     5    1
    38     2     1    1
    39    97    98   ar
    40    97    99   ar
    41    34    32    1
    42    28    29    1
    43    32    29    1
    44    32    33    1
    45    29    30    1
    46    31    30    2
    47    71    69    1
    48    82    81   ar
    49    82    80   ar
    50    81    79   ar
    51    69    68    2
    52    69    70    1
    53    68    67    1
    54    80    78   ar
    55    40    39    1
    56    79    77   ar
    57    67    66    1
    58    41    39    1
    59    39    36    1
    60    78    77   ar
    61    59    60    1
    62    59    58    1
    63    35    36    1
    64    77    76    1
    65    66    65    1
    66    53    51    1
    67    60    54    1
    68    36    37    1
    69    58    55    1
    70    45    44    2
    71    65    62    1
    72    76    73    1
    73    52    50    1
    74    51    50    1
    75    54    55    1
    76    54    48   am
    77    37    38    2
    78    64    63    2
    79    73    72    1
    80    73    74    1
    81    47    50    1
    82    47    46    1
    83    47    48    1
    84    44    46   am
    85    44    43    1
    86    63    72   am
    87    63    62    1
    88    55    56    1
    89    62    61    1
    90    48    49    2
    91    43    42    1
    92    57    56    2
    93    74    75    2
