@<TRIPOS>MOLECULE
tmp/4aj1B00.pdb
 112 106 0 0 0
SMALL
GASTEIGER

@<TRIPOS>ATOM
      1  N         -6.4910   -1.1740   18.0260 N.3    24  VAL24      -0.1231
      2  CA        -7.4080   -1.4190   16.9350 C.3    24  VAL24       0.1692
      3  C         -6.7330   -1.0160   15.6160 C.2    24  VAL24       0.2593
      4  O         -6.4170    0.1660   15.4020 O.2    24  VAL24      -0.2718
      5  CB        -8.7010   -0.5990   17.0740 C.3    24  VAL24       0.0266
      6  CG1       -9.5930   -0.8180   15.8640 C.3    24  VAL24       0.0020
      7  CG2       -9.4360   -0.8960   18.3850 C.3    24  VAL24       0.0020
      8  N         -6.5450   -2.0220   14.7470 N.am   25  GLY25      -0.1942
      9  CA        -5.8290   -1.8870   13.4800 C.3    25  GLY25       0.2014
     10  C         -4.4280   -2.4460   13.5920 C.2    25  GLY25       0.2639
     11  O         -3.6870   -2.0340   14.4870 O.2    25  GLY25      -0.2714
     12  N         -4.1030   -3.4190   12.7330 N.am   26  VAL26      -0.1963
     13  CA        -2.7820   -4.0900   12.7440 C.3    26  VAL26       0.1727
     14  C         -2.0170   -3.8240   11.4440 C.2    26  VAL26       0.2616
     15  O         -1.1180   -4.6070   11.0240 O.2    26  VAL26      -0.2715
     16  CB        -2.8720   -5.5940   13.0720 C.3    26  VAL26       0.0290
     17  CG1       -3.3900   -5.7850   14.4880 C.3    26  VAL26       0.0023
     18  CG2       -3.7230   -6.3520   12.0700 C.3    26  VAL26       0.0023
     19  N         -2.3200   -2.6640   10.8580 N.am   27  GLY27      -0.1955
     20  CA        -1.5360   -2.1250    9.7460 C.3    27  GLY27       0.1869
     21  C         -0.1860   -1.7090   10.3070 C.2    27  GLY27       0.2309
     22  O          0.0790   -1.9890   11.4680 O.2    27  GLY27      -0.2863
     23  N         -8.8250   -6.2630   14.2840 N.3    50  ASP50      -0.1225
     24  CA        -8.8250   -5.8250   12.8850 C.3    50  ASP50       0.1805
     25  C         -9.9000   -6.6490   12.1650 C.2    50  ASP50       0.2597
     26  O        -10.5610   -7.4980   12.7780 O.2    50  ASP50      -0.2718
     27  CB        -7.4290   -5.9820   12.2360 C.3    50  ASP50       0.1424
     28  CG        -7.1760   -4.9630   11.0960 C.2    50  ASP50       0.3668
     29  OD1       -7.9950   -4.9140   10.1450 O.co2  50  ASP50      -0.2456
     30  OD2       -6.1860   -4.2010   11.1430 O.co2  50  ASP50      -0.2456
     31  N        -10.0440   -6.4120   10.8710 N.am   51  VAL51      -0.1980
     32  CA       -11.0640   -7.0600   10.0860 C.3    51  VAL51       0.1595
     33  C        -10.5340   -8.1510    9.1280 C.2    51  VAL51       0.2287
     34  O        -11.3170   -8.9130    8.6080 O.2    51  VAL51      -0.2864
     35  CB       -11.8990   -6.0110    9.3360 C.3    51  VAL51       0.0276
     36  CG1      -12.5620   -5.0920   10.3550 C.3    51  VAL51       0.0022
     37  CG2      -11.0530   -5.2330    8.3390 C.3    51  VAL51       0.0022
     38  N        -11.4480  -10.5040   15.6780 N.3    79  LYS79      -0.1245
     39  CA       -12.3100   -9.5580   14.9510 C.3    79  LYS79       0.1561
     40  C        -13.4310   -9.0330   15.8710 C.2    79  LYS79       0.2260
     41  O        -13.9420   -7.9500   15.6430 O.2    79  LYS79      -0.2867
     42  CB       -12.9290  -10.2070   13.7160 C.3    79  LYS79       0.0271
     43  CG       -13.3620   -9.3170   12.5770 C.3    79  LYS79       0.0035
     44  CD       -14.3400   -8.2640   13.0130 C.3    79  LYS79       0.0206
     45  CE       -15.3630   -7.8630   11.9490 C.3    79  LYS79       0.1093
     46  NZ       -16.3460   -6.9850   12.6750 N.3    79  LYS79      -0.1314
     47  N        -14.9800   -7.5290   19.2200 N.3    81  TYR81      -0.1241
     48  CA       -14.5620   -6.5680   20.2080 C.3    81  TYR81       0.1605
     49  C        -14.5950   -7.0090   21.6520 C.2    81  TYR81       0.2264
     50  O        -13.8890   -6.4130   22.4730 O.2    81  TYR81      -0.2867
     51  CB       -15.3070   -5.2440   19.9930 C.3    81  TYR81       0.0534
     52  CG       -14.6690   -4.4470   18.8750 C.ar   81  TYR81      -0.0201
     53  CD1      -15.0380   -4.6330   17.5390 C.ar   81  TYR81      -0.0009
     54  CD2      -13.6670   -3.5440   19.1500 C.ar   81  TYR81      -0.0009
     55  CE1      -14.4310   -3.9330   16.5200 C.ar   81  TYR81       0.0417
     56  CE2      -13.0510   -2.8280   18.1380 C.ar   81  TYR81       0.0417
     57  CZ       -13.4180   -3.0360   16.8240 C.ar   81  TYR81       0.1957
     58  OH       -12.8130   -2.2950   15.8390 O.3    81  TYR81      -0.2866
     59  N         -6.2120    3.0090   15.3610 N.3    93  THR93      -0.1203
     60  CA        -5.3600    3.3260   14.2240 C.3    93  THR93       0.1994
     61  C         -6.0090    2.8740   12.9160 C.2    93  THR93       0.2618
     62  O         -5.4230    3.0510   11.8610 O.2    93  THR93      -0.2717
     63  CB        -3.9980    2.6030   14.3260 C.3    93  THR93       0.1784
     64  OG1       -4.1990    1.2040   14.0250 O.3    93  THR93      -0.2211
     65  CG2       -3.3720    2.7970   15.7000 C.3    93  THR93       0.0376
     66  N         -7.1940    2.2580   12.9770 N.am   94  ALA94      -0.1965
     67  CA        -7.8620    1.7850   11.7780 C.3    94  ALA94       0.1728
     68  C         -8.3030    2.9190   10.8340 C.2    94  ALA94       0.2616
     69  O         -8.6600    4.0300   11.2840 O.2    94  ALA94      -0.2715
     70  CB        -9.0750    0.9550   12.1570 C.3    94  ALA94       0.0334
     71  N         -8.3180    2.5930    9.5370 N.am   95  GLY95      -0.1955
     72  CA        -8.8810    3.4310    8.5120 C.3    95  GLY95       0.1869
     73  C         -7.9710    3.6830    7.3260 C.2    95  GLY95       0.2309
     74  O         -6.8010    3.2800    7.2590 O.2    95  GLY95      -0.2863
     75  N         -5.6620    5.7140    4.7960 N.3    97  ARG97      -0.1245
     76  CA        -4.5140    6.5980    4.9730 C.3    97  ARG97       0.1563
     77  C         -4.2900    7.4320    3.7370 C.2    97  ARG97       0.2260
     78  O         -4.6860    7.0250    2.6530 O.2    97  ARG97      -0.2867
     79  CB        -3.2570    5.7730    5.1580 C.3    97  ARG97       0.0307
     80  CG        -3.2160    4.9690    6.4330 C.3    97  ARG97       0.0489
     81  CD        -2.0890    3.9410    6.3350 C.3    97  ARG97       0.2205
     82  NE        -2.6270    2.6830    5.8570 N.pl3  97  ARG97      -0.0865
     83  CZ        -2.2390    2.0300    4.7640 C.cat  97  ARG97       0.5346
     84  NH1       -1.2320    2.4540    3.9940 N.pl3  97  ARG97       0.1354
     85  NH2       -2.8600    0.9120    4.4540 N.pl3  97  ARG97       0.1354
     86  N        -16.1430    4.2010    9.1140 N.3   114  ILE114     -0.1245
     87  CA       -15.5140    3.1420    9.8790 C.3   114  ILE114      0.1561
     88  C        -15.7090    3.3320   11.4060 C.2   114  ILE114      0.2260
     89  O        -15.9680    2.3670   12.1530 O.2   114  ILE114     -0.2867
     90  CB       -14.0220    3.0660    9.5040 C.3   114  ILE114      0.0252
     91  CG1      -13.8610    2.5030    8.0730 C.3   114  ILE114      0.0019
     92  CG2      -13.2280    2.2790   10.5340 C.3   114  ILE114      0.0019
     93  CD1      -12.4290    2.5210    7.5880 C.3   114  ILE114      0.0001
     94  N        -18.7730    2.2280   13.3060 N.3   117  PHE117     -0.1227
     95  CA       -18.7620    0.8400   13.7630 C.3   117  PHE117      0.1736
     96  C        -17.7760    0.6030   14.9250 C.2   117  PHE117      0.2595
     97  O        -18.1120   -0.0280   15.9360 O.2   117  PHE117     -0.2718
     98  CB       -18.4510   -0.1160   12.5990 C.3   117  PHE117      0.0547
     99  CG       -18.4710   -1.5810   13.0030 C.ar  117  PHE117     -0.0202
    100  CD1      -17.3390   -2.1930   13.5310 C.ar  117  PHE117     -0.0042
    101  CD2      -19.6160   -2.3410   12.8690 C.ar  117  PHE117     -0.0042
    102  CE1      -17.3570   -3.5200   13.9080 C.ar  117  PHE117     -0.0003
    103  CE2      -19.6360   -3.6860   13.2450 C.ar  117  PHE117     -0.0003
    104  CZ       -18.5160   -4.2680   13.7710 C.ar  117  PHE117     -0.0000
    105  N        -16.5580    1.1030   14.7840 N.am  118  ILE118     -0.1980
    106  CA       -15.5340    0.8170   15.7780 C.3   118  ILE118      0.1595
    107  C        -15.8620    1.4060   17.1770 C.2   118  ILE118      0.2287
    108  O        -15.8280    0.7190   18.2230 O.2   118  ILE118     -0.2864
    109  CB       -14.1740    1.3490   15.3140 C.3   118  ILE118      0.0276
    110  CG1      -13.6950    0.5690   14.0770 C.3   118  ILE118      0.0022
    111  CG2      -13.1910    1.2710   16.4880 C.3   118  ILE118      0.0022
    112  CD1      -12.3050    0.9310   13.5860 C.3   118  ILE118      0.0001
@<TRIPOS>BOND
     1    78    77    2
     2    77    76    1
     3    84    83    1
     4    85    83    1
     5    83    82    2
     6    75    76    1
     7    76    79    1
     8    79    80    1
     9    82    81    1
    10    81    80    1
    11    74    73    2
    12    73    72    1
    13    93    91    1
    14    91    90    1
    15    37    35    1
    16    72    71    1
    17    34    33    2
    18    86    87    1
    19    33    32    1
    20    35    32    1
    21    35    36    1
    22    90    87    1
    23    90    92    1
    24    71    68   am
    25    20    21    1
    26    20    19    1
    27    87    88    1
    28    32    31    1
    29    29    28   ar
    30    21    22    2
    31    68    69    2
    32    68    67    1
    33    19    14   am
    34    31    25   am
    35    15    14    2
    36    28    30   ar
    37    28    27    1
    38    88    89    2
    39    14    13    1
    40    67    70    1
    41    67    66    1
    42    62    61    2
    43    45    46    1
    44    45    44    1
    45    18    16    1
    46    25    26    2
    47    25    24    1
    48    27    24    1
    49    43    44    1
    50    43    42    1
    51    98    99    1
    52    98    95    1
    53    12    13    1
    54    12    10   am
    55    13    16    1
    56   101    99   ar
    57   101   103   ar
    58    24    23    1
    59    61    66   am
    60    61    60    1
    61    99   100   ar
    62    16    17    1
    63   103   104   ar
    64    94    95    1
    65     9    10    1
    66     9     8    1
    67   100   102   ar
    68   112   110    1
    69    10    11    2
    70    42    39    1
    71    95    96    1
    72   104   102   ar
    73    64    63    1
    74   110   109    1
    75    60    63    1
    76    60    59    1
    77    63    65    1
    78     8     3   am
    79   105    96   am
    80   105   106    1
    81    96    97    2
    82    39    38    1
    83    39    40    1
    84   109   106    1
    85   109   111    1
    86     4     3    2
    87     3     2    1
    88    41    40    2
    89   106   107    1
    90    58    57    1
    91     6     5    1
    92    55    57   ar
    93    55    53   ar
    94    57    56   ar
    95     2     5    1
    96     2     1    1
    97     5     7    1
    98   107   108    2
    99    53    52   ar
   100    56    54   ar
   101    52    54   ar
   102    52    51    1
   103    47    48    1
   104    51    48    1
   105    48    49    1
   106    49    50    2
