@<TRIPOS>MOLECULE
tmp/4aj2A01.pdb
 91 81 0 0 0
SMALL
GASTEIGER

@<TRIPOS>ATOM
      1  N         12.6290   -8.1050    8.6030 N.3    26  VAL26      -0.1245
      2  CA        13.5180   -8.6570    9.6440 C.3    26  VAL26       0.1561
      3  C         14.5120   -7.5940   10.1400 C.2    26  VAL26       0.2260
      4  O         14.6370   -7.3600   11.3480 O.2    26  VAL26      -0.2867
      5  CB        14.2630   -9.9480    9.1750 C.3    26  VAL26       0.0252
      6  CG1       15.2810  -10.4160   10.2150 C.3    26  VAL26       0.0019
      7  CG2       13.2720  -11.0720    8.8780 C.3    26  VAL26       0.0019
      8  N         12.3670  -16.2280    3.4110 N.3    95  GLN95      -0.1245
      9  CA        11.5520  -17.4410    3.3500 C.3    95  GLN95       0.1566
     10  C         10.1640  -17.1530    2.7800 C.2    95  GLN95       0.2260
     11  O          9.4910  -16.1870    3.1670 O.2    95  GLN95      -0.2867
     12  CB        11.4200  -18.1050    4.7360 C.3    95  GLN95       0.0367
     13  CG        10.7790  -19.4940    4.6930 C.3    95  GLN95       0.0905
     14  CD        10.5940  -20.1170    6.0640 C.2    95  GLN95       0.2608
     15  OE1       10.8360  -19.4780    7.0950 O.2    95  GLN95      -0.2717
     16  NE2       10.1450  -21.3760    6.0850 N.am   95  GLN95      -0.0878
     17  N         13.5290  -22.7730    4.3100 N.3   101  ARG101     -0.1245
     18  CA        14.5910  -21.7520    4.3110 C.3   101  ARG101      0.1563
     19  C         15.7870  -22.2220    3.4740 C.2   101  ARG101      0.2260
     20  O         16.5480  -21.4020    2.9520 O.2   101  ARG101     -0.2867
     21  CB        15.0450  -21.4470    5.7380 C.3   101  ARG101      0.0307
     22  CG        13.9630  -20.8930    6.6580 C.3   101  ARG101      0.0489
     23  CD        14.4830  -20.9460    8.0870 C.3   101  ARG101      0.2205
     24  NE        13.5740  -20.4490    9.1240 N.pl3 101  ARG101     -0.0865
     25  CZ        12.6310  -21.1650    9.7400 C.cat 101  ARG101      0.5346
     26  NH1       12.3720  -22.4300    9.3990 N.pl3 101  ARG101      0.1354
     27  NH2       11.9180  -20.6020   10.7040 N.pl3 101  ARG101      0.1354
     28  N         21.6990  -13.4220   10.3860 N.3   131  VAL131     -0.1245
     29  CA        20.2780  -13.6530   10.5980 C.3   131  VAL131      0.1561
     30  C         19.6010  -14.1610    9.3200 C.2   131  VAL131      0.2260
     31  O         18.6250  -14.9010    9.3990 O.2   131  VAL131     -0.2867
     32  CB        19.5780  -12.3610   11.0720 C.3   131  VAL131      0.0252
     33  CG1       18.1110  -12.6270   11.4580 C.3   131  VAL131      0.0019
     34  CG2       20.3650  -11.7300   12.2220 C.3   131  VAL131      0.0019
     35  N         18.6410  -16.2490    5.9850 N.3   133  ASN133     -0.1240
     36  CA        18.4380  -17.6880    5.8880 C.3   133  ASN133      0.1653
     37  C         18.9920  -18.3590    4.6240 C.2   133  ASN133      0.2266
     38  O         19.0680  -17.7380    3.5620 O.2   133  ASN133     -0.2867
     39  CB        16.9520  -18.0110    6.0420 C.3   133  ASN133      0.1155
     40  CG        16.5180  -18.0260    7.4820 C.2   133  ASN133      0.2627
     41  OD1       17.2120  -18.5820    8.3410 O.2   133  ASN133     -0.2716
     42  ND2       15.3780  -17.4080    7.7690 N.am  133  ASN133     -0.0877
     43  N         15.5640  -18.1100   18.5940 N.3   160  LEU160     -0.1245
     44  CA        14.1270  -17.9050   18.3740 C.3   160  LEU160      0.1561
     45  C         13.3210  -19.1940   18.5440 C.2   160  LEU160      0.2260
     46  O         12.2490  -19.1790   19.1630 O.2   160  LEU160     -0.2867
     47  CB        13.8600  -17.2950   16.9920 C.3   160  LEU160      0.0270
     48  CG        12.3830  -17.0650   16.6190 C.3   160  LEU160      0.0019
     49  CD1       11.6230  -16.2730   17.6790 C.3   160  LEU160      0.0001
     50  CD2       12.2960  -16.3780   15.2670 C.3   160  LEU160      0.0001
     51  N         10.2960  -19.7120   21.1040 N.3   164  ARG164     -0.1245
     52  CA         8.9840  -20.2200   20.6910 C.3   164  ARG164      0.1563
     53  C          8.5600  -21.4350   21.5240 C.2   164  ARG164      0.2260
     54  O          7.4180  -21.5210   21.9940 O.2   164  ARG164     -0.2867
     55  CB         8.9890  -20.5660   19.2050 C.3   164  ARG164      0.0307
     56  CG         8.9640  -19.3370   18.3040 C.3   164  ARG164      0.0489
     57  CD         9.0790  -19.7530   16.8610 C.3   164  ARG164      0.2205
     58  NE         8.7840  -18.6570   15.9410 N.pl3 164  ARG164     -0.0865
     59  CZ         9.3840  -18.4620   14.7700 C.cat 164  ARG164      0.5346
     60  NH1       10.3470  -19.2750   14.3400 N.pl3 164  ARG164      0.1354
     61  NH2        9.0180  -17.4300   14.0250 N.pl3 164  ARG164      0.1354
     62  N         18.2290  -24.2090   12.4740 N.3   188  HIS188     -0.1241
     63  CA        17.1240  -23.2650   12.5220 C.3   188  HIS188      0.1621
     64  C         16.2470  -23.5580   11.3360 C.2   188  HIS188      0.2264
     65  O         16.3620  -22.9270   10.2680 O.2   188  HIS188     -0.2867
     66  CB        17.6300  -21.8300   12.4910 C.3   188  HIS188      0.0745
     67  CG        16.5220  -20.8020   12.4360 C.ar  188  HIS188      0.0817
     68  ND1       15.5430  -20.7420   13.3630 N.ar  188  HIS188     -0.2268
     69  CD2       16.2470  -19.8090   11.5090 C.ar  188  HIS188      0.1154
     70  CE1       14.6970  -19.7520   13.0450 C.ar  188  HIS188      0.1986
     71  NE2       15.1340  -19.1780   11.9150 N.ar  188  HIS188     -0.2212
     72  N          7.1720  -20.4590   11.6100 N.3   233  ALA233     -0.1245
     73  CA         7.4770  -19.5140   10.5190 C.3   233  ALA233      0.1562
     74  C          6.5400  -19.7160    9.3320 C.2   233  ALA233      0.2260
     75  O          6.0620  -18.7380    8.7420 O.2   233  ALA233     -0.2867
     76  CB         8.9320  -19.6060   10.0620 C.3   233  ALA233      0.0290
     77  N          7.8010  -13.1280    8.6550 N.3   243  THR243     -0.1218
     78  CA         7.9080  -12.9770   10.1100 C.3   243  THR243      0.1862
     79  C          8.8730  -11.8280   10.3810 C.2   243  THR243      0.2287
     80  O          9.7750  -11.5490    9.5710 O.2   243  THR243     -0.2866
     81  CB         8.3670  -14.2580   10.8620 C.3   243  THR243      0.1770
     82  OG1        9.7980  -14.2910   10.9610 O.3   243  THR243     -0.2211
     83  CG2        7.8360  -15.5460   10.1960 C.3   243  THR243      0.0375
     84  N         11.7190  -12.5280   15.6090 N.3   247  ILE247     -0.1245
     85  CA        13.1320  -12.5950   15.2220 C.3   247  ILE247      0.1561
     86  C         13.8770  -11.3060   15.6080 C.2   247  ILE247      0.2260
     87  O         15.0180  -11.3710   16.0680 O.2   247  ILE247     -0.2867
     88  CB        13.3370  -12.9780   13.7250 C.3   247  ILE247      0.0252
     89  CG1       14.8290  -13.2450   13.4190 C.3   247  ILE247      0.0019
     90  CG2       12.7560  -11.9120   12.7850 C.3   247  ILE247      0.0019
     91  CD1       15.4720  -14.3880   14.2150 C.3   247  ILE247      0.0001
@<TRIPOS>BOND
     1    10    11    2
     2    10     9    1
     3    20    19    2
     4     9     8    1
     5     9    12    1
     6    19    18    1
     7    38    37    2
     8    17    18    1
     9    18    21    1
    10    37    36    1
    11    13    12    1
    12    13    14    1
    13    21    22    1
    14    36    35    1
    15    36    39    1
    16    39    40    1
    17    14    16   am
    18    14    15    2
    19    22    23    1
    20    40    42   am
    21    40    41    2
    22    23    24    1
    23     1     2    1
    24    77    78    1
    25    75    74    2
    26     7     5    1
    27    24    25    2
    28     5     2    1
    29     5     6    1
    30    30    31    2
    31    30    29    1
    32    74    73    1
    33    26    25    1
    34    80    79    2
    35     2     3    1
    36    25    27    1
    37    76    73    1
    38    78    79    1
    39    78    81    1
    40     3     4    2
    41    83    81    1
    42    65    64    2
    43    28    29    1
    44    73    72    1
    45    29    32    1
    46    81    82    1
    47    32    33    1
    48    32    34    1
    49    64    63    1
    50    69    71   ar
    51    69    67   ar
    52    71    70   ar
    53    67    66    1
    54    67    68   ar
    55    62    63    1
    56    66    63    1
    57    90    88    1
    58    70    68   ar
    59    89    88    1
    60    89    91    1
    61    88    85    1
    62    61    59    1
    63    60    59    1
    64    59    58    2
    65    85    86    1
    66    85    84    1
    67    50    48    1
    68    86    87    2
    69    58    57    1
    70    48    47    1
    71    48    49    1
    72    57    56    1
    73    47    44    1
    74    56    55    1
    75    44    45    1
    76    44    43    1
    77    45    46    2
    78    55    52    1
    79    52    51    1
    80    52    53    1
    81    53    54    2
