@<TRIPOS>MOLECULE
tmp/4aj2A00.pdb
 94 88 0 0 0
SMALL
GASTEIGER

@<TRIPOS>ATOM
      1  N         22.5310   -4.6290    8.2720 N.3    21  VAL21      -0.1245
      2  CA        22.4920   -4.7260    6.8190 C.3    21  VAL21       0.1561
      3  C         21.1680   -5.3730    6.4010 C.2    21  VAL21       0.2260
      4  O         20.8470   -6.4900    6.8330 O.2    21  VAL21      -0.2867
      5  CB        23.6690   -5.5680    6.2990 C.3    21  VAL21       0.0252
      6  CG1       23.6320   -5.6430    4.7760 C.3    21  VAL21       0.0019
      7  CG2       24.9960   -5.0150    6.8250 C.3    21  VAL21       0.0019
      8  N         22.2540   -0.2730    6.2250 N.3    46  VAL46      -0.1231
      9  CA        22.7810   -0.4240    4.8550 C.3    46  VAL46       0.1692
     10  C         21.8660   -1.3010    4.0320 C.2    46  VAL46       0.2592
     11  O         21.4440   -2.3640    4.4880 O.2    46  VAL46      -0.2718
     12  CB        24.2030   -1.0360    4.8320 C.3    46  VAL46       0.0266
     13  CG1       24.6890   -1.2130    3.3940 C.3    46  VAL46       0.0020
     14  CG2       25.1640   -0.1600    5.6180 C.3    46  VAL46       0.0020
     15  N         21.5510   -0.8390    2.8220 N.am   47  ASP47      -0.1960
     16  CA        20.8610   -1.6580    1.8380 C.3    47  ASP47       0.1840
     17  C         21.1050   -1.0560    0.4550 C.2    47  ASP47       0.2621
     18  O         21.6830    0.0310    0.3300 O.2    47  ASP47      -0.2715
     19  CB        19.3590   -1.7510    2.1460 C.3    47  ASP47       0.1450
     20  CG        18.7420   -3.0690    1.6840 C.2    47  ASP47       0.3671
     21  OD1       19.1310   -3.5700    0.6030 O.co2  47  ASP47      -0.2456
     22  OD2       17.8610   -3.6040    2.3920 O.co2  47  ASP47      -0.2456
     23  N         20.6650   -1.7650   -0.5760 N.am   48  VAL48      -0.1977
     24  CA        20.8710   -1.3350   -1.9650 C.3    48  VAL48       0.1596
     25  C         19.6250   -0.6740   -2.5840 C.2    48  VAL48       0.2287
     26  O         19.6870   -0.1830   -3.7130 O.2    48  VAL48      -0.2864
     27  CB        21.3430   -2.5190   -2.8430 C.3    48  VAL48       0.0276
     28  CG1       22.6530   -3.0830   -2.3050 C.3    48  VAL48       0.0022
     29  CG2       20.2740   -3.5950   -2.9020 C.3    48  VAL48       0.0022
     30  N         23.9900    3.2740    1.1350 N.3    76  LYS76      -0.1245
     31  CA        24.4280    2.1110    0.3460 C.3    76  LYS76       0.1561
     32  C         25.9410    1.8990    0.4500 C.2    76  LYS76       0.2260
     33  O         26.4440    0.8140    0.1800 O.2    76  LYS76      -0.2867
     34  CB        24.0340    2.2530   -1.1360 C.3    76  LYS76       0.0271
     35  CG        24.7180    3.4210   -1.8430 C.3    76  LYS76       0.0035
     36  CD        24.4880    3.4320   -3.3510 C.3    76  LYS76       0.0206
     37  CE        25.0980    4.6860   -3.9750 C.3    76  LYS76       0.1093
     38  NZ        24.6940    4.8870   -5.3990 N.3    76  LYS76      -0.1314
     39  N         29.3190    1.3630    2.3420 N.3    78  TYR78      -0.1241
     40  CA        29.6790    0.7290    3.6160 C.3    78  TYR78       0.1605
     41  C         30.6080    1.5560    4.5180 C.2    78  TYR78       0.2264
     42  O         30.7980    1.2150    5.6920 O.2    78  TYR78      -0.2867
     43  CB        30.2600   -0.6690    3.3950 C.3    78  TYR78       0.0534
     44  CG        29.2060   -1.7420    3.1460 C.ar   78  TYR78      -0.0201
     45  CD1       28.5660   -1.8580    1.9030 C.ar   78  TYR78      -0.0009
     46  CD2       28.8670   -2.6500    4.1410 C.ar   78  TYR78      -0.0009
     47  CE1       27.6120   -2.8410    1.6770 C.ar   78  TYR78       0.0417
     48  CE2       27.9300   -3.6400    3.9250 C.ar   78  TYR78       0.0417
     49  CZ        27.3010   -3.7350    2.6970 C.ar   78  TYR78       0.1957
     50  OH        26.3680   -4.7270    2.5030 O.3    78  TYR78      -0.2866
     51  N         19.9610   -9.1730    5.2060 N.3    91  ALA91      -0.1231
     52  CA        19.6040   -8.9940    3.7940 C.3    91  ALA91       0.1694
     53  C         19.5580  -10.3340    3.0440 C.2    91  ALA91       0.2592
     54  O         20.1120  -11.3460    3.4960 O.2    91  ALA91      -0.2718
     55  CB        20.5880   -8.0480    3.1030 C.3    91  ALA91       0.0304
     56  N         18.9060  -10.3050    1.8830 N.am   92  GLY92      -0.1957
     57  CA        18.8120  -11.4620    1.0020 C.3    92  GLY92       0.1869
     58  C         17.3940  -11.9160    0.7750 C.2    92  GLY92       0.2309
     59  O         16.4520  -11.3310    1.3110 O.2    92  GLY92      -0.2863
     60  N         24.9490  -13.1630   -2.5740 N.3   111  ILE111     -0.1245
     61  CA        24.8800  -11.8120   -2.0250 C.3   111  ILE111      0.1561
     62  C         25.9300  -11.6290   -0.9210 C.2   111  ILE111      0.2260
     63  O         26.4900  -10.5620   -0.7640 O.2   111  ILE111     -0.2867
     64  CB        23.4570  -11.5020   -1.5000 C.3   111  ILE111      0.0252
     65  CG1       22.5240  -11.1910   -2.6820 C.3   111  ILE111      0.0019
     66  CG2       23.4770  -10.3340   -0.5310 C.3   111  ILE111      0.0019
     67  CD1       21.0760  -11.5800   -2.4520 C.3   111  ILE111      0.0001
     68  N         29.3040  -10.3210   -1.8010 N.3   114  PHE114     -0.1227
     69  CA        29.3870   -8.8580   -1.8640 C.3   114  PHE114      0.1736
     70  C         29.3510   -8.2100   -0.4790 C.2   114  PHE114      0.2595
     71  O         30.1690   -7.3530   -0.1740 O.2   114  PHE114     -0.2718
     72  CB        28.2590   -8.2840   -2.7240 C.3   114  PHE114      0.0547
     73  CG        28.3880   -8.6170   -4.1820 C.ar  114  PHE114     -0.0202
     74  CD1       29.1030   -7.7870   -5.0390 C.ar  114  PHE114     -0.0042
     75  CD2       27.7930   -9.7560   -4.6990 C.ar  114  PHE114     -0.0042
     76  CE1       29.2300   -8.0990   -6.3870 C.ar  114  PHE114     -0.0003
     77  CE2       27.9160  -10.0720   -6.0450 C.ar  114  PHE114     -0.0003
     78  CZ        28.6380   -9.2430   -6.8870 C.ar  114  PHE114     -0.0000
     79  N         28.3970   -8.6190    0.3550 N.am  115  ILE115     -0.1980
     80  CA        28.2040   -7.9880    1.6680 C.3   115  ILE115      0.1595
     81  C         29.4090   -8.1390    2.6080 C.2   115  ILE115      0.2287
     82  O         29.8840   -7.1470    3.1840 O.2   115  ILE115     -0.2864
     83  CB        26.9530   -8.5480    2.3940 C.3   115  ILE115      0.0276
     84  CG1       25.6670   -8.1960    1.6310 C.3   115  ILE115      0.0022
     85  CG2       26.8840   -8.0130    3.8300 C.3   115  ILE115      0.0022
     86  CD1       24.4200   -8.8530    2.2020 C.3   115  ILE115      0.0001
     87  N         32.6960   -6.1570    2.1770 N.3   118  ASN118     -0.1240
     88  CA        32.3950   -4.7500    2.4420 C.3   118  ASN118      0.1653
     89  C         32.2870   -4.4320    3.9340 C.2   118  ASN118      0.2266
     90  O         32.8260   -3.4170    4.3960 O.2   118  ASN118     -0.2867
     91  CB        31.1140   -4.3160    1.7180 C.3   118  ASN118      0.1155
     92  CG        31.3630   -3.9320    0.2660 C.2   118  ASN118      0.2627
     93  OD1       32.4600   -3.5350   -0.0920 O.2   118  ASN118     -0.2716
     94  ND2       30.3390   -4.0430   -0.5700 N.am  118  ASN118     -0.0877
@<TRIPOS>BOND
     1    78    76   ar
     2    78    77   ar
     3    76    74   ar
     4    77    75   ar
     5    38    37    1
     6    74    73   ar
     7    75    73   ar
     8    73    72    1
     9    37    36    1
    10    26    25    2
    11    36    35    1
    12    29    27    1
    13    27    28    1
    14    27    24    1
    15    72    69    1
    16    65    67    1
    17    65    64    1
    18    25    24    1
    19    60    61    1
    20    61    64    1
    21    61    62    1
    22    24    23    1
    23    69    68    1
    24    69    70    1
    25    35    34    1
    26    64    66    1
    27    34    31    1
    28    62    63    2
    29    23    17   am
    30    94    92   am
    31    70    71    2
    32    70    79   am
    33    93    92    2
    34    33    32    2
    35    92    91    1
    36    18    17    2
    37    31    32    1
    38    31    30    1
    39    79    80    1
    40    17    16    1
    41    21    20   ar
    42    58    57    1
    43    58    59    2
    44    57    56    1
    45    84    86    1
    46    84    83    1
    47    80    83    1
    48    80    81    1
    49    47    45   ar
    50    47    49   ar
    51    20    19    1
    52    20    22   ar
    53    91    88    1
    54    16    19    1
    55    16    15    1
    56    56    53   am
    57    45    44   ar
    58    87    88    1
    59    39    40    1
    60    83    85    1
    61    88    89    1
    62    50    49    1
    63    81    82    2
    64    49    48   ar
    65    15    10   am
    66    53    54    2
    67    53    52    1
    68    55    52    1
    69    44    43    1
    70    44    46   ar
    71    13    12    1
    72    43    40    1
    73    40    41    1
    74    52    51    1
    75    48    46   ar
    76    89    90    2
    77    10    11    2
    78    10     9    1
    79    41    42    2
    80     6     5    1
    81    12     9    1
    82    12    14    1
    83     9     8    1
    84     5     2    1
    85     5     7    1
    86     3     2    1
    87     3     4    2
    88     2     1    1
