@<TRIPOS>MOLECULE
tmp/4aj3A00.pdb
 231 222 0 0 0
SMALL
GASTEIGER

@<TRIPOS>ATOM
      1  N        -43.1470   -8.9300    0.5210 N.3    37  ILE37      -0.1245
      2  CA       -42.3370   -7.9380   -0.1950 C.3    37  ILE37       0.1561
      3  C        -42.7080   -7.7960   -1.6810 C.2    37  ILE37       0.2260
      4  O        -42.1590   -6.9540   -2.3710 O.2    37  ILE37      -0.2867
      5  CB       -40.8210   -8.2080   -0.0810 C.3    37  ILE37       0.0252
      6  CG1      -40.4550   -9.5640   -0.6930 C.3    37  ILE37       0.0019
      7  CG2      -40.3630   -8.1230    1.3950 C.3    37  ILE37       0.0019
      8  CD1      -38.9320   -9.7460   -0.9610 C.3    37  ILE37       0.0001
      9  N        -41.3960   -4.9500   -4.3730 N.3    41  VAL41      -0.1245
     10  CA       -40.5940   -5.2120   -5.5660 C.3    41  VAL41       0.1561
     11  C        -41.3980   -5.1230   -6.8770 C.2    41  VAL41       0.2260
     12  O        -40.8650   -4.7250   -7.9140 O.2    41  VAL41      -0.2867
     13  CB       -39.8190   -6.5550   -5.4610 C.3    41  VAL41       0.0252
     14  CG1      -38.9690   -6.5750   -4.1940 C.3    41  VAL41       0.0019
     15  CG2      -40.7760   -7.7670   -5.5190 C.3    41  VAL41       0.0019
     16  N        -44.5730  -13.0220  -11.8370 N.3   100  LYS100     -0.1245
     17  CA       -45.1570  -12.9710  -10.4910 C.3   100  LYS100      0.1561
     18  C        -44.1550  -12.5210   -9.4440 C.2   100  LYS100      0.2260
     19  O        -42.9680  -12.8290   -9.5300 O.2   100  LYS100     -0.2867
     20  CB       -45.7180  -14.3460  -10.0720 C.3   100  LYS100      0.0271
     21  CG       -44.6590  -15.4620  -10.0010 C.3   100  LYS100      0.0035
     22  CD       -45.2600  -16.8100   -9.5540 C.3   100  LYS100      0.0206
     23  CE       -45.5480  -16.8350   -8.0430 C.3   100  LYS100      0.1093
     24  NZ       -44.2990  -16.7350   -7.2150 N.3   100  LYS100     -0.1314
     25  N        -43.3620  -12.9890   -5.2270 N.3   102  PRO102     -0.2102
     26  CA       -43.3080  -14.2210   -4.4250 C.3   102  PRO102      0.1504
     27  C        -44.6280  -14.5090   -3.7190 C.2   102  PRO102      0.2576
     28  O        -45.4110  -13.5820   -3.5100 O.2   102  PRO102     -0.2718
     29  CB       -42.2270  -13.9090   -3.3910 C.3   102  PRO102      0.0282
     30  CG       -42.3250  -12.4070   -3.1990 C.3   102  PRO102      0.0208
     31  CD       -42.6620  -11.8620   -4.5840 C.3   102  PRO102      0.0893
     32  N        -44.8590  -15.7650   -3.3400 N.am  103  LEU103     -0.1966
     33  CA       -46.0840  -16.1400   -2.6250 C.3   103  LEU103      0.1728
     34  C        -45.7410  -16.8860   -1.3370 C.2   103  LEU103      0.2617
     35  O        -44.8320  -17.7200   -1.3100 O.2   103  LEU103     -0.2715
     36  CB       -47.0050  -17.0040   -3.5130 C.3   103  LEU103      0.0311
     37  CG       -47.5880  -16.3160   -4.7470 C.3   103  LEU103      0.0022
     38  CD1      -48.3580  -17.3080   -5.6260 C.3   103  LEU103      0.0001
     39  CD2      -48.4790  -15.1260   -4.3350 C.3   103  LEU103      0.0001
     40  N        -46.4720  -16.5840   -0.2730 N.am  104  THR104     -0.1937
     41  CA       -46.1820  -17.1700    1.0350 C.3   104  THR104      0.2028
     42  C        -46.7220  -18.5800    1.1810 C.2   104  THR104      0.2642
     43  O        -47.9040  -18.8220    0.9400 O.2   104  THR104     -0.2714
     44  CB       -46.7500  -16.3020    2.1620 C.3   104  THR104      0.1808
     45  OG1      -46.0360  -15.0650    2.1840 O.3   104  THR104     -0.2208
     46  CG2      -46.5800  -16.9970    3.5310 C.3   104  THR104      0.0379
     47  N        -45.8430  -19.5060    1.5720 N.am  105  THR105     -0.1950
     48  CA       -46.2510  -20.8670    1.9260 C.3   105  THR105      0.1897
     49  C        -45.9980  -21.1180    3.4220 C.2   105  THR105      0.2313
     50  O        -44.8690  -20.9660    3.9090 O.2   105  THR105     -0.2863
     51  CB       -45.4900  -21.9320    1.1070 C.3   105  THR105      0.1794
     52  OG1      -45.6160  -21.6380   -0.2930 O.3   105  THR105     -0.2208
     53  CG2      -46.0470  -23.3360    1.3940 C.3   105  THR105      0.0378
     54  N        -45.4920  -23.0270    7.0560 N.3   107  VAL107     -0.1245
     55  CA       -44.6570  -24.1560    7.4500 C.3   107  VAL107      0.1561
     56  C        -45.4110  -25.1220    8.3670 C.2   107  VAL107      0.2260
     57  O        -46.0710  -24.6990    9.3100 O.2   107  VAL107     -0.2867
     58  CB       -43.3920  -23.6560    8.1730 C.3   107  VAL107      0.0252
     59  CG1      -42.6000  -24.8220    8.7620 C.3   107  VAL107      0.0019
     60  CG2      -42.5360  -22.8270    7.2190 C.3   107  VAL107      0.0019
     61  N        -46.9290  -21.4330   -5.2620 N.3   115  ASN115     -0.1240
     62  CA       -45.8670  -21.3860   -6.2560 C.3   115  ASN115      0.1653
     63  C        -45.7290  -22.7330   -6.9370 C.2   115  ASN115      0.2266
     64  O        -45.6730  -22.8270   -8.1680 O.2   115  ASN115     -0.2867
     65  CB       -44.5580  -20.9700   -5.5960 C.3   115  ASN115      0.1155
     66  CG       -44.6960  -19.6740   -4.8460 C.2   115  ASN115      0.2627
     67  OD1      -45.1290  -18.6720   -5.4100 O.2   115  ASN115     -0.2716
     68  ND2      -44.3680  -19.6900   -3.5550 N.am  115  ASN115     -0.0877
     69  N        -46.6910  -23.9840  -10.8640 N.3   119  ARG119     -0.1245
     70  CA       -45.7640  -24.7810  -11.6670 C.3   119  ARG119      0.1563
     71  C        -46.3740  -26.1210  -12.0860 C.2   119  ARG119      0.2260
     72  O        -46.2260  -26.5620  -13.2310 O.2   119  ARG119     -0.2867
     73  CB       -44.4610  -25.0320  -10.8990 C.3   119  ARG119      0.0307
     74  CG       -43.7200  -23.7610  -10.4870 C.3   119  ARG119      0.0489
     75  CD       -42.6180  -24.0610   -9.4480 C.3   119  ARG119      0.2205
     76  NE       -41.9350  -22.8370   -9.0220 N.pl3 119  ARG119     -0.0865
     77  CZ       -41.2980  -22.6860   -7.8600 C.cat 119  ARG119      0.5346
     78  NH1      -41.2390  -23.6900   -6.9840 N.pl3 119  ARG119      0.1354
     79  NH2      -40.7200  -21.5230   -7.5720 N.pl3 119  ARG119      0.1354
     80  N        -32.8030  -20.7670  -13.6470 N.3   129  ARG129     -0.1245
     81  CA       -32.2210  -19.7040  -12.8250 C.3   129  ARG129      0.1563
     82  C        -30.7560  -19.4080  -13.1670 C.2   129  ARG129      0.2260
     83  O        -29.8370  -20.1220  -12.7350 O.2   129  ARG129     -0.2867
     84  CB       -32.3870  -20.0320  -11.3370 C.3   129  ARG129      0.0307
     85  CG       -33.8510  -19.8850  -10.8540 C.3   129  ARG129      0.0489
     86  CD       -34.0990  -20.5810   -9.5270 C.3   129  ARG129      0.2205
     87  NE       -35.4200  -20.2650   -8.9820 N.pl3 129  ARG129     -0.0865
     88  CZ       -35.8770  -20.7370   -7.8220 C.cat 129  ARG129      0.5346
     89  NH1      -35.1170  -21.5440   -7.1030 N.pl3 129  ARG129      0.1354
     90  NH2      -37.0890  -20.4020   -7.3840 N.pl3 129  ARG129      0.1354
     91  N        -33.5200  -26.2550   -5.7230 N.3   307  ASP307     -0.1239
     92  CA       -33.9660  -25.2700   -4.7440 C.3   307  ASP307      0.1674
     93  C        -32.7790  -24.8250   -3.8860 C.2   307  ASP307      0.2266
     94  O        -32.5040  -23.6320   -3.7390 O.2   307  ASP307     -0.2867
     95  CB       -35.0570  -25.9010   -3.8640 C.3   307  ASP307      0.1410
     96  CG       -35.6300  -24.9330   -2.8570 C.2   307  ASP307      0.3668
     97  OD1      -35.8800  -23.7770   -3.2350 O.co2 307  ASP307     -0.2456
     98  OD2      -35.8190  -25.3170   -1.6850 O.co2 307  ASP307     -0.2456
     99  N        -29.8140  -13.4720   -2.7970 N.3   320  ILE320     -0.1231
    100  CA       -31.0260  -13.6310   -3.5970 C.3   320  ILE320      0.1692
    101  C        -31.7630  -12.3190   -3.8490 C.2   320  ILE320      0.2592
    102  O        -32.8990  -12.3150   -4.3200 O.2   320  ILE320     -0.2718
    103  CB       -31.9930  -14.6890   -2.9940 C.3   320  ILE320      0.0266
    104  CG1      -32.4140  -14.2880   -1.5850 C.3   320  ILE320      0.0019
    105  CG2      -31.3610  -16.0760   -3.0450 C.3   320  ILE320      0.0020
    106  CD1      -33.3570  -15.3320   -0.9020 C.3   320  ILE320      0.0001
    107  N        -31.1180  -11.2070   -3.5250 N.am  321  GLY321     -0.1957
    108  CA       -31.5850   -9.9100   -3.9920 C.3   321  GLY321      0.1869
    109  C        -31.1980   -9.7030   -5.4570 C.2   321  GLY321      0.2309
    110  O        -31.6690   -8.7820   -6.1210 O.2   321  GLY321     -0.2863
    111  N        -40.1920  -15.1930  -12.4100 N.3   336  GLU336     -0.1231
    112  CA       -40.3100  -15.2380  -10.9530 C.3   336  GLU336      0.1699
    113  C        -38.9330  -15.1690  -10.2930 C.2   336  GLU336      0.2592
    114  O        -38.0220  -15.9060  -10.6890 O.2   336  GLU336     -0.2718
    115  CB       -40.9780  -16.5660  -10.5650 C.3   336  GLU336      0.0402
    116  CG       -41.1790  -16.7850   -9.0680 C.3   336  GLU336      0.1161
    117  CD       -41.5160  -18.2440   -8.7300 C.2   336  GLU336      0.3649
    118  OE1      -40.8360  -19.1710   -9.2400 O.co2 336  GLU336     -0.2457
    119  OE2      -42.4640  -18.4650   -7.9450 O.co2 336  GLU336     -0.2457
    120  N        -38.7690  -14.3040   -9.2920 N.am  337  ALA337     -0.1966
    121  CA       -37.4930  -14.2430   -8.5750 C.3   337  ALA337      0.1728
    122  C        -37.2740  -15.5230   -7.7870 C.2   337  ALA337      0.2617
    123  O        -38.2250  -16.2360   -7.4600 O.2   337  ALA337     -0.2715
    124  CB       -37.4340  -13.0350   -7.6400 C.3   337  ALA337      0.0334
    125  N        -36.0170  -15.8080   -7.4710 N.am  338  THR338     -0.1937
    126  CA       -35.7040  -16.9520   -6.6310 C.3   338  THR338      0.2028
    127  C        -36.2250  -16.7700   -5.2040 C.2   338  THR338      0.2642
    128  O        -36.6450  -17.7340   -4.5730 O.2   338  THR338     -0.2714
    129  CB       -34.1820  -17.2240   -6.6180 C.3   338  THR338      0.1808
    130  OG1      -33.7850  -17.6910   -7.9120 O.3   338  THR338     -0.2208
    131  CG2      -33.8180  -18.2760   -5.5760 C.3   338  THR338      0.0379
    132  N        -36.2010  -15.5350   -4.7060 N.am  339  HIS339     -0.1959
    133  CA       -36.5210  -15.2720   -3.3050 C.3   339  HIS339      0.1787
    134  C        -38.0100  -15.3640   -2.9600 C.2   339  HIS339      0.2621
    135  O        -38.8820  -15.3750   -3.8410 O.2   339  HIS339     -0.2715
    136  CB       -35.9970  -13.8990   -2.8870 C.3   339  HIS339      0.0785
    137  CG       -36.7080  -12.7540   -3.5400 C.ar  339  HIS339      0.0821
    138  ND1      -38.0030  -12.4040   -3.2270 N.ar  339  HIS339     -0.2267
    139  CD2      -36.3040  -11.8840   -4.5000 C.ar  339  HIS339      0.1154
    140  CE1      -38.3670  -11.3620   -3.9570 C.ar  339  HIS339      0.1986
    141  NE2      -37.3530  -11.0230   -4.7320 N.ar  339  HIS339     -0.2212
    142  N        -38.2860  -15.4020   -1.6590 N.am  340  GLY340     -0.1940
    143  CA       -39.6400  -15.5030   -1.1620 C.3   340  GLY340      0.2014
    144  C        -40.2340  -14.1610   -0.7700 C.2   340  GLY340      0.2640
    145  O        -39.8520  -13.1160   -1.2960 O.2   340  GLY340     -0.2714
    146  N        -41.1530  -14.2020    0.1840 N.am  341  THR341     -0.1936
    147  CA       -41.9580  -13.0450    0.5560 C.3   341  THR341      0.2028
    148  C        -41.3610  -12.2260    1.6960 C.2   341  THR341      0.2642
    149  O        -41.9040  -11.1780    2.0400 O.2   341  THR341     -0.2714
    150  CB       -43.3780  -13.4950    0.9620 C.3   341  THR341      0.1808
    151  OG1      -43.2860  -14.4590    2.0260 O.3   341  THR341     -0.2208
    152  CG2      -44.0780  -14.1320   -0.2280 C.3   341  THR341      0.0379
    153  N        -40.2510  -12.7050    2.2650 N.am  342  ALA342     -0.1963
    154  CA       -39.5850  -12.0510    3.4080 C.3   342  ALA342      0.1713
    155  C        -40.5150  -11.1300    4.2000 C.2   342  ALA342      0.2458
    156  O        -40.3270   -9.9110    4.2230 O.2   342  ALA342     -0.2730
    157  CB       -38.3480  -11.2760    2.9390 C.3   342  ALA342      0.0333
    158  N        -41.5230  -11.7130    4.8540 N.am  343  PRO343     -0.2716
    159  CA       -42.5530  -10.9690    5.5990 C.3   343  PRO343      0.1536
    160  C        -42.0040   -9.9220    6.5820 C.2   343  PRO343      0.2598
    161  O        -42.6250   -8.8680    6.7510 O.2   343  PRO343     -0.2715
    162  CB       -43.2990  -12.0740    6.3580 C.3   343  PRO343      0.0310
    163  CG       -43.1100  -13.3000    5.5050 C.3   343  PRO343      0.0237
    164  CD       -41.7230  -13.1740    4.9210 C.3   343  PRO343      0.0939
    165  N        -40.8720  -10.1990    7.2220 N.am  344  LYS344     -0.1964
    166  CA       -40.2920   -9.2350    8.1680 C.3   344  LYS344      0.1728
    167  C        -39.9170   -7.8830    7.5370 C.2   344  LYS344      0.2616
    168  O        -39.7210   -6.8930    8.2450 O.2   344  LYS344     -0.2715
    169  CB       -39.0690   -9.8300    8.8560 C.3   344  LYS344      0.0311
    170  CG       -37.8650   -9.9930    7.9410 C.3   344  LYS344      0.0038
    171  CD       -36.5970  -10.1050    8.7750 C.3   344  LYS344      0.0206
    172  CE       -35.8490  -11.3800    8.4950 C.3   344  LYS344      0.1093
    173  NZ       -34.8030  -11.5900    9.5520 N.3   344  LYS344     -0.1314
    174  N        -39.8090   -7.8350    6.2110 N.am  345  TYR345     -0.1974
    175  CA       -39.4830   -6.5810    5.5270 C.3   345  TYR345      0.1639
    176  C        -40.6770   -6.0420    4.7390 C.2   345  TYR345      0.2290
    177  O        -40.6220   -4.9460    4.1860 O.2   345  TYR345     -0.2864
    178  CB       -38.3090   -6.7720    4.5640 C.3   345  TYR345      0.0560
    179  CG       -37.0240   -7.2560    5.2120 C.ar  345  TYR345     -0.0198
    180  CD1      -36.4720   -6.6000    6.3190 C.ar  345  TYR345     -0.0009
    181  CD2      -36.3570   -8.3630    4.7110 C.ar  345  TYR345     -0.0009
    182  CE1      -35.2850   -7.0470    6.8970 C.ar  345  TYR345      0.0417
    183  CE2      -35.1800   -8.8250    5.2850 C.ar  345  TYR345      0.0417
    184  CZ       -34.6450   -8.1690    6.3700 C.ar  345  TYR345      0.1957
    185  OH       -33.4650   -8.6400    6.9130 O.3   345  TYR345     -0.2866
    186  N        -36.2720   -4.1060    0.5640 N.3   351  VAL351     -0.1231
    187  CA       -35.5540   -5.1900   -0.1020 C.3   351  VAL351      0.1692
    188  C        -35.0670   -4.8530   -1.5150 C.2   351  VAL351      0.2592
    189  O        -35.4040   -3.8200   -2.0880 O.2   351  VAL351     -0.2718
    190  CB       -36.4050   -6.4710   -0.1270 C.3   351  VAL351      0.0266
    191  CG1      -36.6100   -6.9730    1.3070 C.3   351  VAL351      0.0020
    192  CG2      -37.7450   -6.1970   -0.7940 C.3   351  VAL351      0.0020
    193  N        -34.2500   -5.7410   -2.0580 N.am  352  ASN352     -0.1974
    194  CA       -33.6680   -5.5490   -3.3680 C.3   352  ASN352      0.1688
    195  C        -34.6600   -5.9750   -4.4560 C.2   352  ASN352      0.2292
    196  O        -35.0760   -7.1340   -4.4920 O.2   352  ASN352     -0.2864
    197  CB       -32.3990   -6.4080   -3.4540 C.3   352  ASN352      0.1181
    198  CG       -31.4440   -5.9330   -4.5160 C.2   352  ASN352      0.2629
    199  OD1      -31.8550   -5.3570   -5.5170 O.2   352  ASN352     -0.2716
    200  ND2      -30.1590   -6.1750   -4.3070 N.am  352  ASN352     -0.0877
    201  N        -30.3080   -2.3820    1.1100 N.3   391  TYR391     -0.1227
    202  CA       -29.6890   -2.7170    2.3990 C.3   391  TYR391      0.1736
    203  C        -28.8270   -3.9810    2.3150 C.2   391  TYR391      0.2595
    204  O        -27.7980   -4.1090    2.9950 O.2   391  TYR391     -0.2718
    205  CB       -30.7720   -2.9120    3.4720 C.3   391  TYR391      0.0548
    206  CG       -31.2540   -4.3480    3.5050 C.ar  391  TYR391     -0.0200
    207  CD1      -32.2230   -4.7950    2.6070 C.ar  391  TYR391     -0.0009
    208  CD2      -30.7030   -5.2700    4.3940 C.ar  391  TYR391     -0.0009
    209  CE1      -32.6420   -6.1180    2.5970 C.ar  391  TYR391      0.0417
    210  CE2      -31.1180   -6.6140    4.3980 C.ar  391  TYR391      0.0417
    211  CZ       -32.0840   -7.0270    3.4950 C.ar  391  TYR391      0.1957
    212  OH       -32.5060   -8.3390    3.4740 O.3   391  TYR391     -0.2866
    213  N        -29.2600   -4.9280    1.4950 N.am  392  ASP392     -0.1974
    214  CA       -28.5760   -6.2220    1.4130 C.3   392  ASP392      0.1709
    215  C        -27.1910   -6.1010    0.7800 C.2   392  ASP392      0.2293
    216  O        -26.2970   -6.8880    1.0950 O.2   392  ASP392     -0.2864
    217  CB       -29.4250   -7.2470    0.6570 C.3   392  ASP392      0.1436
    218  CG       -29.8630   -6.7370   -0.6980 C.2   392  ASP392      0.3671
    219  OD1      -30.3730   -5.5950   -0.7530 O.co2 392  ASP392     -0.2456
    220  OD2      -29.6760   -7.4690   -1.6980 O.co2 392  ASP392     -0.2456
    221  N        -24.8000   -3.4520    3.3760 N.3   395  ARG395     -0.1245
    222  CA       -24.1650   -4.0140    4.5750 C.3   395  ARG395      0.1563
    223  C        -22.8930   -4.8000    4.2710 C.2   395  ARG395      0.2260
    224  O        -22.1410   -5.1420    5.1810 O.2   395  ARG395     -0.2867
    225  CB       -25.1370   -4.9000    5.3680 C.3   395  ARG395      0.0307
    226  CG       -25.6270   -6.1440    4.6110 C.3   395  ARG395      0.0489
    227  CD       -26.4720   -7.0480    5.5160 C.3   395  ARG395      0.2205
    228  NE       -25.6790   -7.6390    6.5970 N.pl3 395  ARG395     -0.0865
    229  CZ       -25.0440   -8.8090    6.5160 C.cat 395  ARG395      0.5346
    230  NH1      -25.1100   -9.5400    5.4070 N.pl3 395  ARG395      0.1354
    231  NH2      -24.3470   -9.2560    7.5510 N.pl3 395  ARG395      0.1354
@<TRIPOS>BOND
     1    80    81    1
     2    72    71    2
     3    82    81    1
     4    82    83    2
     5    81    84    1
     6   111   112    1
     7    71    70    1
     8    16    17    1
     9    70    73    1
    10    70    69    1
    11    84    85    1
    12   112   115    1
    13   112   113    1
    14    73    74    1
    15    85    86    1
    16   114   113    2
    17   115   116    1
    18    17    20    1
    19    17    18    1
    20    74    75    1
    21   113   120   am
    22    20    21    1
    23    21    22    1
    24    22    23    1
    25    19    18    2
    26    86    87    1
    27    75    76    1
    28   120   121    1
    29   118   117   ar
    30   116   117    1
    31    76    77    2
    32    87    88    2
    33   117   119   ar
    34   121   122    1
    35   121   124    1
    36    64    63    2
    37    23    24    1
    38    12    11    2
    39   130   129    1
    40    77    79    1
    41    77    78    1
    42    88    90    1
    43    88    89    1
    44   122   125   am
    45   122   123    2
    46   125   126    1
    47    63    62    1
    48    11    10    1
    49   126   129    1
    50   126   127    1
    51   129   131    1
    52    62    65    1
    53    62    61    1
    54   110   109    2
    55    91    92    1
    56    38    37    1
    57    65    66    1
    58    10    13    1
    59    10     9    1
    60    15    13    1
    61   199   198    2
    62    13    14    1
    63   109   108    1
    64    67    66    2
    65    25    31    1
    66    25    26    1
    67   127   132   am
    68   127   128    2
    69    66    68   am
    70    37    39    1
    71    37    36    1
    72    92    93    1
    73    92    95    1
    74   141   139   ar
    75   141   140   ar
    76   132   133    1
    77    31    30    1
    78   198   200   am
    79   198   197    1
    80   139   137   ar
    81   196   195    2
    82   195   194    1
    83    26    27    1
    84    26    29    1
    85   102   101    2
    86   108   107    1
    87   140   138   ar
    88    93    94    2
    89    95    96    1
    90   101   100    1
    91   101   107   am
    92   135   134    2
    93    27    28    2
    94    27    32   am
    95   100   103    1
    96   100    99    1
    97   137   138   ar
    98   137   136    1
    99    36    33    1
   100   197   194    1
   101    29    30    1
   102   194   193    1
   103    32    33    1
   104   133   134    1
   105   133   136    1
   106    97    96   ar
   107   105   103    1
   108   103   104    1
   109   134   142   am
   110    96    98   ar
   111    33    34    1
   112     4     3    2
   113   189   188    2
   114   193   188   am
   115   220   218   ar
   116     3     2    1
   117   142   143    1
   118   104   106    1
   119   188   187    1
   120    34    35    2
   121    34    40   am
   122   145   144    2
   123   143   144    1
   124     8     6    1
   125   192   190    1
   126   144   146   am
   127   219   218   ar
   128   218   217    1
   129     6     5    1
   130    52    51    1
   131    40    41    1
   132   152   150    1
   133     2     5    1
   134     2     1    1
   135   190   187    1
   136   190   191    1
   137   187   186    1
   138     5     7    1
   139   146   147    1
   140   147   150    1
   141   147   148    1
   142   217   214    1
   143   215   216    2
   144   215   214    1
   145    43    42    2
   146   150   151    1
   147    41    42    1
   148    41    44    1
   149    51    53    1
   150    51    48    1
   151   201   202    1
   152    42    47   am
   153   214   213    1
   154   213   203   am
   155    47    48    1
   156   148   149    2
   157   148   153   am
   158    48    49    1
   159    44    45    1
   160    44    46    1
   161   153   154    1
   162   203   202    1
   163   203   204    2
   164   202   205    1
   165   209   207   ar
   166   209   211   ar
   167   207   206   ar
   168   157   154    1
   169   221   222    1
   170   154   155    1
   171    49    50    2
   172   205   206    1
   173   212   211    1
   174   211   210   ar
   175   206   208   ar
   176   177   176    2
   177   155   156    2
   178   155   158   am
   179   223   222    1
   180   223   224    2
   181   208   210   ar
   182   178   179    1
   183   178   175    1
   184   222   225    1
   185   226   225    1
   186   226   227    1
   187   181   179   ar
   188   181   183   ar
   189   176   175    1
   190   158   164    1
   191   158   159    1
   192   164   163    1
   193   179   180   ar
   194   183   184   ar
   195   230   229    1
   196   163   162    1
   197   227   228    1
   198   175   174    1
   199   159   162    1
   200   159   160    1
   201   174   167   am
   202   180   182   ar
   203   184   182   ar
   204   184   185    1
   205   229   228    2
   206   229   231    1
   207   160   161    2
   208   160   165   am
   209    54    55    1
   210    60    58    1
   211   165   166    1
   212    55    58    1
   213    55    56    1
   214   167   166    1
   215   167   168    2
   216   170   171    1
   217   170   169    1
   218   166   169    1
   219    58    59    1
   220    56    57    2
   221   172   171    1
   222   172   173    1
