@<TRIPOS>MOLECULE
tmp/4aj3A01.pdb
 128 119 0 0 0
SMALL
GASTEIGER

@<TRIPOS>ATOM
      1  N        -44.8590  -15.7650   -3.3400 N.3   103  LEU103     -0.1245
      2  CA       -46.0840  -16.1400   -2.6250 C.3   103  LEU103      0.1561
      3  C        -45.7410  -16.8860   -1.3370 C.2   103  LEU103      0.2260
      4  O        -44.8320  -17.7200   -1.3100 O.2   103  LEU103     -0.2867
      5  CB       -47.0050  -17.0040   -3.5130 C.3   103  LEU103      0.0270
      6  CG       -47.5880  -16.3160   -4.7470 C.3   103  LEU103      0.0019
      7  CD1      -48.3580  -17.3080   -5.6260 C.3   103  LEU103      0.0001
      8  CD2      -48.4790  -15.1260   -4.3350 C.3   103  LEU103      0.0001
      9  N        -45.8430  -19.5060    1.5720 N.3   105  THR105     -0.1218
     10  CA       -46.2510  -20.8670    1.9260 C.3   105  THR105      0.1862
     11  C        -45.9980  -21.1180    3.4220 C.2   105  THR105      0.2287
     12  O        -44.8690  -20.9660    3.9090 O.2   105  THR105     -0.2866
     13  CB       -45.4900  -21.9320    1.1070 C.3   105  THR105      0.1770
     14  OG1      -45.6160  -21.6380   -0.2930 O.3   105  THR105     -0.2211
     15  CG2      -46.0470  -23.3360    1.3940 C.3   105  THR105      0.0375
     16  N        -48.0780  -25.0000   -1.1370 N.3   113  SER113     -0.1217
     17  CA       -47.4860  -23.9070   -1.9140 C.3   113  SER113      0.1889
     18  C        -48.2510  -23.5370   -3.1820 C.2   113  SER113      0.2288
     19  O        -48.4740  -24.3690   -4.0630 O.2   113  SER113     -0.2866
     20  CB       -46.0500  -24.2450   -2.3150 C.3   113  SER113      0.2089
     21  OG       -45.5480  -23.2530   -3.2070 O.3   113  SER113     -0.2183
     22  N        -46.9290  -21.4330   -5.2620 N.3   115  ASN115     -0.1225
     23  CA       -45.8670  -21.3860   -6.2560 C.3   115  ASN115      0.1785
     24  C        -45.7290  -22.7330   -6.9370 C.2   115  ASN115      0.2597
     25  O        -45.6730  -22.8270   -8.1680 O.2   115  ASN115     -0.2718
     26  CB       -44.5580  -20.9700   -5.5960 C.3   115  ASN115      0.1169
     27  CG       -44.6960  -19.6740   -4.8460 C.2   115  ASN115      0.2627
     28  OD1      -45.1290  -18.6720   -5.4100 O.2   115  ASN115     -0.2716
     29  ND2      -44.3680  -19.6900   -3.5550 N.am  115  ASN115     -0.0877
     30  N        -45.7050  -23.7840   -6.1270 N.am  116  VAL116     -0.1980
     31  CA       -45.7040  -25.1380   -6.6480 C.3   116  VAL116      0.1595
     32  C        -47.0100  -25.4530   -7.3930 C.2   116  VAL116      0.2287
     33  O        -46.9810  -26.0670   -8.4570 O.2   116  VAL116     -0.2864
     34  CB       -45.4340  -26.1760   -5.5320 C.3   116  VAL116      0.0276
     35  CG1      -45.6090  -27.5880   -6.0720 C.3   116  VAL116      0.0022
     36  CG2      -44.0150  -25.9680   -4.9650 C.3   116  VAL116      0.0022
     37  N        -46.6910  -23.9840  -10.8640 N.3   119  ARG119     -0.1245
     38  CA       -45.7640  -24.7810  -11.6670 C.3   119  ARG119      0.1563
     39  C        -46.3740  -26.1210  -12.0860 C.2   119  ARG119      0.2260
     40  O        -46.2260  -26.5620  -13.2310 O.2   119  ARG119     -0.2867
     41  CB       -44.4610  -25.0320  -10.8990 C.3   119  ARG119      0.0307
     42  CG       -43.7200  -23.7610  -10.4870 C.3   119  ARG119      0.0489
     43  CD       -42.6180  -24.0610   -9.4480 C.3   119  ARG119      0.2205
     44  NE       -41.9350  -22.8370   -9.0220 N.pl3 119  ARG119     -0.0865
     45  CZ       -41.2980  -22.6860   -7.8600 C.cat 119  ARG119      0.5346
     46  NH1      -41.2390  -23.6900   -6.9840 N.pl3 119  ARG119      0.1354
     47  NH2      -40.7200  -21.5230   -7.5720 N.pl3 119  ARG119      0.1354
     48  N        -32.8030  -20.7670  -13.6470 N.3   129  ARG129     -0.1245
     49  CA       -32.2210  -19.7040  -12.8250 C.3   129  ARG129      0.1563
     50  C        -30.7560  -19.4080  -13.1670 C.2   129  ARG129      0.2260
     51  O        -29.8370  -20.1220  -12.7350 O.2   129  ARG129     -0.2867
     52  CB       -32.3870  -20.0320  -11.3370 C.3   129  ARG129      0.0307
     53  CG       -33.8510  -19.8850  -10.8540 C.3   129  ARG129      0.0489
     54  CD       -34.0990  -20.5810   -9.5270 C.3   129  ARG129      0.2205
     55  NE       -35.4200  -20.2650   -8.9820 N.pl3 129  ARG129     -0.0865
     56  CZ       -35.8770  -20.7370   -7.8220 C.cat 129  ARG129      0.5346
     57  NH1      -35.1170  -21.5440   -7.1030 N.pl3 129  ARG129      0.1354
     58  NH2      -37.0890  -20.4020   -7.3840 N.pl3 129  ARG129      0.1354
     59  N        -33.5630  -26.6110  -13.0660 N.3   153  ARG153     -0.1245
     60  CA       -34.1200  -27.3560  -11.9510 C.3   153  ARG153      0.1563
     61  C        -35.4290  -28.0190  -12.3870 C.2   153  ARG153      0.2260
     62  O        -36.3460  -27.3530  -12.8590 O.2   153  ARG153     -0.2867
     63  CB       -34.3590  -26.4020  -10.7810 C.3   153  ARG153      0.0307
     64  CG       -35.3020  -26.9060   -9.6950 C.3   153  ARG153      0.0489
     65  CD       -35.6580  -25.7640   -8.7480 C.3   153  ARG153      0.2205
     66  NE       -36.6250  -26.1680   -7.7310 N.pl3 153  ARG153     -0.0865
     67  CZ       -37.2570  -25.3200   -6.9220 C.cat 153  ARG153      0.5346
     68  NH1      -37.0370  -24.0170   -7.0290 N.pl3 153  ARG153      0.1354
     69  NH2      -38.1060  -25.7710   -6.0030 N.pl3 153  ARG153      0.1354
     70  N        -41.0100  -32.7370   -3.8690 N.3   160  TYR160     -0.1241
     71  CA       -41.8460  -31.5570   -4.0560 C.3   160  TYR160      0.1605
     72  C        -43.2590  -31.8430   -4.5050 C.2   160  TYR160      0.2264
     73  O        -44.1030  -30.9540   -4.4750 O.2   160  TYR160     -0.2867
     74  CB       -41.2140  -30.6510   -5.1010 C.3   160  TYR160      0.0534
     75  CG       -40.4780  -29.4990   -4.5040 C.ar  160  TYR160     -0.0201
     76  CD1      -39.2170  -29.6740   -3.9550 C.ar  160  TYR160     -0.0009
     77  CD2      -41.0460  -28.2270   -4.4830 C.ar  160  TYR160     -0.0009
     78  CE1      -38.5360  -28.6150   -3.4050 C.ar  160  TYR160      0.0417
     79  CE2      -40.3720  -27.1680   -3.9390 C.ar  160  TYR160      0.0417
     80  CZ       -39.1140  -27.3710   -3.4010 C.ar  160  TYR160      0.1957
     81  OH       -38.4390  -26.3100   -2.8540 O.3   160  TYR160     -0.2866
     82  N        -33.5200  -26.2550   -5.7230 N.3   307  ASP307     -0.1239
     83  CA       -33.9660  -25.2700   -4.7440 C.3   307  ASP307      0.1674
     84  C        -32.7790  -24.8250   -3.8860 C.2   307  ASP307      0.2266
     85  O        -32.5040  -23.6320   -3.7390 O.2   307  ASP307     -0.2867
     86  CB       -35.0570  -25.9010   -3.8640 C.3   307  ASP307      0.1410
     87  CG       -35.6300  -24.9330   -2.8570 C.2   307  ASP307      0.3668
     88  OD1      -35.8800  -23.7770   -3.2350 O.co2 307  ASP307     -0.2456
     89  OD2      -35.8190  -25.3170   -1.6850 O.co2 307  ASP307     -0.2456
     90  N        -30.1180  -20.9120   -3.9710 N.3   311  ASP311     -0.1239
     91  CA       -29.7820  -19.9570   -2.9160 C.3   311  ASP311      0.1674
     92  C        -28.2890  -19.9670   -2.6200 C.2   311  ASP311      0.2266
     93  O        -27.6880  -18.9200   -2.4010 O.2   311  ASP311     -0.2867
     94  CB       -30.5860  -20.2120   -1.6210 C.3   311  ASP311      0.1410
     95  CG       -32.0700  -19.8270   -1.7560 C.2   311  ASP311      0.3668
     96  OD1      -32.6390  -20.0310   -2.8430 O.co2 311  ASP311     -0.2456
     97  OD2      -32.6640  -19.3080   -0.7790 O.co2 311  ASP311     -0.2456
     98  N        -40.1920  -15.1930  -12.4100 N.3   336  GLU336     -0.1231
     99  CA       -40.3100  -15.2380  -10.9530 C.3   336  GLU336      0.1699
    100  C        -38.9330  -15.1690  -10.2930 C.2   336  GLU336      0.2592
    101  O        -38.0220  -15.9060  -10.6890 O.2   336  GLU336     -0.2718
    102  CB       -40.9780  -16.5660  -10.5650 C.3   336  GLU336      0.0402
    103  CG       -41.1790  -16.7850   -9.0680 C.3   336  GLU336      0.1161
    104  CD       -41.5160  -18.2440   -8.7300 C.2   336  GLU336      0.3649
    105  OE1      -40.8360  -19.1710   -9.2400 O.co2 336  GLU336     -0.2457
    106  OE2      -42.4640  -18.4650   -7.9450 O.co2 336  GLU336     -0.2457
    107  N        -38.7690  -14.3040   -9.2920 N.am  337  ALA337     -0.1966
    108  CA       -37.4930  -14.2430   -8.5750 C.3   337  ALA337      0.1728
    109  C        -37.2740  -15.5230   -7.7870 C.2   337  ALA337      0.2617
    110  O        -38.2250  -16.2360   -7.4600 O.2   337  ALA337     -0.2715
    111  CB       -37.4340  -13.0350   -7.6400 C.3   337  ALA337      0.0334
    112  N        -36.0170  -15.8080   -7.4710 N.am  338  THR338     -0.1937
    113  CA       -35.7040  -16.9520   -6.6310 C.3   338  THR338      0.2028
    114  C        -36.2250  -16.7700   -5.2040 C.2   338  THR338      0.2642
    115  O        -36.6450  -17.7340   -4.5730 O.2   338  THR338     -0.2714
    116  CB       -34.1820  -17.2240   -6.6180 C.3   338  THR338      0.1808
    117  OG1      -33.7850  -17.6910   -7.9120 O.3   338  THR338     -0.2208
    118  CG2      -33.8180  -18.2760   -5.5760 C.3   338  THR338      0.0379
    119  N        -36.2010  -15.5350   -4.7060 N.am  339  HIS339     -0.1973
    120  CA       -36.5210  -15.2720   -3.3050 C.3   339  HIS339      0.1656
    121  C        -38.0100  -15.3640   -2.9600 C.2   339  HIS339      0.2291
    122  O        -38.8820  -15.3750   -3.8410 O.2   339  HIS339     -0.2864
    123  CB       -35.9970  -13.8990   -2.8870 C.3   339  HIS339      0.0771
    124  CG       -36.7080  -12.7540   -3.5400 C.ar  339  HIS339      0.0820
    125  ND1      -38.0030  -12.4040   -3.2270 N.ar  339  HIS339     -0.2267
    126  CD2      -36.3040  -11.8840   -4.5000 C.ar  339  HIS339      0.1154
    127  CE1      -38.3670  -11.3620   -3.9570 C.ar  339  HIS339      0.1986
    128  NE2      -37.3530  -11.0230   -4.7320 N.ar  339  HIS339     -0.2212
@<TRIPOS>BOND
     1    48    49    1
     2    40    39    2
     3    50    49    1
     4    50    51    2
     5    59    60    1
     6    62    61    2
     7    49    52    1
     8    98    99    1
     9    61    60    1
    10    39    38    1
    11    60    63    1
    12    38    41    1
    13    38    37    1
    14    52    53    1
    15    99   102    1
    16    99   100    1
    17    41    42    1
    18    53    54    1
    19    63    64    1
    20   101   100    2
    21   102   103    1
    22    42    43    1
    23   100   107   am
    24    64    65    1
    25    54    55    1
    26    43    44    1
    27   107   108    1
    28   105   104   ar
    29   103   104    1
    30    44    45    2
    31    55    56    2
    32    65    66    1
    33   104   106   ar
    34   108   109    1
    35   108   111    1
    36    33    32    2
    37    25    24    2
    38   117   116    1
    39    45    47    1
    40    45    46    1
    41    56    58    1
    42    56    57    1
    43   109   112   am
    44   109   110    2
    45    66    67    2
    46   112   113    1
    47    32    31    1
    48    68    67    1
    49    24    23    1
    50    24    30   am
    51    67    69    1
    52    31    30    1
    53    31    34    1
    54   113   116    1
    55   113   114    1
    56   116   118    1
    57    23    26    1
    58    23    22    1
    59    35    34    1
    60    82    83    1
    61     7     6    1
    62    26    27    1
    63    34    36    1
    64    28    27    2
    65   114   119   am
    66   114   115    2
    67    74    75    1
    68    74    71    1
    69    27    29   am
    70     6     8    1
    71     6     5    1
    72    83    84    1
    73    83    86    1
    74   128   126   ar
    75   128   127   ar
    76   119   120    1
    77    72    73    2
    78    72    71    1
    79    75    77   ar
    80    75    76   ar
    81   126   124   ar
    82    77    79   ar
    83    19    18    2
    84    71    70    1
    85    90    91    1
    86   127   125   ar
    87    76    78   ar
    88    79    80   ar
    89    84    85    2
    90    86    87    1
    91   122   121    2
    92   124   125   ar
    93   124   123    1
    94     5     2    1
    95    78    80   ar
    96    80    81    1
    97     1     2    1
    98   120   121    1
    99   120   123    1
   100    88    87   ar
   101    21    20    1
   102    18    17    1
   103    91    92    1
   104    91    94    1
   105    87    89   ar
   106    96    95   ar
   107     2     3    1
   108    92    93    2
   109    20    17    1
   110    17    16    1
   111    95    94    1
   112    95    97   ar
   113     3     4    2
   114    14    13    1
   115    13    15    1
   116    13    10    1
   117     9    10    1
   118    10    11    1
   119    11    12    2
