@<TRIPOS>MOLECULE
tmp/4aj4D02.pdb
 132 126 0 0 0
SMALL
GASTEIGER

@<TRIPOS>ATOM
      1  N          6.6600   -0.5410   54.4020 N.3    24  VAL24      -0.1231
      2  CA         6.6730   -0.3020   55.8280 C.3    24  VAL24       0.1692
      3  C          8.0790   -0.5910   56.3940 C.2    24  VAL24       0.2593
      4  O          8.5970   -1.7030   56.3060 O.2    24  VAL24      -0.2718
      5  CB         5.6060   -1.1410   56.5320 C.3    24  VAL24       0.0266
      6  CG1        5.5310   -0.7740   58.0010 C.3    24  VAL24       0.0020
      7  CG2        4.2760   -0.9830   55.8350 C.3    24  VAL24       0.0020
      8  N          8.6750    0.4300   56.9810 N.am   25  GLY25      -0.1942
      9  CA        10.0140    0.3380   57.5450 C.3    25  GLY25       0.2014
     10  C         10.9680    1.0360   56.5880 C.2    25  GLY25       0.2639
     11  O         11.0320    0.6780   55.4360 O.2    25  GLY25      -0.2714
     12  N         11.6580    2.0780   57.0640 N.am   26  VAL26      -0.1963
     13  CA        12.6040    2.8240   56.2370 C.3    26  VAL26       0.1727
     14  C         14.0220    2.6930   56.8090 C.2    26  VAL26       0.2617
     15  O         14.8510    3.6010   56.7000 O.2    26  VAL26      -0.2715
     16  CB        12.1850    4.3040   56.0820 C.3    26  VAL26       0.0290
     17  CG1       10.8380    4.3880   55.3930 C.3    26  VAL26       0.0023
     18  CG2       12.1860    5.0370   57.4320 C.3    26  VAL26       0.0023
     19  N         14.3140    1.5400   57.3900 N.am   27  GLY27      -0.1940
     20  CA        15.7050    1.1830   57.6990 C.3    27  GLY27       0.2014
     21  C         16.4180    0.8710   56.4040 C.2    27  GLY27       0.2638
     22  O         15.9200    1.1890   55.3080 O.2    27  GLY27      -0.2714
     23  N         17.5590    0.2050   56.5050 N.am   28  ALA28      -0.1977
     24  CA        18.3760   -0.0540   55.3190 C.3    28  ALA28       0.1597
     25  C         17.6270   -0.9480   54.3030 C.2    28  ALA28       0.2287
     26  O         17.5950   -0.6220   53.1260 O.2    28  ALA28      -0.2864
     27  CB        19.7260   -0.6530   55.7180 C.3    28  ALA28       0.0319
     28  N          6.0560    4.1140   55.5370 N.3    49  VAL49      -0.1231
     29  CA         5.5600    4.2060   56.9110 C.3    49  VAL49       0.1692
     30  C          6.6390    3.7330   57.8670 C.2    49  VAL49       0.2592
     31  O          7.2810    2.7300   57.6310 O.2    49  VAL49      -0.2718
     32  CB         4.2590    3.3930   57.1320 C.3    49  VAL49       0.0266
     33  CG1        3.8280    3.4760   58.6020 C.3    49  VAL49       0.0020
     34  CG2        3.1700    3.9080   56.1910 C.3    49  VAL49       0.0020
     35  N          6.8490    4.4970   58.9340 N.am   50  ASP50      -0.1960
     36  CA         7.7420    4.0840   60.0140 C.3    50  ASP50       0.1840
     37  C          7.2960    4.8500   61.2600 C.2    50  ASP50       0.2621
     38  O          6.3300    5.6330   61.1910 O.2    50  ASP50      -0.2715
     39  CB         9.2010    4.3650   59.6250 C.3    50  ASP50       0.1450
     40  CG        10.1920    3.5320   60.4110 C.2    50  ASP50       0.3671
     41  OD1       10.2050    3.6110   61.6580 O.co2  50  ASP50      -0.2456
     42  OD2       10.9690    2.7960   59.7920 O.co2  50  ASP50      -0.2456
     43  N          7.9850    4.6480   62.3840 N.am   51  VAL51      -0.1977
     44  CA         7.5920    5.2790   63.6390 C.3    51  VAL51       0.1596
     45  C          8.4980    6.4270   64.0950 C.2    51  VAL51       0.2287
     46  O          8.0940    7.1840   64.9750 O.2    51  VAL51      -0.2864
     47  CB         7.4510    4.2430   64.7660 C.3    51  VAL51       0.0276
     48  CG1        6.2990    3.3050   64.4290 C.3    51  VAL51       0.0022
     49  CG2        8.7600    3.4800   64.9760 C.3    51  VAL51       0.0022
     50  N         13.3210   10.6040   60.6510 N.3    55  LYS55      -0.1245
     51  CA        13.9330    9.6800   59.6970 C.3    55  LYS55       0.1561
     52  C         12.9880    9.3880   58.5080 C.2    55  LYS55       0.2260
     53  O         13.3970    9.3820   57.3480 O.2    55  LYS55      -0.2867
     54  CB        14.2860    8.3920   60.4470 C.3    55  LYS55       0.0271
     55  CG        14.7310    7.2080   59.6170 C.3    55  LYS55       0.0035
     56  CD        16.0340    7.4740   58.8870 C.3    55  LYS55       0.0206
     57  CE        16.6920    6.1900   58.4050 C.3    55  LYS55       0.1093
     58  NZ        17.8630    6.4870   57.5280 N.3    55  LYS55      -0.1314
     59  N         -1.2750    5.0120   58.9630 N.3    81  TYR81      -0.1241
     60  CA        -1.4890    4.0670   57.8340 C.3    81  TYR81       0.1605
     61  C         -2.5780    4.5040   56.8480 C.2    81  TYR81       0.2264
     62  O         -2.6930    3.9540   55.7560 O.2    81  TYR81      -0.2867
     63  CB        -1.7180    2.6430   58.3420 C.3    81  TYR81       0.0534
     64  CG        -0.4570    1.9970   58.8640 C.ar   81  TYR81      -0.0201
     65  CD1        0.0400    2.3060   60.1360 C.ar   81  TYR81      -0.0009
     66  CD2        0.2640    1.0900   58.0790 C.ar   81  TYR81      -0.0009
     67  CE1        1.2000    1.7120   60.6190 C.ar   81  TYR81       0.0417
     68  CE2        1.4220    0.4890   58.5600 C.ar   81  TYR81       0.0417
     69  CZ         1.8830    0.8050   59.8280 C.ar   81  TYR81       0.1957
     70  OH         3.0310    0.2130   60.2860 O.3    81  TYR81      -0.2866
     71  N          8.9860   -4.4660   55.9590 N.3    93  THR93      -0.1203
     72  CA        10.3730   -4.6860   56.2620 C.3    93  THR93       0.1994
     73  C         10.6900   -4.2780   57.6940 C.2    93  THR93       0.2618
     74  O         11.8370   -4.3360   58.0930 O.2    93  THR93      -0.2717
     75  CB        11.2480   -3.8600   55.3240 C.3    93  THR93       0.1784
     76  OG1       11.1540   -2.4720   55.6780 O.3    93  THR93      -0.2211
     77  CG2       10.8150   -4.0890   53.8480 C.3    93  THR93       0.0376
     78  N          9.6840   -3.8640   58.4630 N.am   94  ALA94      -0.1965
     79  CA         9.9230   -3.2510   59.7890 C.3    94  ALA94       0.1728
     80  C         10.3130   -4.3190   60.7630 C.2    94  ALA94       0.2616
     81  O          9.9740   -5.4880   60.5860 O.2    94  ALA94      -0.2715
     82  CB         8.6880   -2.5240   60.2960 C.3    94  ALA94       0.0334
     83  N         11.0310   -3.9140   61.7950 N.am   95  GLY95      -0.1955
     84  CA        11.3220   -4.7890   62.9280 C.3    95  GLY95       0.1869
     85  C         12.7830   -4.7700   63.3090 C.2    95  GLY95       0.2309
     86  O         13.6130   -4.2170   62.6070 O.2    95  GLY95      -0.2863
     87  N         16.4010   -6.2970   63.5170 N.3    97  ARG97      -0.1245
     88  CA        17.1630   -7.0650   62.5300 C.3    97  ARG97       0.1563
     89  C         18.3910   -7.6400   63.2140 C.2    97  ARG97       0.2260
     90  O         18.7440   -7.2140   64.3290 O.2    97  ARG97      -0.2867
     91  CB        17.5800   -6.1800   61.3600 C.3    97  ARG97       0.0307
     92  CG        18.6680   -5.1770   61.7280 C.3    97  ARG97       0.0489
     93  CD        18.8740   -4.1670   60.6120 C.3    97  ARG97       0.2205
     94  NE        20.1980   -3.5480   60.6850 N.pl3  97  ARG97      -0.0865
     95  CZ        20.5370   -2.5370   61.4860 C.cat  97  ARG97       0.5346
     96  NH1       19.6530   -1.9890   62.3260 N.pl3  97  ARG97       0.1354
     97  NH2       21.7790   -2.0600   61.4430 N.pl3  97  ARG97       0.1354
     98  N          5.5460   -8.8520   68.0870 N.3   113  ASN113     -0.1225
     99  CA         4.8580   -7.7490   68.8030 C.3   113  ASN113      0.1785
    100  C          4.6020   -6.5340   67.9370 C.2   113  ASN113      0.2597
    101  O          3.5500   -5.9120   68.0230 O.2   113  ASN113     -0.2718
    102  CB         5.6310   -7.3050   70.0400 C.3   113  ASN113      0.1169
    103  CG         5.4170   -8.2210   71.2170 C.2   113  ASN113      0.2627
    104  OD1        6.1120   -8.1160   72.1980 O.2   113  ASN113     -0.2716
    105  ND2        4.4620   -9.1440   71.1100 N.am  113  ASN113     -0.0877
    106  N          5.5820   -6.2100   67.1110 N.am  114  ILE114     -0.1980
    107  CA         5.4810   -5.1240   66.1540 C.3   114  ILE114      0.1595
    108  C          4.4370   -5.4630   65.0900 C.2   114  ILE114      0.2287
    109  O          3.6870   -4.6010   64.6940 O.2   114  ILE114     -0.2864
    110  CB         6.8710   -4.8550   65.5220 C.3   114  ILE114      0.0276
    111  CG1        7.7990   -4.2460   66.5970 C.3   114  ILE114      0.0022
    112  CG2        6.7730   -3.9970   64.2580 C.3   114  ILE114      0.0022
    113  CD1        9.2710   -4.2480   66.2240 C.3   114  ILE114      0.0001
    114  N          0.7440   -4.6330   65.7760 N.3   117  PHE117     -0.1227
    115  CA         0.3510   -3.2440   65.4800 C.3   117  PHE117      0.1736
    116  C          0.2120   -3.0830   63.9830 C.2   117  PHE117      0.2595
    117  O         -0.8080   -2.6030   63.4950 O.2   117  PHE117     -0.2718
    118  CB         1.4170   -2.2230   65.9800 C.3   117  PHE117      0.0547
    119  CG         1.0590   -0.7500   65.7190 C.ar  117  PHE117     -0.0202
    120  CD1        0.1700   -0.0710   66.5580 C.ar  117  PHE117     -0.0042
    121  CD2        1.6220   -0.0360   64.6390 C.ar  117  PHE117     -0.0042
    122  CE1       -0.1680    1.2610   66.3280 C.ar  117  PHE117     -0.0003
    123  CE2        1.2870    1.3090   64.4150 C.ar  117  PHE117     -0.0003
    124  CZ         0.3930    1.9480   65.2640 C.ar  117  PHE117     -0.0000
    125  N          1.2560   -3.4830   63.2660 N.am  118  ILE118     -0.1980
    126  CA         1.3590   -3.2040   61.8460 C.3   118  ILE118      0.1595
    127  C          0.2740   -3.7950   60.9590 C.2   118  ILE118      0.2287
    128  O         -0.3660   -3.0690   60.1800 O.2   118  ILE118     -0.2864
    129  CB         2.7270   -3.6450   61.2710 C.3   118  ILE118      0.0276
    130  CG1        3.8550   -2.8220   61.9090 C.3   118  ILE118      0.0022
    131  CG2        2.6920   -3.4940   59.7500 C.3   118  ILE118      0.0022
    132  CD1        5.1700   -2.8720   61.1390 C.3   118  ILE118      0.0001
@<TRIPOS>BOND
     1    26    25    2
     2    77    75    1
     3    25    24    1
     4     1     2    1
     5    22    21    2
     6    24    27    1
     7    24    23    1
     8    75    76    1
     9    75    72    1
    10    17    16    1
    11    11    10    2
    12    28    29    1
    13    62    61    2
    14     2     3    1
    15     2     5    1
    16     7     5    1
    17    71    72    1
    18    16    13    1
    19    16    18    1
    20    34    32    1
    21    13    14    1
    22    13    12    1
    23    72    73    1
    24     4     3    2
    25     3     8   am
    26    21    23   am
    27    21    20    1
    28     5     6    1
    29    10    12   am
    30    10     9    1
    31    15    14    2
    32    14    19   am
    33    61    60    1
    34    29    32    1
    35    29    30    1
    36     8     9    1
    37    32    33    1
    38    53    52    2
    39    19    20    1
    40    58    57    1
    41    31    30    2
    42    73    74    2
    43    73    78   am
    44    60    63    1
    45    60    59    1
    46    30    35   am
    47    66    68   ar
    48    66    64   ar
    49    63    64    1
    50    57    56    1
    51    78    79    1
    52    52    51    1
    53    68    69   ar
    54    64    65   ar
    55    56    55    1
    56    35    36    1
    57    55    54    1
    58    39    36    1
    59    39    40    1
    60    51    54    1
    61    51    50    1
    62   131   129    1
    63    79    82    1
    64    79    80    1
    65    42    40   ar
    66    69    70    1
    67    69    67   ar
    68    36    37    1
    69    65    67   ar
    70   128   127    2
    71    40    41   ar
    72    81    80    2
    73    93    94    1
    74    93    92    1
    75    94    95    2
    76    80    83   am
    77   127   126    1
    78   132   130    1
    79    38    37    2
    80    37    43   am
    81   129   126    1
    82   129   130    1
    83    91    92    1
    84    91    88    1
    85    97    95    1
    86    95    96    1
    87    83    84    1
    88   126   125    1
    89    43    44    1
    90    88    89    1
    91    88    87    1
    92    86    85    2
    93    84    85    1
    94    89    90    2
    95   125   116   am
    96   117   116    2
    97    44    45    1
    98    44    47    1
    99   116   115    1
   100    45    46    2
   101   112   110    1
   102   123   121   ar
   103   123   124   ar
   104    48    47    1
   105   121   119   ar
   106   109   108    2
   107    47    49    1
   108   108   107    1
   109   124   122   ar
   110   115   114    1
   111   115   118    1
   112   110   107    1
   113   110   111    1
   114   119   118    1
   115   119   120   ar
   116   107   106    1
   117   113   111    1
   118   122   120   ar
   119   106   100   am
   120   100   101    2
   121   100    99    1
   122    98    99    1
   123    99   102    1
   124   102   103    1
   125   105   103   am
   126   103   104    2
