@<TRIPOS>MOLECULE
tmp/4aj6B00.pdb
 84 77 0 0 0
SMALL
GASTEIGER

@<TRIPOS>ATOM
      1  N        -34.0690   -3.5680   -5.2050 N.3     8  GLN8       -0.1245
      2  CA       -33.1010   -4.3830   -5.9210 C.3     8  GLN8        0.1566
      3  C        -33.2100   -4.1800   -7.4210 C.2     8  GLN8        0.2260
      4  O        -32.2400   -3.9530   -8.0970 O.2     8  GLN8       -0.2867
      5  CB       -33.2360   -5.8580   -5.5490 C.3     8  GLN8        0.0367
      6  CG       -32.7930   -6.1650   -4.1300 C.3     8  GLN8        0.0905
      7  CD       -32.9280   -7.6210   -3.7300 C.2     8  GLN8        0.2608
      8  OE1      -33.9660   -8.2530   -3.9230 O.2     8  GLN8       -0.2717
      9  NE2      -31.8700   -8.1560   -3.1860 N.am    8  GLN8       -0.0878
     10  N        -32.1960   -0.8330   -8.5570 N.3    11  PHE11      -0.1227
     11  CA       -30.7530   -0.7900   -8.5580 C.3    11  PHE11       0.1736
     12  C        -30.2420   -1.2600   -9.9220 C.2    11  PHE11       0.2596
     13  O        -29.4210   -0.6210  -10.5490 O.2    11  PHE11      -0.2718
     14  CB       -30.1890   -1.6630   -7.4150 C.3    11  PHE11       0.0547
     15  CG       -28.7470   -1.3770   -7.0500 C.ar   11  PHE11      -0.0202
     16  CD1      -28.0000   -0.4540   -7.7250 C.ar   11  PHE11      -0.0042
     17  CD2      -28.1340   -2.0660   -6.0250 C.ar   11  PHE11      -0.0042
     18  CE1      -26.7040   -0.2280   -7.3820 C.ar   11  PHE11      -0.0003
     19  CE2      -26.8500   -1.8310   -5.7000 C.ar   11  PHE11      -0.0003
     20  CZ       -26.1380   -0.9100   -6.3780 C.ar   11  PHE11      -0.0000
     21  N        -30.7780   -2.3770  -10.3660 N.am   12  THR12      -0.1953
     22  CA       -30.3270   -2.9990  -11.5830 C.3    12  THR12       0.1897
     23  C        -30.6680   -2.1380  -12.8020 C.2    12  THR12       0.2313
     24  O        -29.8490   -1.9730  -13.6770 O.2    12  THR12      -0.2863
     25  CB       -30.8370   -4.4520  -11.6680 C.3    12  THR12       0.1794
     26  OG1      -30.0420   -5.2810  -10.8150 O.3    12  THR12      -0.2208
     27  CG2      -30.7370   -4.9640  -13.0620 C.3    12  THR12       0.0378
     28  N        -28.1620    0.5700  -12.9390 N.3    15  LEU15      -0.1245
     29  CA       -26.8940    0.0150  -13.3680 C.3    15  LEU15       0.1561
     30  C        -26.8410   -0.2000  -14.8610 C.2    15  LEU15       0.2260
     31  O        -25.8440    0.0710  -15.4770 O.2    15  LEU15      -0.2867
     32  CB       -26.5790   -1.2810  -12.6540 C.3    15  LEU15       0.0270
     33  CG       -26.1710   -1.1350  -11.1990 C.3    15  LEU15       0.0019
     34  CD1      -26.1260   -2.4730  -10.5730 C.3    15  LEU15       0.0001
     35  CD2      -24.8520   -0.4110  -11.1010 C.3    15  LEU15       0.0001
     36  N        -30.4070   -5.0660   -0.1720 N.3    65  ILE65      -0.1245
     37  CA       -29.2910   -4.5430   -0.9510 C.3    65  ILE65       0.1561
     38  C        -28.0250   -4.4050   -0.1050 C.2    65  ILE65       0.2260
     39  O        -26.9370   -4.7210   -0.5450 O.2    65  ILE65      -0.2867
     40  CB       -29.6380   -3.1900   -1.6120 C.3    65  ILE65       0.0252
     41  CG1      -30.9300   -3.3100   -2.4270 C.3    65  ILE65       0.0019
     42  CG2      -28.4980   -2.7270   -2.4660 C.3    65  ILE65       0.0019
     43  CD1      -31.3090   -2.1060   -3.2060 C.3    65  ILE65       0.0001
     44  N        -26.6860   -7.8780    0.4030 N.3    68  ASP68      -0.1225
     45  CA       -26.1350   -8.3780   -0.8450 C.3    68  ASP68       0.1805
     46  C        -24.7540   -7.8270   -1.1190 C.2    68  ASP68       0.2597
     47  O        -23.9760   -8.4240   -1.8340 O.2    68  ASP68      -0.2718
     48  CB       -27.0380   -8.0270   -2.0110 C.3    68  ASP68       0.1424
     49  CG       -28.3100   -8.8500   -2.0490 C.2    68  ASP68       0.3668
     50  OD1      -28.3980   -9.8680   -1.3640 O.co2  68  ASP68      -0.2456
     51  OD2      -29.2260   -8.4550   -2.7740 O.co2  68  ASP68      -0.2456
     52  N        -24.4480   -6.6800   -0.5330 N.am   69  ASN69      -0.1974
     53  CA       -23.1900   -6.0190   -0.8120 C.3    69  ASN69       0.1688
     54  C        -22.1820   -6.0400    0.3250 C.2    69  ASN69       0.2292
     55  O        -21.1970   -5.3190    0.3060 O.2    69  ASN69      -0.2864
     56  CB       -23.4390   -4.6110   -1.3350 C.3    69  ASN69       0.1181
     57  CG       -23.9200   -4.6130   -2.7430 C.2    69  ASN69       0.2629
     58  OD1      -23.1430   -4.6130   -3.6750 O.2    69  ASN69      -0.2716
     59  ND2      -25.2090   -4.6210   -2.9030 N.am   69  ASN69      -0.0877
     60  N        -19.3850    2.1160   -3.1430 N.3    78  LEU78      -0.1245
     61  CA       -19.1270    1.0680   -4.0880 C.3    78  LEU78       0.1561
     62  C        -18.9240    1.6390   -5.4930 C.2    78  LEU78       0.2260
     63  O        -19.6910    2.4600   -5.9560 O.2    78  LEU78      -0.2867
     64  CB       -20.2600    0.0680   -4.0610 C.3    78  LEU78       0.0270
     65  CG       -20.2130   -1.0150   -5.1220 C.3    78  LEU78       0.0019
     66  CD1      -18.9950   -1.8790   -4.9190 C.3    78  LEU78       0.0001
     67  CD2      -21.4830   -1.8340   -5.0850 C.3    78  LEU78       0.0001
     68  N        -18.6560    0.8110   -9.4470 N.3    80  MET80      -0.1245
     69  CA       -19.0580   -0.1460  -10.4520 C.3    80  MET80       0.1570
     70  C        -18.9460    0.4050  -11.8840 C.2    80  MET80       0.2261
     71  O        -18.9730    1.5950  -12.1120 O.2    80  MET80      -0.2867
     72  CB       -20.4750   -0.6320  -10.1830 C.3    80  MET80       0.0387
     73  CG       -20.6750   -1.3840   -8.9080 C.3    80  MET80       0.0595
     74  SD       -22.3450   -1.9350   -8.6630 S.3    80  MET80      -0.1393
     75  CE       -22.2900   -3.5270   -9.4600 C.3    80  MET80       0.0692
     76  N        -17.8560   -4.8360  -10.1920 N.3    85  LYS85      -0.1245
     77  CA       -17.3020   -4.1190   -9.0440 C.3    85  LYS85       0.1561
     78  C        -15.8360   -3.8250   -9.2580 C.2    85  LYS85       0.2260
     79  O        -15.0620   -4.7180   -9.5680 O.2    85  LYS85      -0.2867
     80  CB       -17.4940   -4.9130   -7.7470 C.3    85  LYS85       0.0271
     81  CG       -18.9350   -5.2850   -7.5120 C.3    85  LYS85       0.0035
     82  CD       -19.1540   -6.2060   -6.3270 C.3    85  LYS85       0.0206
     83  CE       -20.6130   -6.4800   -6.1320 C.3    85  LYS85       0.1093
     84  NZ       -21.2370   -5.4100   -5.3250 N.3    85  LYS85      -0.1314
@<TRIPOS>BOND
     1    31    30    2
     2    30    29    1
     3    24    23    2
     4    29    28    1
     5    29    32    1
     6    27    25    1
     7    23    22    1
     8    32    33    1
     9    71    70    2
    10    70    69    1
    11    25    22    1
    12    25    26    1
    13    22    21    1
    14    33    35    1
    15    33    34    1
    16    13    12    2
    17    69    72    1
    18    69    68    1
    19    21    12   am
    20    76    77    1
    21    72    73    1
    22    12    11    1
    23    79    78    2
    24    75    74    1
    25    78    77    1
    26    77    80    1
    27    73    74    1
    28    11    10    1
    29    11    14    1
    30     4     3    2
    31    80    81    1
    32    16    18   ar
    33    16    15   ar
    34    81    82    1
    35     3     2    1
    36    14    15    1
    37    18    20   ar
    38    15    17   ar
    39    20    19   ar
    40    82    83    1
    41    83    84    1
    42    17    19   ar
    43    63    62    2
    44     2     5    1
    45     2     1    1
    46     5     6    1
    47    62    61    1
    48    65    67    1
    49    65    66    1
    50    65    64    1
    51     6     7    1
    52    61    64    1
    53    61    60    1
    54     8     7    2
    55     7     9   am
    56    58    57    2
    57    43    41    1
    58    59    57   am
    59    51    49   ar
    60    57    56    1
    61    42    40    1
    62    41    40    1
    63    49    48    1
    64    49    50   ar
    65    48    45    1
    66    47    46    2
    67    40    37    1
    68    56    53    1
    69    46    45    1
    70    46    52   am
    71    37    36    1
    72    37    38    1
    73    45    44    1
    74    53    52    1
    75    53    54    1
    76    39    38    2
    77    55    54    2
