@<TRIPOS>MOLECULE
tmp/4aj9B01.pdb
 84 80 0 0 0
SMALL
GASTEIGER

@<TRIPOS>ATOM
      1  N        -40.6900    5.5300   21.5940 N.3   300  GLU300     -0.1245
      2  CA       -41.3390    6.0330   20.3800 C.3   300  GLU300      0.1567
      3  C        -40.3300    6.7250   19.4560 C.2   300  GLU300      0.2260
      4  O        -40.4580    6.6670   18.2240 O.2   300  GLU300     -0.2867
      5  CB       -42.4890    6.9750   20.7300 C.3   300  GLU300      0.0388
      6  CG       -43.6930    6.2900   21.3710 C.3   300  GLU300      0.1160
      7  CD       -43.4970    5.9810   22.8470 C.2   300  GLU300      0.3649
      8  OE1      -42.6440    6.6300   23.4880 O.co2 300  GLU300     -0.2457
      9  OE2      -44.2110    5.0920   23.3680 O.co2 300  GLU300     -0.2457
     10  N        -48.0020    9.1930   33.9740 N.3   450  ASN450     -0.1225
     11  CA       -49.0660    9.0220   32.9790 C.3   450  ASN450      0.1785
     12  C        -49.0910    7.6300   32.3590 C.2   450  ASN450      0.2598
     13  O        -50.1170    7.1830   31.8450 O.2   450  ASN450     -0.2718
     14  CB       -48.9030   10.0230   31.8300 C.3   450  ASN450      0.1169
     15  CG       -49.1830   11.4500   32.2420 C.2   450  ASN450      0.2627
     16  OD1      -49.7300   11.7040   33.3070 O.2   450  ASN450     -0.2716
     17  ND2      -48.8060   12.3990   31.3810 N.am  450  ASN450     -0.0877
     18  N        -47.9450    6.9630   32.3680 N.am  451  SER451     -0.1938
     19  CA       -47.7870    5.7530   31.5700 C.3   451  SER451      0.2055
     20  C        -47.9800    4.4760   32.3800 C.2   451  SER451      0.2643
     21  O        -47.6190    3.3900   31.9300 O.2   451  SER451     -0.2714
     22  CB       -46.4200    5.7540   30.8870 C.3   451  SER451      0.2130
     23  OG       -46.2520    6.9230   30.1020 O.3   451  SER451     -0.2179
     24  N        -48.5550    4.6190   33.5720 N.am  452  LEU452     -0.1963
     25  CA       -48.8400    3.4880   34.4630 C.3   452  LEU452      0.1728
     26  C        -50.3450    3.2070   34.4820 C.2   452  LEU452      0.2617
     27  O        -51.1380    4.0890   34.1770 O.2   452  LEU452     -0.2715
     28  CB       -48.3920    3.8320   35.8870 C.3   452  LEU452      0.0311
     29  CG       -46.9370    4.2780   36.0420 C.3   452  LEU452      0.0022
     30  CD1      -46.6500    4.6760   37.4850 C.3   452  LEU452      0.0001
     31  CD2      -46.0180    3.1550   35.6120 C.3   452  LEU452      0.0001
     32  N        -50.7400    1.9970   34.8620 N.am  453  THR453     -0.1937
     33  CA       -52.1640    1.6980   34.9740 C.3   453  THR453      0.2013
     34  C        -52.7620    2.4160   36.1900 C.2   453  THR453      0.2484
     35  O        -52.0410    2.8470   37.0880 O.2   453  THR453     -0.2729
     36  CB       -52.4580    0.1760   35.0570 C.3   453  THR453      0.1807
     37  OG1      -52.0540   -0.3190   36.3350 O.3   453  THR453     -0.2208
     38  CG2      -51.7320   -0.5930   33.9520 C.3   453  THR453      0.0379
     39  N        -54.0910    2.5410   36.2240 N.am  454  PRO454     -0.2726
     40  CA       -54.7430    3.2170   37.3520 C.3   454  PRO454      0.1402
     41  C        -54.2880    2.6790   38.7060 C.2   454  PRO454      0.2269
     42  O        -53.9530    3.4610   39.5940 O.2   454  PRO454     -0.2865
     43  CB       -56.2260    2.9100   37.1250 C.3   454  PRO454      0.0296
     44  CG       -56.3350    2.7960   35.6100 C.3   454  PRO454      0.0237
     45  CD       -55.0490    2.1390   35.1780 C.3   454  PRO454      0.0939
     46  N        -47.8590    9.9190   26.9930 N.3   515  VAL515     -0.1231
     47  CA       -47.5970    8.5980   27.5360 C.3   515  VAL515      0.1692
     48  C        -46.5040    7.9440   26.7130 C.2   515  VAL515      0.2593
     49  O        -46.2930    8.3030   25.5500 O.2   515  VAL515     -0.2718
     50  CB       -48.8640    7.7160   27.5160 C.3   515  VAL515      0.0266
     51  CG1      -49.9450    8.3260   28.3910 C.3   515  VAL515      0.0020
     52  CG2      -49.3610    7.5290   26.0880 C.3   515  VAL515      0.0020
     53  N        -45.7970    6.9990   27.3180 N.am  516  THR516     -0.1939
     54  CA       -44.7420    6.2820   26.6160 C.3   516  THR516      0.2028
     55  C        -44.7560    4.8010   26.9890 C.2   516  THR516      0.2642
     56  O        -45.1570    4.4370   28.0860 O.2   516  THR516     -0.2714
     57  CB       -43.3570    6.9020   26.9050 C.3   516  THR516      0.1808
     58  OG1      -42.3650    6.3090   26.0610 O.3   516  THR516     -0.2208
     59  CG2      -42.9680    6.7030   28.3720 C.3   516  THR516      0.0379
     60  N        -44.3170    3.9530   26.0620 N.am  517  ARG517     -0.1977
     61  CA       -44.3170    2.5110   26.2790 C.3   517  ARG517      0.1597
     62  C        -43.1070    2.0200   27.0710 C.2   517  ARG517      0.2287
     63  O        -42.0950    2.7110   27.1760 O.2   517  ARG517     -0.2864
     64  CB       -44.3850    1.7610   24.9430 C.3   517  ARG517      0.0334
     65  CG       -43.0950    1.7590   24.1120 C.3   517  ARG517      0.0492
     66  CD       -43.2400    0.7630   22.9590 C.3   517  ARG517      0.2205
     67  NE       -42.0440    0.5850   22.1370 N.pl3 517  ARG517     -0.0865
     68  CZ       -41.9210    1.0610   20.9010 C.cat 517  ARG517      0.5346
     69  NH1      -42.9130    1.7580   20.3660 N.pl3 517  ARG517      0.1354
     70  NH2      -40.8120    0.8510   20.1990 N.pl3 517  ARG517      0.1354
     71  N        -44.1910    0.5000   32.3120 N.3   520  SER520     -0.1217
     72  CA       -45.1460   -0.1570   33.1920 C.3   520  SER520      0.1889
     73  C        -44.7410   -1.5990   33.4950 C.2   520  SER520      0.2288
     74  O        -44.1390   -2.2880   32.6710 O.2   520  SER520     -0.2866
     75  CB       -46.5600   -0.1240   32.5940 C.3   520  SER520      0.2089
     76  OG       -47.4780   -0.8470   33.4120 O.3   520  SER520     -0.2183
     77  N        -49.0660   -3.5280   33.4590 N.3   523  ASN523     -0.1240
     78  CA       -49.9290   -3.5190   32.2760 C.3   523  ASN523      0.1653
     79  C        -49.7210   -4.7420   31.3800 C.2   523  ASN523      0.2266
     80  O        -50.3100   -4.8340   30.3060 O.2   523  ASN523     -0.2867
     81  CB       -49.7180   -2.2460   31.4700 C.3   523  ASN523      0.1155
     82  CG       -48.4620   -2.2930   30.6490 C.2   523  ASN523      0.2627
     83  OD1      -47.5560   -3.0800   30.9320 O.2   523  ASN523     -0.2716
     84  ND2      -48.3930   -1.4560   29.6190 N.am  523  ASN523     -0.0877
@<TRIPOS>BOND
     1     4     3    2
     2     3     2    1
     3    70    68    1
     4    69    68    1
     5     2     5    1
     6     2     1    1
     7     5     6    1
     8    68    67    2
     9     6     7    1
    10    67    66    1
    11     7     9   ar
    12     7     8   ar
    13    66    65    1
    14    65    64    1
    15    64    61    1
    16    49    48    2
    17    58    57    1
    18    60    61    1
    19    60    55   am
    20    52    50    1
    21    61    62    1
    22    54    57    1
    23    54    55    1
    24    54    53    1
    25    48    53   am
    26    48    47    1
    27    57    59    1
    28    55    56    2
    29    46    47    1
    30    62    63    2
    31    50    47    1
    32    50    51    1
    33    84    82   am
    34    23    22    1
    35    80    79    2
    36    82    83    2
    37    82    81    1
    38    22    19    1
    39    79    78    1
    40    17    15   am
    41    81    78    1
    42    19    18    1
    43    19    20    1
    44    14    15    1
    45    14    11    1
    46    13    12    2
    47    21    20    2
    48    15    16    2
    49    78    77    1
    50    71    72    1
    51    12    18   am
    52    12    11    1
    53    20    24   am
    54    75    72    1
    55    75    76    1
    56    74    73    2
    57    11    10    1
    58    72    73    1
    59    24    25    1
    60    38    36    1
    61    27    26    2
    62    25    26    1
    63    25    28    1
    64    26    32   am
    65    32    33    1
    66    33    36    1
    67    33    34    1
    68    36    37    1
    69    45    44    1
    70    45    39    1
    71    44    43    1
    72    31    29    1
    73    28    29    1
    74    29    30    1
    75    34    39   am
    76    34    35    2
    77    39    40    1
    78    43    40    1
    79    40    41    1
    80    41    42    2
