@<TRIPOS>MOLECULE
tmp/4aj9C01.pdb
 99 91 0 0 0
SMALL
GASTEIGER

@<TRIPOS>ATOM
      1  N         30.7440    5.0360   48.7450 N.3   250  LYS250     -0.1231
      2  CA        31.1170    4.6330   47.3880 C.3   250  LYS250      0.1693
      3  C         30.2080    3.5420   46.7900 C.2   250  LYS250      0.2592
      4  O         29.9910    3.5080   45.5770 O.2   250  LYS250     -0.2718
      5  CB        32.5860    4.1770   47.3620 C.3   250  LYS250      0.0285
      6  CG        33.5790    5.2900   47.6940 C.3   250  LYS250      0.0035
      7  CD        33.8560    6.1620   46.4560 C.3   250  LYS250      0.0206
      8  CE        34.7770    7.3410   46.7770 C.3   250  LYS250      0.1093
      9  NZ        35.0990    8.1790   45.5650 N.3   250  LYS250     -0.1314
     10  N         29.6860    2.6460   47.6280 N.am  251  ASN251     -0.1974
     11  CA        28.7490    1.6230   47.1470 C.3   251  ASN251      0.1688
     12  C         27.8450    1.0660   48.2530 C.2   251  ASN251      0.2292
     13  O         28.1470    0.0520   48.8770 O.2   251  ASN251     -0.2864
     14  CB        29.4740    0.4800   46.4280 C.3   251  ASN251      0.1181
     15  CG        28.5060   -0.5020   45.7720 C.2   251  ASN251      0.2629
     16  OD1       27.2900   -0.2930   45.7940 O.2   251  ASN251     -0.2716
     17  ND2       29.0400   -1.5720   45.1790 N.am  251  ASN251     -0.0877
     18  N         25.1370   -6.5000   45.9680 N.3   257  GLN257     -0.1245
     19  CA        25.8130   -6.7140   44.6900 C.3   257  GLN257      0.1566
     20  C         26.7280   -7.9490   44.7480 C.2   257  GLN257      0.2260
     21  O         26.7700   -8.7450   43.8030 O.2   257  GLN257     -0.2867
     22  CB        26.6100   -5.4710   44.2650 C.3   257  GLN257      0.0367
     23  CG        27.1490   -5.5400   42.8320 C.3   257  GLN257      0.0905
     24  CD        26.0650   -5.3050   41.7810 C.2   257  GLN257      0.2608
     25  OE1       25.5280   -4.1990   41.6650 O.2   257  GLN257     -0.2717
     26  NE2       25.7470   -6.3430   41.0050 N.am  257  GLN257     -0.0878
     27  N         37.9920  -10.0620   44.4580 N.3   533  ARG533     -0.1245
     28  CA        38.0690   -9.0310   43.4400 C.3   533  ARG533      0.1563
     29  C         39.4450   -8.3800   43.3880 C.2   533  ARG533      0.2260
     30  O         40.0030   -7.9940   44.4160 O.2   533  ARG533     -0.2867
     31  CB        36.9910   -7.9690   43.7040 C.3   533  ARG533      0.0307
     32  CG        35.5670   -8.5090   43.5560 C.3   533  ARG533      0.0489
     33  CD        34.5510   -7.7340   44.4090 C.3   533  ARG533      0.2205
     34  NE        33.1950   -8.2770   44.2840 N.pl3 533  ARG533     -0.0865
     35  CZ        32.2960   -7.8620   43.3930 C.cat 533  ARG533      0.5346
     36  NH1       32.6020   -6.8890   42.5380 N.pl3 533  ARG533      0.1354
     37  NH2       31.0870   -8.4200   43.3560 N.pl3 533  ARG533      0.1354
     38  N         37.5890  -12.1890   40.1430 N.3   561  LYS561     -0.1245
     39  CA        36.8830  -11.1940   39.3440 C.3   561  LYS561      0.1561
     40  C         37.7460   -9.9490   39.2390 C.2   561  LYS561      0.2260
     41  O         37.9440   -9.2330   40.2190 O.2   561  LYS561     -0.2867
     42  CB        35.5460  -10.8260   39.9820 C.3   561  LYS561      0.0271
     43  CG        34.6730   -9.9590   39.0900 C.3   561  LYS561      0.0035
     44  CD        33.5110   -9.3500   39.8700 C.3   561  LYS561      0.0206
     45  CE        32.4080   -8.8550   38.9340 C.3   561  LYS561      0.1093
     46  NZ        32.9270   -7.9100   37.9030 N.3   561  LYS561     -0.1314
     47  N         39.0360   -6.2900   37.6560 N.3   563  THR563     -0.1218
     48  CA        38.6110   -5.0500   37.0140 C.3   563  THR563      0.1862
     49  C         39.8370   -4.2730   36.5650 C.2   563  THR563      0.2287
     50  O         40.6180   -3.8090   37.3950 O.2   563  THR563     -0.2866
     51  CB        37.8090   -4.1620   37.9880 C.3   563  THR563      0.1770
     52  OG1       36.7030   -4.9000   38.5190 O.3   563  THR563     -0.2211
     53  CG2       37.2900   -2.9130   37.2820 C.3   563  THR563      0.0375
     54  N         37.7290   -1.9100   32.1880 N.3   574  ASP574     -0.1225
     55  CA        36.4380   -2.2280   32.7900 C.3   574  ASP574      0.1805
     56  C         35.8480   -1.0490   33.5530 C.2   574  ASP574      0.2597
     57  O         34.6300   -0.9740   33.7260 O.2   574  ASP574     -0.2718
     58  CB        36.5460   -3.4300   33.7330 C.3   574  ASP574      0.1424
     59  CG        37.0740   -4.6690   33.0400 C.2   574  ASP574      0.3668
     60  OD1       36.4270   -5.1490   32.0870 O.co2 574  ASP574     -0.2456
     61  OD2       38.1290   -5.1800   33.4660 O.co2 574  ASP574     -0.2456
     62  N         36.7100   -0.1450   34.0180 N.am  575  GLN575     -0.1979
     63  CA        36.2710    0.9690   34.8560 C.3   575  GLN575      0.1601
     64  C         37.2690    2.1190   34.7480 C.2   575  GLN575      0.2287
     65  O         38.4700    1.8880   34.6170 O.2   575  GLN575     -0.2864
     66  CB        36.1700    0.5100   36.3160 C.3   575  GLN575      0.0394
     67  CG        35.3390    1.3910   37.2240 C.3   575  GLN575      0.0908
     68  CD        35.2390    0.8230   38.6400 C.2   575  GLN575      0.2608
     69  OE1       36.2420    0.4060   39.2230 O.2   575  GLN575     -0.2717
     70  NE2       34.0280    0.8090   39.1950 N.am  575  GLN575     -0.0878
     71  N         35.4800    6.4240   38.3570 N.3   579  ALA579     -0.1245
     72  CA        34.4660    5.5440   38.9220 C.3   579  ALA579      0.1562
     73  C         35.0190    4.5470   39.9410 C.2   579  ALA579      0.2260
     74  O         34.2500    3.8380   40.5970 O.2   579  ALA579     -0.2867
     75  CB        33.7430    4.8030   37.8070 C.3   579  ALA579      0.0290
     76  N         37.2630    2.8720   43.2100 N.3   581  ASP581     -0.1239
     77  CA        37.6610    3.0890   44.5900 C.3   581  ASP581      0.1674
     78  C         38.2400    1.7910   45.1540 C.2   581  ASP581      0.2266
     79  O         37.8460    0.7050   44.7460 O.2   581  ASP581     -0.2867
     80  CB        36.4730    3.5660   45.4240 C.3   581  ASP581      0.1410
     81  CG        36.8870    4.0350   46.8010 C.2   581  ASP581      0.3668
     82  OD1       37.2870    5.2170   46.9350 O.co2 581  ASP581     -0.2456
     83  OD2       36.8230    3.2210   47.7440 O.co2 581  ASP581     -0.2456
     84  N         36.1860   -1.3620   46.5200 N.3   584  ALA584     -0.1231
     85  CA        35.5330   -2.3220   45.6270 C.3   584  ALA584      0.1694
     86  C         36.3090   -3.6240   45.4680 C.2   584  ALA584      0.2592
     87  O         35.7890   -4.6070   44.9310 O.2   584  ALA584     -0.2718
     88  CB        35.3000   -1.7070   44.2640 C.3   584  ALA584      0.0304
     89  N         37.5530   -3.6270   45.9270 N.am  585  PHE585     -0.1976
     90  CA        38.4570   -4.7240   45.6250 C.3   585  PHE585      0.1639
     91  C         39.0450   -5.3580   46.8710 C.2   585  PHE585      0.2290
     92  O         39.1430   -4.7320   47.9190 O.2   585  PHE585     -0.2864
     93  CB        39.5920   -4.2390   44.7120 C.3   585  PHE585      0.0560
     94  CG        39.1090   -3.4350   43.5440 C.ar  585  PHE585     -0.0200
     95  CD1       38.3480   -4.0290   42.5580 C.ar  585  PHE585     -0.0042
     96  CD2       39.3920   -2.0870   43.4510 C.ar  585  PHE585     -0.0042
     97  CE1       37.8900   -3.2950   41.4840 C.ar  585  PHE585     -0.0003
     98  CE2       38.9410   -1.3500   42.3760 C.ar  585  PHE585     -0.0003
     99  CZ        38.1780   -1.9520   41.4040 C.ar  585  PHE585     -0.0000
@<TRIPOS>BOND
     1    60    59   ar
     2    54    55    1
     3    55    56    1
     4    55    58    1
     5    59    61   ar
     6    59    58    1
     7    56    57    2
     8    56    62   am
     9    62    63    1
    10    65    64    2
    11    64    63    1
    12    63    66    1
    13    66    67    1
    14    49    48    1
    15    49    50    2
    16    48    47    1
    17    48    51    1
    18    67    68    1
    19    53    51    1
    20    75    72    1
    21    46    45    1
    22    51    52    1
    23    71    72    1
    24    68    70   am
    25    68    69    2
    26    72    73    1
    27    45    44    1
    28    43    44    1
    29    43    42    1
    30    40    39    1
    31    40    41    2
    32    39    42    1
    33    39    38    1
    34    73    74    2
    35    26    24   am
    36    99    97   ar
    37    99    98   ar
    38    97    95   ar
    39    25    24    2
    40    24    23    1
    41    98    96   ar
    42    36    35    1
    43    95    94   ar
    44    23    22    1
    45    76    77    1
    46    37    35    1
    47    29    28    1
    48    29    30    2
    49    35    34    2
    50    28    31    1
    51    28    27    1
    52    96    94   ar
    53    94    93    1
    54    32    31    1
    55    32    33    1
    56    21    20    2
    57    88    85    1
    58    22    19    1
    59    34    33    1
    60    77    78    1
    61    77    80    1
    62    19    20    1
    63    19    18    1
    64    93    90    1
    65    79    78    2
    66    87    86    2
    67    17    15   am
    68    80    81    1
    69    86    85    1
    70    86    89   am
    71     9     8    1
    72     4     3    2
    73    90    89    1
    74    90    91    1
    75    85    84    1
    76    15    16    2
    77    15    14    1
    78    14    11    1
    79     7     8    1
    80     7     6    1
    81     3     2    1
    82     3    10   am
    83    81    82   ar
    84    81    83   ar
    85    91    92    2
    86    11    10    1
    87    11    12    1
    88     5     2    1
    89     5     6    1
    90     2     1    1
    91    12    13    2
