@<TRIPOS>MOLECULE
tmp/4ajdB00.pdb
 129 124 0 0 0
SMALL
GASTEIGER

@<TRIPOS>ATOM
      1  N         19.7410  -48.2770  -15.5290 N.3    78  TYR78      -0.1241
      2  CA        18.8160  -47.2620  -15.0510 C.3    78  TYR78       0.1605
      3  C         17.3600  -47.6710  -14.9060 C.2    78  TYR78       0.2264
      4  O         16.7780  -47.3980  -13.8600 O.2    78  TYR78      -0.2867
      5  CB        18.9570  -45.9720  -15.8880 C.3    78  TYR78       0.0534
      6  CG        17.9740  -44.8990  -15.4980 C.ar   78  TYR78      -0.0201
      7  CD1       18.0600  -44.2650  -14.2600 C.ar   78  TYR78      -0.0009
      8  CD2       16.9080  -44.5700  -16.3330 C.ar   78  TYR78      -0.0009
      9  CE1       17.1250  -43.3110  -13.8730 C.ar   78  TYR78       0.0417
     10  CE2       15.9820  -43.5960  -15.9700 C.ar   78  TYR78       0.0417
     11  CZ        16.1080  -42.9520  -14.7480 C.ar   78  TYR78       0.1957
     12  OH        15.2080  -41.9740  -14.4060 O.3    78  TYR78      -0.2866
     13  N          8.2990  -40.0290  -23.4790 N.3   189  LEU189     -0.1245
     14  CA         8.7500  -38.6220  -23.5660 C.3   189  LEU189      0.1561
     15  C          8.3540  -37.9310  -24.8630 C.2   189  LEU189      0.2260
     16  O          8.1580  -36.7220  -24.8680 O.2   189  LEU189     -0.2867
     17  CB        10.2680  -38.4870  -23.3650 C.3   189  LEU189      0.0270
     18  CG        10.8030  -37.5510  -22.2710 C.3   189  LEU189      0.0019
     19  CD1       12.0130  -36.7470  -22.7510 C.3   189  LEU189      0.0001
     20  CD2        9.7580  -36.6370  -21.6750 C.3   189  LEU189      0.0001
     21  N          8.5580  -39.3950  -13.6380 N.3   228  ASP228     -0.1225
     22  CA         9.5390  -40.1300  -14.4350 C.3   228  ASP228      0.1805
     23  C         10.9190  -39.4360  -14.4630 C.2   228  ASP228      0.2597
     24  O         11.9480  -40.1100  -14.3980 O.2   228  ASP228     -0.2718
     25  CB         9.0070  -40.3350  -15.8600 C.3   228  ASP228      0.1424
     26  CG         9.5510  -41.5570  -16.5660 C.2   228  ASP228      0.3668
     27  OD1       10.0720  -42.4470  -15.8810 O.co2 228  ASP228     -0.2456
     28  OD2        9.3750  -41.6590  -17.8070 O.co2 228  ASP228     -0.2456
     29  N         10.9240  -38.0990  -14.5080 N.am  229  LEU229     -0.1979
     30  CA        12.1290  -37.2630  -14.5950 C.3   229  LEU229      0.1596
     31  C         12.6350  -36.7440  -13.2680 C.2   229  LEU229      0.2287
     32  O         13.5610  -35.9500  -13.2560 O.2   229  LEU229     -0.2864
     33  CB        11.8390  -36.0620  -15.5270 C.3   229  LEU229      0.0297
     34  CG        11.4470  -36.3410  -16.9880 C.3   229  LEU229      0.0022
     35  CD1       11.2770  -35.0350  -17.7410 C.3   229  LEU229      0.0001
     36  CD2       12.4870  -37.1850  -17.6970 C.3   229  LEU229      0.0001
     37  N         14.6770  -37.4840  -10.8570 N.3   231  SER231     -0.1202
     38  CA        16.0830  -37.4780  -10.3800 C.3   231  SER231      0.2020
     39  C         16.7030  -36.0560  -10.4310 C.2   231  SER231      0.2618
     40  O         17.6390  -35.7580   -9.6860 O.2   231  SER231     -0.2717
     41  CB        16.9410  -38.4520  -11.1810 C.3   231  SER231      0.2103
     42  OG        17.4080  -37.9040  -12.4070 O.3   231  SER231     -0.2182
     43  N         16.1380  -35.1900  -11.2890 N.am  232  VAL232     -0.1979
     44  CA        16.5430  -33.7840  -11.4760 C.3   232  VAL232      0.1595
     45  C         16.0390  -32.9030  -10.3280 C.2   232  VAL232      0.2287
     46  O         16.4370  -31.7460  -10.2220 O.2   232  VAL232     -0.2864
     47  CB        16.1060  -33.2390  -12.8670 C.3   232  VAL232      0.0276
     48  CG1       16.5780  -34.1430  -14.0070 C.3   232  VAL232      0.0022
     49  CG2       14.6040  -33.0000  -12.9360 C.3   232  VAL232      0.0022
     50  N         22.4120  -39.4900  -12.8390 N.3   243  ALA243     -0.1245
     51  CA        22.7850  -39.1280  -14.2190 C.3   243  ALA243      0.1562
     52  C         23.8030  -40.1350  -14.7780 C.2   243  ALA243      0.2260
     53  O         23.7370  -40.4590  -15.9680 O.2   243  ALA243     -0.2867
     54  CB        23.3550  -37.7220  -14.2770 C.3   243  ALA243      0.0290
     55  N         21.7640  -43.0900  -15.8440 N.3   246  ILE246     -0.1231
     56  CA        20.9960  -42.7030  -17.0380 C.3   246  ILE246      0.1692
     57  C         21.9110  -42.7970  -18.2690 C.2   246  ILE246      0.2592
     58  O         21.5900  -43.5100  -19.2240 O.2   246  ILE246     -0.2718
     59  CB        20.3390  -41.3010  -16.8330 C.3   246  ILE246      0.0266
     60  CG1       19.2290  -41.3860  -15.7710 C.3   246  ILE246      0.0019
     61  CG2       19.7750  -40.7300  -18.1420 C.3   246  ILE246      0.0020
     62  CD1       18.8700  -40.0810  -15.0140 C.3   246  ILE246      0.0001
     63  N         23.0860  -42.1610  -18.1870 N.am  247  TYR247     -0.1976
     64  CA        24.0770  -42.2030  -19.2580 C.3   247  TYR247      0.1639
     65  C         24.6950  -43.5900  -19.5090 C.2   247  TYR247      0.2290
     66  O         24.8770  -43.9520  -20.6740 O.2   247  TYR247     -0.2864
     67  CB        25.1120  -41.0790  -19.1260 C.3   247  TYR247      0.0560
     68  CG        24.5740  -39.7430  -19.5960 C.ar  247  TYR247     -0.0198
     69  CD1       24.4310  -39.4610  -20.9620 C.ar  247  TYR247     -0.0009
     70  CD2       24.1790  -38.7700  -18.6820 C.ar  247  TYR247     -0.0009
     71  CE1       23.9400  -38.2300  -21.4000 C.ar  247  TYR247      0.0417
     72  CE2       23.6880  -37.5360  -19.1110 C.ar  247  TYR247      0.0417
     73  CZ        23.5720  -37.2720  -20.4690 C.ar  247  TYR247      0.1957
     74  OH        23.0830  -36.0580  -20.8810 O.3   247  TYR247     -0.2866
     75  N         22.3170  -45.3280  -21.6770 N.3   250  PHE250     -0.1241
     76  CA        22.3220  -44.6880  -22.9960 C.3   250  PHE250      0.1605
     77  C         23.5490  -45.1300  -23.8060 C.2   250  PHE250      0.2264
     78  O         23.4120  -45.4870  -24.9760 O.2   250  PHE250     -0.2867
     79  CB        22.3310  -43.1460  -22.8620 C.3   250  PHE250      0.0534
     80  CG        21.0310  -42.4750  -22.4960 C.ar  250  PHE250     -0.0203
     81  CD1       19.8130  -43.1010  -22.7300 C.ar  250  PHE250     -0.0042
     82  CD2       21.0200  -41.1830  -21.9770 C.ar  250  PHE250     -0.0042
     83  CE1       18.6090  -42.4660  -22.4060 C.ar  250  PHE250     -0.0003
     84  CE2       19.8150  -40.5530  -21.6510 C.ar  250  PHE250     -0.0003
     85  CZ        18.6200  -41.2050  -21.8500 C.ar  250  PHE250     -0.0000
     86  N         24.3150  -38.2670  -27.3400 N.3   267  MET267     -0.1245
     87  CA        23.7490  -38.6220  -26.0180 C.3   267  MET267      0.1570
     88  C         24.0530  -40.0780  -25.6600 C.2   267  MET267      0.2261
     89  O         24.2580  -40.4140  -24.4900 O.2   267  MET267     -0.2867
     90  CB        22.2260  -38.4360  -26.0450 C.3   267  MET267      0.0387
     91  CG        21.5650  -38.6090  -24.6770 C.3   267  MET267      0.0595
     92  SD        19.8110  -38.2370  -24.7430 S.3   267  MET267     -0.1393
     93  CE        19.1670  -39.8340  -25.3050 C.3   267  MET267      0.0692
     94  N         24.9580  -31.0290  -22.0690 N.3   279  GLY279     -0.1210
     95  CA        23.7690  -31.7950  -22.4450 C.3   279  GLY279      0.1956
     96  C         22.6980  -31.7050  -21.3730 C.2   279  GLY279      0.2611
     97  O         21.5160  -31.4840  -21.6710 O.2   279  GLY279     -0.2717
     98  N         23.1400  -31.7930  -20.1030 N.am  280  GLN280     -0.1979
     99  CA        22.3120  -31.5950  -18.9140 C.3   280  GLN280      0.1601
    100  C         21.7230  -30.1640  -18.8920 C.2   280  GLN280      0.2287
    101  O         20.4960  -30.0280  -18.8700 O.2   280  GLN280     -0.2864
    102  CB        23.1100  -31.9320  -17.6390 C.3   280  GLN280      0.0394
    103  CG        23.2640  -33.4680  -17.4330 C.3   280  GLN280      0.0908
    104  CD        21.9270  -34.1940  -17.3900 C.2   280  GLN280      0.2608
    105  OE1       21.2680  -34.2910  -16.3490 O.2   280  GLN280     -0.2717
    106  NE2       21.5620  -34.8370  -18.4820 N.am  280  GLN280     -0.0878
    107  N         19.0760  -30.0300  -21.5340 N.3   283  PHE283     -0.1227
    108  CA        17.9610  -30.8880  -21.0950 C.3   283  PHE283      0.1736
    109  C         17.1250  -30.1770  -20.0310 C.2   283  PHE283      0.2595
    110  O         15.9050  -30.0950  -20.1910 O.2   283  PHE283     -0.2718
    111  CB        18.4580  -32.2490  -20.5480 C.3   283  PHE283      0.0547
    112  CG        17.3200  -33.1640  -20.1690 C.ar  283  PHE283     -0.0202
    113  CD1       16.5140  -33.7460  -21.1490 C.ar  283  PHE283     -0.0042
    114  CD2       16.9850  -33.3660  -18.8360 C.ar  283  PHE283     -0.0042
    115  CE1       15.4280  -34.5510  -20.7950 C.ar  283  PHE283     -0.0003
    116  CE2       15.8930  -34.1650  -18.4870 C.ar  283  PHE283     -0.0003
    117  CZ        15.1180  -34.7400  -19.4690 C.ar  283  PHE283     -0.0000
    118  N         17.7700  -29.6740  -18.9450 N.am  284  TYR284     -0.1976
    119  CA        17.0530  -28.9400  -17.8790 C.3   284  TYR284      0.1639
    120  C         16.2560  -27.7700  -18.4450 C.2   284  TYR284      0.2290
    121  O         15.0870  -27.6550  -18.1450 O.2   284  TYR284     -0.2864
    122  CB        18.0210  -28.4280  -16.7930 C.3   284  TYR284      0.0560
    123  CG        18.3550  -29.4480  -15.7270 C.ar  284  TYR284     -0.0198
    124  CD1       19.1630  -30.5450  -16.0110 C.ar  284  TYR284     -0.0009
    125  CD2       17.8710  -29.3130  -14.4250 C.ar  284  TYR284     -0.0009
    126  CE1       19.4500  -31.5000  -15.0420 C.ar  284  TYR284      0.0417
    127  CE2       18.1930  -30.2390  -13.4350 C.ar  284  TYR284      0.0417
    128  CZ        19.0020  -31.3180  -13.7440 C.ar  284  TYR284      0.1957
    129  OH        19.3300  -32.2400  -12.7840 O.3   284  TYR284     -0.2866
@<TRIPOS>BOND
     1    86    87    1
     2    90    87    1
     3    90    91    1
     4    87    88    1
     5    88    89    2
     6    93    92    1
     7    78    77    2
     8    16    15    2
     9    15    14    1
    10    92    91    1
    11    77    76    1
    12    14    13    1
    13    14    17    1
    14    17    18    1
    15    76    79    1
    16    76    75    1
    17    79    80    1
    18    19    18    1
    19    81    80   ar
    20    81    83   ar
    21    80    82   ar
    22    95    94    1
    23    95    96    1
    24    83    85   ar
    25    18    20    1
    26    82    84   ar
    27    85    84   ar
    28    97    96    2
    29   107   108    1
    30    71    69   ar
    31    71    73   ar
    32    96    98   am
    33   113   115   ar
    34   113   112   ar
    35   108   111    1
    36   108   109    1
    37    69    68   ar
    38    74    73    1
    39   115   117   ar
    40    66    65    2
    41   111   112    1
    42    73    72   ar
    43   110   109    2
    44   112   114   ar
    45    98    99    1
    46   109   118   am
    47    68    67    1
    48    68    70   ar
    49    65    64    1
    50   117   116   ar
    51    64    67    1
    52    64    63    1
    53    58    57    2
    54    72    70   ar
    55   118   119    1
    56    99   100    1
    57    99   102    1
    58   100   101    2
    59   114   116   ar
    60   106   104   am
    61   120   121    2
    62   120   119    1
    63    57    63   am
    64    57    56    1
    65    61    59    1
    66   119   122    1
    67    28    26   ar
    68    35    34    1
    69    36    34    1
    70   102   103    1
    71   103   104    1
    72   104   105    2
    73    56    59    1
    74    56    55    1
    75    34    33    1
    76    59    60    1
    77   122   123    1
    78    26    27   ar
    79    26    25    1
    80     8    10   ar
    81     8     6   ar
    82   124   123   ar
    83   124   126   ar
    84    10    11   ar
    85    53    52    2
    86     5     6    1
    87     5     2    1
    88    25    22    1
    89    60    62    1
    90   123   125   ar
    91     1     2    1
    92    33    30    1
    93     6     7   ar
    94     2     3    1
    95   126   128   ar
    96     3     4    2
    97    52    51    1
    98    11    12    1
    99    11     9   ar
   100    30    29    1
   101    30    31    1
   102    29    23   am
   103    23    22    1
   104    23    24    2
   105    22    21    1
   106   125   127   ar
   107    54    51    1
   108     7     9   ar
   109    51    50    1
   110    48    47    1
   111   128   127   ar
   112   128   129    1
   113    31    32    2
   114    49    47    1
   115    47    44    1
   116    42    41    1
   117    44    43    1
   118    44    45    1
   119    43    39   am
   120    41    38    1
   121    37    38    1
   122    39    38    1
   123    39    40    2
   124    45    46    2
