@<TRIPOS>MOLECULE
tmp/4ajfA00.pdb
 117 111 0 0 0
SMALL
GASTEIGER

@<TRIPOS>ATOM
      1  N          9.9440  -14.8830  -30.7630 N.3    78  TYR78      -0.1241
      2  CA        11.1460  -14.2140  -30.2300 C.3    78  TYR78       0.1605
      3  C         10.9820  -12.7790  -29.7410 C.2    78  TYR78       0.2264
      4  O         11.4510  -12.4960  -28.6460 O.2    78  TYR78      -0.2867
      5  CB        12.3240  -14.3140  -31.2130 C.3    78  TYR78       0.0534
      6  CG        13.5850  -13.6150  -30.7350 C.ar   78  TYR78      -0.0201
      7  CD1       14.3210  -14.1180  -29.6660 C.ar   78  TYR78      -0.0009
      8  CD2       14.0370  -12.4500  -31.3480 C.ar   78  TYR78      -0.0009
      9  CE1       15.4670  -13.4750  -29.2080 C.ar   78  TYR78       0.0417
     10  CE2       15.2010  -11.8120  -30.9150 C.ar   78  TYR78       0.0417
     11  CZ        15.9280  -12.3440  -29.8590 C.ar   78  TYR78       0.1957
     12  OH        17.0870  -11.7380  -29.3960 O.3    78  TYR78      -0.2866
     13  N         19.6810   -2.9650  -36.2530 N.3   189  LEU189     -0.1245
     14  CA        21.0220   -3.4600  -36.6090 C.3   189  LEU189      0.1561
     15  C         21.6680   -2.8110  -37.8180 C.2   189  LEU189      0.2260
     16  O         22.9010   -2.7840  -37.8980 O.2   189  LEU189     -0.2867
     17  CB        21.0990   -4.9940  -36.7370 C.3   189  LEU189      0.0270
     18  CG        21.2430   -5.7950  -35.4300 C.3   189  LEU189      0.0019
     19  CD1       21.1000   -7.3110  -35.7040 C.3   189  LEU189      0.0001
     20  CD2       22.5710   -5.5030  -34.7330 C.3   189  LEU189      0.0001
     21  N         20.5580   -6.0370  -26.7150 N.3   228  ASP228     -0.1225
     22  CA        19.6030   -6.6470  -27.6540 C.3   228  ASP228      0.1805
     23  C         20.0540   -8.0160  -28.1230 C.2   228  ASP228      0.2597
     24  O         19.2210   -8.8940  -28.3640 O.2   228  ASP228     -0.2718
     25  CB        19.4040   -5.7180  -28.8650 C.3   228  ASP228      0.1424
     26  CG        18.1230   -6.0220  -29.6150 C.2   228  ASP228      0.3668
     27  OD1       17.2220   -6.6260  -29.0130 O.co2 228  ASP228     -0.2456
     28  OD2       18.0000   -5.5890  -30.7790 O.co2 228  ASP228     -0.2456
     29  N         21.4000   -8.2190  -28.2250 N.am  229  LEU229     -0.1979
     30  CA        21.9580   -9.4930  -28.6980 C.3   229  LEU229      0.1596
     31  C         22.3810  -10.4310  -27.5630 C.2   229  LEU229      0.2287
     32  O         22.8760  -11.5160  -27.8390 O.2   229  LEU229     -0.2864
     33  CB        23.2080   -9.2250  -29.5800 C.3   229  LEU229      0.0297
     34  CG        23.0670   -8.2820  -30.7960 C.3   229  LEU229      0.0022
     35  CD1       24.4160   -8.2210  -31.5670 C.3   229  LEU229      0.0001
     36  CD2       21.9410   -8.7290  -31.7300 C.3   229  LEU229      0.0001
     37  N         21.4340  -12.8440  -25.8270 N.3   231  SER231     -0.1202
     38  CA        21.2490  -14.3070  -25.8680 C.3   231  SER231      0.2020
     39  C         22.5530  -15.0070  -26.2240 C.2   231  SER231      0.2618
     40  O         22.7680  -16.1480  -25.7890 O.2   231  SER231     -0.2717
     41  CB        20.2180  -14.6860  -26.9290 C.3   231  SER231      0.2103
     42  OG        18.9650  -14.2910  -26.3880 O.3   231  SER231     -0.2182
     43  N         23.3900  -14.3590  -27.0510 N.am  232  VAL232     -0.1979
     44  CA        24.6830  -14.9110  -27.4860 C.3   232  VAL232      0.1595
     45  C         25.7290  -14.9140  -26.3510 C.2   232  VAL232      0.2287
     46  O         26.8620  -15.3580  -26.5980 O.2   232  VAL232     -0.2864
     47  CB        25.2540  -14.1880  -28.7460 C.3   232  VAL232      0.0276
     48  CG1       24.2740  -14.2350  -29.9210 C.3   232  VAL232      0.0022
     49  CG2       25.6900  -12.7520  -28.4360 C.3   232  VAL232      0.0022
     50  N         18.1190  -19.3420  -29.9260 N.3   243  ALA243     -0.1245
     51  CA        18.3600  -19.3720  -31.3710 C.3   243  ALA243      0.1562
     52  C         17.2320  -20.1010  -32.1060 C.2   243  ALA243      0.2260
     53  O         16.8730  -19.6860  -33.2170 O.2   243  ALA243     -0.2867
     54  CB        19.7080  -20.0110  -31.6640 C.3   243  ALA243      0.0290
     55  N         14.3640  -17.4330  -32.3800 N.3   246  ILE246     -0.1231
     56  CA        14.7460  -16.4330  -33.3890 C.3   246  ILE246      0.1692
     57  C         14.4230  -17.0030  -34.7860 C.2   246  ILE246      0.2592
     58  O         13.7390  -16.3460  -35.5830 O.2   246  ILE246     -0.2718
     59  CB        16.2660  -16.0940  -33.2230 C.3   246  ILE246      0.0266
     60  CG1       16.5070  -15.2450  -31.9860 C.3   246  ILE246      0.0019
     61  CG2       16.8440  -15.3580  -34.4230 C.3   246  ILE246      0.0020
     62  CD1       17.9450  -15.3050  -31.4530 C.3   246  ILE246      0.0001
     63  N         14.9260  -18.2210  -35.0770 N.am  247  TYR247     -0.1976
     64  CA        14.6760  -18.9030  -36.3410 C.3   247  TYR247      0.1639
     65  C         13.2150  -19.2540  -36.5660 C.2   247  TYR247      0.2290
     66  O         12.7640  -19.1490  -37.6960 O.2   247  TYR247     -0.2864
     67  CB        15.6520  -20.0760  -36.5750 C.3   247  TYR247      0.0560
     68  CG        17.0010  -19.5970  -37.0780 C.ar  247  TYR247     -0.0198
     69  CD1       17.1940  -19.2900  -38.4190 C.ar  247  TYR247     -0.0009
     70  CD2       18.0450  -19.3370  -36.1940 C.ar  247  TYR247     -0.0009
     71  CE1       18.4190  -18.8250  -38.8890 C.ar  247  TYR247      0.0417
     72  CE2       19.2780  -18.8600  -36.6500 C.ar  247  TYR247      0.0417
     73  CZ        19.4690  -18.6350  -38.0070 C.ar  247  TYR247      0.1957
     74  OH        20.6640  -18.1700  -38.4990 O.3   247  TYR247     -0.2866
     75  N         11.8480  -16.0200  -37.8950 N.3   250  PHE250     -0.1241
     76  CA        12.3910  -15.7980  -39.2340 C.3   250  PHE250      0.1605
     77  C         11.6930  -16.7090  -40.2550 C.2   250  PHE250      0.2264
     78  O         11.3330  -16.2410  -41.3270 O.2   250  PHE250     -0.2867
     79  CB        13.8990  -16.1260  -39.2600 C.3   250  PHE250      0.0534
     80  CG        14.8350  -15.1530  -38.5980 C.ar  250  PHE250     -0.0203
     81  CD1       14.4880  -13.8150  -38.4520 C.ar  250  PHE250     -0.0042
     82  CD2       16.0910  -15.5660  -38.1540 C.ar  250  PHE250     -0.0042
     83  CE1       15.3580  -12.9120  -37.8380 C.ar  250  PHE250     -0.0003
     84  CE2       16.9790  -14.6510  -37.5790 C.ar  250  PHE250     -0.0003
     85  CZ        16.5970  -13.3320  -37.4090 C.ar  250  PHE250     -0.0000
     86  N         18.2270  -17.6170  -44.5630 N.3   267  MET267     -0.1245
     87  CA        18.0160  -17.5150  -43.1160 C.3   267  MET267      0.1570
     88  C         16.5100  -17.5910  -42.7670 C.2   267  MET267      0.2261
     89  O         16.1450  -18.1420  -41.7340 O.2   267  MET267     -0.2867
     90  CB        18.6650  -16.2210  -42.5890 C.3   267  MET267      0.0387
     91  CG        18.7170  -16.1210  -41.0860 C.3   267  MET267      0.0595
     92  SD        18.9350  -14.4310  -40.5220 S.3   267  MET267     -0.1393
     93  CE        17.3260  -13.7230  -40.9700 C.3   267  MET267      0.0692
     94  N         25.5880  -19.7400  -40.8090 N.3   279  GLY279     -0.1210
     95  CA        24.9570  -18.4270  -40.7150 C.3   279  GLY279      0.1956
     96  C         25.1860  -17.8170  -39.3480 C.2   279  GLY279      0.2611
     97  O         25.3930  -16.6030  -39.2360 O.2   279  GLY279     -0.2717
     98  N         25.1920  -18.6680  -38.2910 N.am  280  GLN280     -0.1979
     99  CA        25.4480  -18.1960  -36.9280 C.3   280  GLN280      0.1601
    100  C         26.9090  -17.8260  -36.7820 C.2   280  GLN280      0.2287
    101  O         27.2200  -16.7930  -36.2120 O.2   280  GLN280     -0.2864
    102  CB        25.0110  -19.2430  -35.8840 C.3   280  GLN280      0.0394
    103  CG        23.4840  -19.3770  -35.7430 C.3   280  GLN280      0.0908
    104  CD        22.8150  -18.0470  -35.5000 C.2   280  GLN280      0.2608
    105  OE1       22.1580  -17.4650  -36.3750 O.2   280  GLN280     -0.2717
    106  NE2       22.8930  -17.5760  -34.2750 N.am  280  GLN280     -0.0878
    107  N         27.1590  -14.4770  -38.4210 N.3   283  PHE283     -0.1241
    108  CA        26.5920  -13.4430  -37.5410 C.3   283  PHE283      0.1605
    109  C         27.5400  -13.1030  -36.3800 C.2   283  PHE283      0.2264
    110  O         27.7370  -11.9220  -36.0950 O.2   283  PHE283     -0.2867
    111  CB        25.1860  -13.8260  -37.0420 C.3   283  PHE283      0.0534
    112  CG        24.5780  -12.7730  -36.1410 C.ar  283  PHE283     -0.0203
    113  CD1       23.9800  -11.6370  -36.6770 C.ar  283  PHE283     -0.0042
    114  CD2       24.6240  -12.9080  -34.7580 C.ar  283  PHE283     -0.0042
    115  CE1       23.4280  -10.6590  -35.8480 C.ar  283  PHE283     -0.0003
    116  CE2       24.0870  -11.9230  -33.9290 C.ar  283  PHE283     -0.0003
    117  CZ        23.4950  -10.8090  -34.4790 C.ar  283  PHE283     -0.0000
@<TRIPOS>BOND
     1    86    87    1
     2    87    88    1
     3    87    90    1
     4    88    89    2
     5    90    91    1
     6    78    77    2
     7    91    92    1
     8    93    92    1
     9    94    95    1
    10    95    96    1
    11    77    76    1
    12    96    97    2
    13    96    98   am
    14    79    76    1
    15    79    80    1
    16    76    75    1
    17    71    69   ar
    18    71    73   ar
    19    80    81   ar
    20    80    82   ar
    21    74    73    1
    22    81    83   ar
    23   107   108    1
    24    69    68   ar
    25    98    99    1
    26    82    84   ar
    27    73    72   ar
    28    16    15    2
    29    83    85   ar
    30    15    14    1
    31    66    65    2
    32    84    85   ar
    33   108   111    1
    34   108   109    1
    35    68    67    1
    36    68    70   ar
    37   111   112    1
    38    99   100    1
    39    99   102    1
    40   100   101    2
    41    17    14    1
    42    17    18    1
    43   113   112   ar
    44   113   115   ar
    45    72    70   ar
    46    14    13    1
    47    67    64    1
    48    65    64    1
    49   109   110    2
    50   105   104    2
    51    64    63    1
    52   112   114   ar
    53   102   103    1
    54   115   117   ar
    55   103   104    1
    56    19    18    1
    57    58    57    2
    58   104   106   am
    59    18    20    1
    60    63    57   am
    61    57    56    1
    62   114   116   ar
    63   117   116   ar
    64    61    59    1
    65    56    59    1
    66    56    55    1
    67    59    60    1
    68    53    52    2
    69    52    51    1
    70    60    62    1
    71    36    34    1
    72    54    51    1
    73    35    34    1
    74    51    50    1
    75     8    10   ar
    76     8     6   ar
    77     5     6    1
    78     5     2    1
    79    10    11   ar
    80    34    33    1
    81    28    26   ar
    82     1     2    1
    83     6     7   ar
    84     2     3    1
    85    48    47    1
    86    11    12    1
    87    11     9   ar
    88     3     4    2
    89     7     9   ar
    90    26    27   ar
    91    26    25    1
    92    33    30    1
    93    25    22    1
    94    47    49    1
    95    47    44    1
    96    30    29    1
    97    30    31    1
    98    24    23    2
    99    29    23   am
   100    23    22    1
   101    32    31    2
   102    22    21    1
   103    44    43    1
   104    44    45    1
   105    43    39   am
   106    41    42    1
   107    41    38    1
   108    46    45    2
   109    39    38    1
   110    39    40    2
   111    38    37    1
