@<TRIPOS>MOLECULE
tmp/4ajgA00.pdb
 113 107 0 0 0
SMALL
GASTEIGER

@<TRIPOS>ATOM
      1  N         10.2070  -15.6950  -30.2740 N.3    77  TYR77      -0.1241
      2  CA        11.4420  -15.1250  -29.7360 C.3    77  TYR77       0.1605
      3  C         11.2600  -13.7710  -29.0500 C.2    77  TYR77       0.2264
      4  O         11.6260  -13.6230  -27.8840 O.2    77  TYR77      -0.2867
      5  CB        12.5280  -15.0580  -30.7980 C.3    77  TYR77       0.0534
      6  CG        13.8050  -14.4080  -30.3530 C.ar   77  TYR77      -0.0201
      7  CD1       14.5880  -14.9750  -29.3480 C.ar   77  TYR77      -0.0009
      8  CD2       14.2460  -13.2190  -30.9390 C.ar   77  TYR77      -0.0009
      9  CE1       15.7880  -14.3640  -28.9370 C.ar   77  TYR77       0.0417
     10  CE2       15.4350  -12.6210  -30.5460 C.ar   77  TYR77       0.0417
     11  CZ        16.1920  -13.1940  -29.5480 C.ar   77  TYR77       0.1957
     12  OH        17.3780  -12.6250  -29.1800 O.3    77  TYR77      -0.2866
     13  N         19.1770   -3.1880  -35.6790 N.3   188  LEU188     -0.1245
     14  CA        20.4430   -3.7600  -36.1510 C.3   188  LEU188      0.1561
     15  C         20.9860   -3.0640  -37.3910 C.2   188  LEU188      0.2260
     16  O         22.1960   -2.9750  -37.5640 O.2   188  LEU188     -0.2867
     17  CB        20.2720   -5.2400  -36.4860 C.3   188  LEU188      0.0270
     18  CG        21.2650   -6.2450  -35.9070 C.3   188  LEU188      0.0019
     19  CD1       21.5130   -7.3050  -36.9530 C.3   188  LEU188      0.0001
     20  CD2       22.5480   -5.6140  -35.4570 C.3   188  LEU188      0.0001
     21  N         21.1470   -6.7820  -26.8790 N.3   227  ASP227     -0.1225
     22  CA        20.0540   -7.3530  -27.6710 C.3   227  ASP227      0.1805
     23  C         20.4860   -8.7270  -28.2080 C.2   227  ASP227      0.2597
     24  O         19.6680   -9.6210  -28.4400 O.2   227  ASP227     -0.2718
     25  CB        19.6950   -6.4030  -28.8190 C.3   227  ASP227      0.1424
     26  CG        18.2800   -6.5860  -29.3270 C.2   227  ASP227      0.3668
     27  OD1       17.4150   -7.1570  -28.6300 O.co2 227  ASP227     -0.2456
     28  OD2       18.0270   -6.1420  -30.4610 O.co2 227  ASP227     -0.2456
     29  N         21.7960   -8.8920  -28.3620 N.am  228  LEU228     -0.1979
     30  CA        22.3200  -10.0960  -28.9710 C.3   228  LEU228      0.1596
     31  C         22.9250  -11.0700  -27.9580 C.2   228  LEU228      0.2287
     32  O         23.5630  -12.0440  -28.3650 O.2   228  LEU228     -0.2864
     33  CB        23.3720   -9.7560  -30.0260 C.3   228  LEU228      0.0297
     34  CG        23.1100   -8.7680  -31.1600 C.3   228  LEU228      0.0022
     35  CD1       24.4240   -8.5670  -31.9260 C.3   228  LEU228      0.0001
     36  CD2       21.9770   -9.2260  -32.0710 C.3   228  LEU228      0.0001
     37  N         22.2100  -13.6470  -26.4090 N.3   230  SER230     -0.1202
     38  CA        22.0500  -15.1280  -26.6250 C.3   230  SER230      0.2020
     39  C         23.3760  -15.7650  -26.9290 C.2   230  SER230      0.2618
     40  O         23.6460  -16.9050  -26.5300 O.2   230  SER230     -0.2717
     41  CB        21.1890  -15.4510  -27.8390 C.3   230  SER230      0.2103
     42  OG        19.8130  -15.3280  -27.5330 O.3   230  SER230     -0.2182
     43  N         24.2100  -15.0230  -27.6490 N.am  231  VAL231     -0.1979
     44  CA        25.4030  -15.5970  -28.2160 C.3   231  VAL231      0.1595
     45  C         26.5450  -15.6360  -27.2390 C.2   231  VAL231      0.2287
     46  O         27.5890  -16.2110  -27.5480 O.2   231  VAL231     -0.2864
     47  CB        25.8020  -14.9360  -29.5690 C.3   231  VAL231      0.0276
     48  CG1       24.5810  -14.8890  -30.5000 C.3   231  VAL231      0.0022
     49  CG2       26.4660  -13.5550  -29.3710 C.3   231  VAL231      0.0022
     50  N         18.6790  -19.8790  -30.1650 N.3   242  ALA242     -0.1245
     51  CA        18.7130  -19.9730  -31.6310 C.3   242  ALA242      0.1562
     52  C         17.4840  -20.7080  -32.2110 C.2   242  ALA242      0.2260
     53  O         16.9010  -20.2540  -33.1960 O.2   242  ALA242     -0.2867
     54  CB        20.0110  -20.6130  -32.0860 C.3   242  ALA242      0.0290
     55  N         14.6420  -18.2540  -32.0470 N.3   245  ILE245     -0.1231
     56  CA        14.8810  -17.1830  -33.0260 C.3   245  ILE245      0.1692
     57  C         14.4020  -17.6340  -34.4060 C.2   245  ILE245      0.2592
     58  O         13.6180  -16.9340  -35.0660 O.2   245  ILE245     -0.2718
     59  CB        16.3810  -16.7620  -33.0500 C.3   245  ILE245      0.0266
     60  CG1       16.6690  -15.7780  -31.9080 C.3   245  ILE245      0.0019
     61  CG2       16.7450  -16.0940  -34.3240 C.3   245  ILE245      0.0020
     62  CD1       18.1110  -15.7600  -31.3900 C.3   245  ILE245      0.0001
     63  N         14.8360  -18.8340  -34.8070 N.am  246  TYR246     -0.1976
     64  CA        14.5110  -19.3570  -36.1180 C.3   246  TYR246      0.1639
     65  C         13.0560  -19.7470  -36.2080 C.2   246  TYR246      0.2290
     66  O         12.4300  -19.5620  -37.2400 O.2   246  TYR246     -0.2864
     67  CB        15.4600  -20.4870  -36.5060 C.3   246  TYR246      0.0560
     68  CG        16.7850  -19.9720  -37.0300 C.ar  246  TYR246     -0.0198
     69  CD1       16.9530  -19.6920  -38.3860 C.ar  246  TYR246     -0.0009
     70  CD2       17.8620  -19.7450  -36.1760 C.ar  246  TYR246     -0.0009
     71  CE1       18.1640  -19.2160  -38.8850 C.ar  246  TYR246      0.0417
     72  CE2       19.0900  -19.2820  -36.6740 C.ar  246  TYR246      0.0417
     73  CZ        19.2270  -19.0160  -38.0430 C.ar  246  TYR246      0.1957
     74  OH        20.4200  -18.5350  -38.5630 O.3   246  TYR246     -0.2866
     75  N         11.7920  -16.5320  -37.4020 N.3   249  PHE249     -0.1241
     76  CA        12.1910  -16.3830  -38.7780 C.3   249  PHE249      0.1605
     77  C         11.2850  -17.2540  -39.6570 C.2   249  PHE249      0.2264
     78  O         10.5340  -16.7350  -40.4680 O.2   249  PHE249     -0.2867
     79  CB        13.6590  -16.7440  -38.9290 C.3   249  PHE249      0.0534
     80  CG        14.6050  -15.7530  -38.2970 C.ar  249  PHE249     -0.0203
     81  CD1       14.1990  -14.4590  -38.0000 C.ar  249  PHE249     -0.0042
     82  CD2       15.9300  -16.1070  -38.0450 C.ar  249  PHE249     -0.0042
     83  CE1       15.0900  -13.5360  -37.4330 C.ar  249  PHE249     -0.0003
     84  CE2       16.8430  -15.1930  -37.4800 C.ar  249  PHE249     -0.0003
     85  CZ        16.4230  -13.9140  -37.1760 C.ar  249  PHE249     -0.0000
     86  N         17.4850  -17.7620  -44.3780 N.3   266  MET266     -0.1245
     87  CA        17.4070  -17.6000  -42.9310 C.3   266  MET266      0.1570
     88  C         15.9770  -17.7840  -42.4540 C.2   266  MET266      0.2261
     89  O         15.7430  -18.3090  -41.3620 O.2   266  MET266     -0.2867
     90  CB        17.9020  -16.2090  -42.5230 C.3   266  MET266      0.0387
     91  CG        18.2030  -16.0420  -41.0530 C.3   266  MET266      0.0595
     92  SD        18.8720  -14.4080  -40.6740 S.3   266  MET266     -0.1393
     93  CE        17.4250  -13.3310  -40.6760 C.3   266  MET266      0.0692
     94  N         24.7150  -18.9880  -38.9590 N.3   279  GLN279     -0.1245
     95  CA        25.2410  -18.5740  -37.6580 C.3   279  GLN279      0.1566
     96  C         26.6760  -18.1330  -37.7280 C.2   279  GLN279      0.2260
     97  O         27.0450  -17.1510  -37.1010 O.2   279  GLN279     -0.2867
     98  CB        25.1150  -19.6970  -36.6180 C.3   279  GLN279      0.0367
     99  CG        23.7040  -19.8690  -36.0910 C.3   279  GLN279      0.0905
    100  CD        23.0830  -18.5570  -35.5800 C.2   279  GLN279      0.2608
    101  OE1       23.3630  -18.1140  -34.4540 O.2   279  GLN279     -0.2717
    102  NE2       22.2270  -17.9530  -36.3920 N.am  279  GLN279     -0.0878
    103  N         26.8420  -14.6800  -39.1620 N.3   282  PHE282     -0.1241
    104  CA        26.3790  -13.6950  -38.1910 C.3   282  PHE282      0.1605
    105  C         27.4420  -13.4580  -37.1250 C.2   282  PHE282      0.2264
    106  O         27.7010  -12.3220  -36.7170 O.2   282  PHE282     -0.2867
    107  CB        25.0730  -14.1590  -37.5630 C.3   282  PHE282      0.0534
    108  CG        24.3970  -13.1090  -36.7560 C.ar  282  PHE282     -0.0203
    109  CD1       23.6510  -12.1070  -37.3790 C.ar  282  PHE282     -0.0042
    110  CD2       24.5050  -13.1070  -35.3750 C.ar  282  PHE282     -0.0042
    111  CE1       23.0250  -11.1360  -36.6340 C.ar  282  PHE282     -0.0003
    112  CE2       23.8910  -12.1460  -34.6370 C.ar  282  PHE282     -0.0003
    113  CZ        23.1570  -11.1630  -35.2520 C.ar  282  PHE282     -0.0000
@<TRIPOS>BOND
     1    86    87    1
     2    87    90    1
     3    87    88    1
     4    90    91    1
     5    88    89    2
     6    91    92    1
     7    93    92    1
     8    78    77    2
     9    77    76    1
    10   103   104    1
    11    94    95    1
    12    79    76    1
    13    79    80    1
    14    71    69   ar
    15    71    73   ar
    16    76    75    1
    17    74    73    1
    18    69    68   ar
    19    80    82   ar
    20    80    81   ar
    21   104   107    1
    22   104   105    1
    23    82    84   ar
    24    73    72   ar
    25    81    83   ar
    26    96    95    1
    27    96    97    2
    28    95    98    1
    29    16    15    2
    30   107   108    1
    31    84    85   ar
    32    83    85   ar
    33    15    14    1
    34   109   108   ar
    35   109   111   ar
    36    66    65    2
    37   105   106    2
    38    68    67    1
    39    68    70   ar
    40    19    18    1
    41   108   110   ar
    42    72    70   ar
    43   111   113   ar
    44    98    99    1
    45    67    64    1
    46    17    14    1
    47    17    18    1
    48   102   100   am
    49    65    64    1
    50    14    13    1
    51    64    63    1
    52    99   100    1
    53    18    20    1
    54   100   101    2
    55   110   112   ar
    56   113   112   ar
    57    58    57    2
    58    63    57   am
    59    57    56    1
    60    61    59    1
    61    53    52    2
    62    59    56    1
    63    59    60    1
    64    56    55    1
    65    52    51    1
    66    54    51    1
    67    36    34    1
    68    35    34    1
    69    60    62    1
    70    51    50    1
    71    34    33    1
    72     8    10   ar
    73     8     6   ar
    74     5     6    1
    75     5     2    1
    76    10    11   ar
    77    48    47    1
    78    28    26   ar
    79     6     7   ar
    80     1     2    1
    81    33    30    1
    82     2     3    1
    83    47    49    1
    84    47    44    1
    85    11    12    1
    86    11     9   ar
    87     7     9   ar
    88    26    25    1
    89    26    27   ar
    90     3     4    2
    91    30    29    1
    92    30    31    1
    93    25    22    1
    94    24    23    2
    95    32    31    2
    96    29    23   am
    97    44    43    1
    98    44    45    1
    99    23    22    1
   100    41    42    1
   101    41    38    1
   102    22    21    1
   103    43    39   am
   104    46    45    2
   105    39    38    1
   106    39    40    2
   107    38    37    1
