@<TRIPOS>MOLECULE
tmp/4ajhB02.pdb
 123 112 0 0 0
SMALL
GASTEIGER

@<TRIPOS>ATOM
      1  N          1.1110    1.1470   11.2820 N.3    30  VAL30      -0.1245
      2  CA         1.0100    2.0450   12.4510 C.3    30  VAL30       0.1561
      3  C          0.6200    1.2740   13.6980 C.2    30  VAL30       0.2260
      4  O          1.2690    1.4330   14.7240 O.2    30  VAL30      -0.2867
      5  CB         0.1410    3.2980   12.2060 C.3    30  VAL30       0.0252
      6  CG1        0.0330    4.1640   13.4650 C.3    30  VAL30       0.0019
      7  CG2        0.7340    4.1130   11.0760 C.3    30  VAL30       0.0019
      8  N         -6.1420    2.9740   15.3120 N.3    94  THR94      -0.1218
      9  CA        -5.2490    3.2820   14.1870 C.3    94  THR94       0.1862
     10  C         -5.8910    2.8620   12.8470 C.2    94  THR94       0.2287
     11  O         -5.2670    3.0340   11.7960 O.2    94  THR94      -0.2866
     12  CB        -3.8480    2.6070   14.3770 C.3    94  THR94       0.1770
     13  OG1       -3.9310    1.2120   14.0810 O.3    94  THR94      -0.2211
     14  CG2       -3.2450    2.7900   15.7980 C.3    94  THR94       0.0375
     15  N         -5.3350    5.6200    4.7280 N.3    98  ARG98      -0.1231
     16  CA        -4.1690    6.4740    4.9310 C.3    98  ARG98       0.1694
     17  C         -4.0180    7.3270    3.6820 C.2    98  ARG98       0.2591
     18  O         -4.4250    6.8980    2.6000 O.2    98  ARG98      -0.2718
     19  CB        -2.9290    5.6130    5.1370 C.3    98  ARG98       0.0321
     20  CG        -2.9780    4.8310    6.4520 C.3    98  ARG98       0.0489
     21  CD        -1.9630    3.7180    6.4490 C.3    98  ARG98       0.2205
     22  NE        -2.4250    2.5430    5.7100 N.pl3  98  ARG98      -0.0865
     23  CZ        -1.7040    1.8950    4.8010 C.cat  98  ARG98       0.5346
     24  NH1       -0.4740    2.3040    4.5010 N.pl3  98  ARG98       0.1354
     25  NH2       -2.2050    0.8330    4.1830 N.pl3  98  ARG98       0.1354
     26  N         -3.4460    8.5310    3.8260 N.am   99  GLN99      -0.1979
     27  CA        -3.2870    9.4510    2.7060 C.3    99  GLN99       0.1601
     28  C         -2.2180    9.0280    1.7280 C.2    99  GLN99       0.2287
     29  O         -1.1500    8.5760    2.1310 O.2    99  GLN99      -0.2864
     30  CB        -3.0720   10.9060    3.1720 C.3    99  GLN99       0.0394
     31  CG        -1.7140   11.2370    3.8650 C.3    99  GLN99       0.0908
     32  CD        -1.5740   10.7880    5.3130 C.2    99  GLN99       0.2608
     33  OE1       -2.3910   10.0240    5.8450 O.2    99  GLN99      -0.2717
     34  NE2       -0.5170   11.2670    5.9940 N.am   99  GLN99      -0.0878
     35  N         -4.7330   14.8030    4.4940 N.3   105  ARG105     -0.1245
     36  CA        -5.2860   13.9340    5.5460 C.3   105  ARG105      0.1563
     37  C         -6.8080   14.2570    5.6620 C.2   105  ARG105      0.2260
     38  O         -7.6290   13.3640    5.8830 O.2   105  ARG105     -0.2867
     39  CB        -4.6030   14.2290    6.8960 C.3   105  ARG105      0.0307
     40  CG        -3.1900   13.6580    7.0470 C.3   105  ARG105      0.0489
     41  CD        -2.6010   14.1800    8.3540 C.3   105  ARG105      0.2205
     42  NE        -1.1980   13.8160    8.5750 N.pl3 105  ARG105     -0.0865
     43  CZ        -0.1560   14.5090    8.1280 C.cat 105  ARG105      0.5346
     44  NH1       -0.3350   15.5520    7.3270 N.pl3 105  ARG105      0.1354
     45  NH2        1.0730   14.1540    8.4630 N.pl3 105  ARG105      0.1354
     46  N         -5.5010    7.8100   16.6190 N.3   135  VAL135     -0.1231
     47  CA        -4.2770    7.9470   15.8030 C.3   135  VAL135      0.1692
     48  C         -4.6460    8.1600   14.3200 C.2   135  VAL135      0.2593
     49  O         -3.9420    8.8930   13.6200 O.2   135  VAL135     -0.2718
     50  CB        -3.2640    6.7710   16.0170 C.3   135  VAL135      0.0266
     51  CG1       -1.9080    7.0860   15.3770 C.3   135  VAL135      0.0020
     52  CG2       -3.0770    6.4630   17.5210 C.3   135  VAL135      0.0020
     53  N         -5.7620    7.5200   13.8500 N.am  136  SER136     -0.1938
     54  CA        -6.2750    7.5860   12.4700 C.3   136  SER136      0.2055
     55  C         -6.4480    9.0380   12.0470 C.2   136  SER136      0.2643
     56  O         -6.7410    9.8840   12.8890 O.2   136  SER136     -0.2714
     57  CB        -7.6350    6.8980   12.3760 C.3   136  SER136      0.2130
     58  OG        -7.6220    5.6490   13.0340 O.3   136  SER136     -0.2179
     59  N         -6.2920    9.3160   10.7510 N.am  137  ASN137     -0.1971
     60  CA        -6.3830   10.6740   10.2140 C.3   137  ASN137      0.1688
     61  C         -7.6560   11.0040    9.4300 C.2   137  ASN137      0.2292
     62  O         -8.2450   10.1030    8.8220 O.2   137  ASN137     -0.2864
     63  CB        -5.1360   10.9940    9.3880 C.3   137  ASN137      0.1181
     64  CG        -3.9930   11.3790   10.2630 C.2   137  ASN137      0.2629
     65  OD1       -4.1000   12.3120   11.0750 O.2   137  ASN137     -0.2716
     66  ND2       -2.8930   10.6580   10.1330 N.am  137  ASN137     -0.0877
     67  N          3.8400   14.0080   17.6340 N.3   164  LEU164     -0.1245
     68  CA         4.8610   13.6390   16.6620 C.3   164  LEU164      0.1561
     69  C          5.4050   14.8590   15.8970 C.2   164  LEU164      0.2260
     70  O          6.6070   14.9230   15.6490 O.2   164  LEU164     -0.2867
     71  CB         4.3070   12.5590   15.6950 C.3   164  LEU164      0.0270
     72  CG         5.1590   12.1860   14.4870 C.3   164  LEU164      0.0019
     73  CD1        6.5270   11.7260   14.9120 C.3   164  LEU164      0.0001
     74  CD2        4.4360   11.1400   13.6260 C.3   164  LEU164      0.0001
     75  N          9.2820   15.8810   15.8830 N.3   168  ARG168     -0.1245
     76  CA        10.0160   16.1280   14.6360 C.3   168  ARG168      0.1563
     77  C         10.6900   17.5080   14.7000 C.2   168  ARG168      0.2260
     78  O         11.8680   17.6380   14.3520 O.2   168  ARG168     -0.2867
     79  CB         9.0910   16.0280   13.4110 C.3   168  ARG168      0.0307
     80  CG         8.7480   14.5860   13.0340 C.3   168  ARG168      0.0489
     81  CD         7.6270   14.5510   12.0040 C.3   168  ARG168      0.2205
     82  NE         7.4140   13.2270   11.3940 N.pl3 168  ARG168     -0.0865
     83  CZ         6.2270   12.7600   11.0030 C.cat 168  ARG168      0.5346
     84  NH1        5.1300   13.4960   11.1520 N.pl3 168  ARG168      0.1354
     85  NH2        6.1270   11.5500   10.4710 N.pl3 168  ARG168      0.1354
     86  N         -2.8500   18.5500   13.1310 N.3   192  HIS192     -0.1241
     87  CA        -1.7720   17.6370   12.7900 C.3   192  HIS192      0.1621
     88  C         -1.9090   17.5180   11.2540 C.2   192  HIS192      0.2264
     89  O         -2.5520   16.5960   10.7410 O.2   192  HIS192     -0.2867
     90  CB        -1.9780   16.2650   13.4710 C.3   192  HIS192      0.0745
     91  CG        -1.1040   15.1910   12.8930 C.ar  192  HIS192      0.0817
     92  ND1        0.2770   15.2830   12.9400 N.ar  192  HIS192     -0.2268
     93  CD2       -1.4410   14.0750   12.2070 C.ar  192  HIS192      0.1154
     94  CE1        0.7340   14.1990   12.3350 C.ar  192  HIS192      0.1986
     95  NE2       -0.2580   13.4520   11.8630 N.ar  192  HIS192     -0.2212
     96  N          5.5790   13.5140    6.8600 N.3   237  ALA237     -0.1245
     97  CA         4.8650   12.2710    6.5580 C.3   237  ALA237      0.1562
     98  C          4.8610   12.0180    5.0640 C.2   237  ALA237      0.2260
     99  O          5.0420   10.8790    4.6680 O.2   237  ALA237     -0.2867
    100  CB         3.4170   12.2870    7.0870 C.3   237  ALA237      0.0290
    101  N          6.3980    8.8570    3.1780 N.3   241  ILE241     -0.1245
    102  CA         5.4600    8.0700    2.3440 C.3   241  ILE241      0.1561
    103  C          6.0600    7.9040    0.9360 C.2   241  ILE241      0.2260
    104  O          6.0640    6.8060    0.4080 O.2   241  ILE241     -0.2867
    105  CB         4.0180    8.7030    2.3220 C.3   241  ILE241      0.0252
    106  CG1        3.3120    8.5050    3.6810 C.3   241  ILE241      0.0019
    107  CG2        3.1420    8.1560    1.1600 C.3   241  ILE241      0.0019
    108  CD1        2.0910    9.4330    3.9290 C.3   241  ILE241      0.0001
    109  N          4.3970    5.6630    6.8960 N.3   247  THR247     -0.1218
    110  CA         5.2080    6.0380    8.0620 C.3   247  THR247      0.1862
    111  C          4.7280    5.0840    9.1520 C.2   247  THR247      0.2287
    112  O          3.5540    4.6880    9.1430 O.2   247  THR247     -0.2866
    113  CB         5.0850    7.5320    8.4810 C.3   247  THR247      0.1770
    114  OG1        3.9750    7.6830    9.3630 O.3   247  THR247     -0.2211
    115  CG2        4.9440    8.4950    7.3020 C.3   247  THR247      0.0375
    116  N          5.5820    7.4580   14.5170 N.3   251  ILE251     -0.1245
    117  CA         4.2070    7.5280   15.0670 C.3   251  ILE251      0.1561
    118  C          3.9990    6.4790   16.1750 C.2   251  ILE251      0.2260
    119  O          3.4060    6.8000   17.1970 O.2   251  ILE251     -0.2867
    120  CB         3.0760    7.5720   13.9970 C.3   251  ILE251      0.0252
    121  CG1        1.6760    7.8370   14.6110 C.3   251  ILE251      0.0019
    122  CG2        3.0620    6.3220   13.0910 C.3   251  ILE251      0.0019
    123  CD1        1.5440    9.1500   15.3890 C.3   251  ILE251      0.0001
@<TRIPOS>BOND
     1   104   103    2
     2   103   102    1
     3   107   105    1
     4    28    29    2
     5    28    27    1
     6   105   102    1
     7   105   106    1
     8   102   101    1
     9    18    17    2
    10    27    30    1
    11    27    26    1
    12    30    31    1
    13   106   108    1
    14    17    26   am
    15    17    16    1
    16    31    32    1
    17    25    23    1
    18    35    36    1
    19    24    23    1
    20    99    98    2
    21    15    16    1
    22    23    22    2
    23    16    19    1
    24    98    97    1
    25    19    20    1
    26    32    33    2
    27    32    34   am
    28    36    37    1
    29    36    39    1
    30    37    38    2
    31    22    21    1
    32    21    20    1
    33    97    96    1
    34    97   100    1
    35   109   110    1
    36    39    40    1
    37    40    41    1
    38   115   113    1
    39    44    43    1
    40   110   113    1
    41   110   111    1
    42    43    45    1
    43    43    42    2
    44    41    42    1
    45   113   114    1
    46    62    61    2
    47   112   111    2
    48    63    60    1
    49    63    64    1
    50    61    60    1
    51    66    64   am
    52    60    59    1
    53    64    65    2
    54    85    83    1
    55    89    88    2
    56    59    55   am
    57    83    84    1
    58    83    82    2
    59     7     5    1
    60    88    87    1
    61     1     2    1
    62    82    81    1
    63    11    10    2
    64    95    93   ar
    65    95    94   ar
    66    81    80    1
    67    55    54    1
    68    55    56    2
    69     5     2    1
    70     5     6    1
    71    93    91   ar
    72    94    92   ar
    73    57    54    1
    74    57    58    1
    75     2     3    1
    76    54    53    1
    77    87    86    1
    78    87    90    1
    79    10     9    1
    80    91    92   ar
    81    91    90    1
    82    80    79    1
    83   122   120    1
    84    79    76    1
    85    49    48    2
    86    74    72    1
    87     3     4    2
    88    53    48   am
    89   120   121    1
    90   120   117    1
    91    13    12    1
    92     9    12    1
    93     9     8    1
    94    48    47    1
    95    78    77    2
    96    12    14    1
    97    72    73    1
    98    72    71    1
    99   116   117    1
   100   121   123    1
   101    76    77    1
   102    76    75    1
   103   117   118    1
   104    51    50    1
   105    70    69    2
   106    71    68    1
   107    47    50    1
   108    47    46    1
   109    69    68    1
   110    50    52    1
   111   118   119    2
   112    68    67    1
