@<TRIPOS>MOLECULE
tmp/4ajiC00.pdb
 154 145 0 0 0
SMALL
GASTEIGER

@<TRIPOS>ATOM
      1  N         27.2030    6.7380   51.9380 N.3    29  ALA29      -0.1231
      2  CA        25.8230    6.6580   51.4760 C.3    29  ALA29       0.1694
      3  C         25.6920    7.2160   50.0740 C.2    29  ALA29       0.2591
      4  O         25.0040    6.6290   49.2330 O.2    29  ALA29      -0.2718
      5  CB        24.8710    7.3670   52.4420 C.3    29  ALA29       0.0304
      6  N         26.3740    8.3270   49.8040 N.am   30  VAL30      -0.1980
      7  CA        26.3100    8.9350   48.4680 C.3    30  VAL30       0.1595
      8  C         26.9300    8.0370   47.3990 C.2    30  VAL30       0.2287
      9  O         26.3530    7.8270   46.3340 O.2    30  VAL30      -0.2864
     10  CB        26.9590   10.3360   48.4580 C.3    30  VAL30       0.0276
     11  CG1       27.0850   10.8900   47.0500 C.3    30  VAL30       0.0022
     12  CG2       26.1250   11.2620   49.3050 C.3    30  VAL30       0.0022
     13  N         33.2630   10.5960   45.1430 N.3    94  THR94      -0.1203
     14  CA        32.3310   10.9050   46.2410 C.3    94  THR94       0.1994
     15  C         32.9860   10.8800   47.6130 C.2    94  THR94       0.2618
     16  O         32.3090   11.1290   48.6010 O.2    94  THR94      -0.2717
     17  CB        31.1260    9.9470   46.2670 C.3    94  THR94       0.1784
     18  OG1       31.5210    8.6730   46.8120 O.3    94  THR94      -0.2211
     19  CG2       30.5710    9.7630   44.8520 C.3    94  THR94       0.0376
     20  N         34.2940   10.6120   47.6710 N.am   95  ALA95      -0.1965
     21  CA        34.9810   10.5000   48.9530 C.3    95  ALA95       0.1728
     22  C         35.3030   11.8770   49.5280 C.2    95  ALA95       0.2617
     23  O         35.3850   12.8930   48.7970 O.2    95  ALA95      -0.2715
     24  CB        36.2600    9.6710   48.8270 C.3    95  ALA95       0.0334
     25  N         35.5090   11.8890   50.8400 N.am   96  GLY96      -0.1940
     26  CA        35.9030   13.0920   51.5660 C.3    96  GLY96       0.2014
     27  C         34.9380   13.4030   52.6870 C.2    96  GLY96       0.2639
     28  O         33.9420   12.7090   52.8930 O.2    96  GLY96      -0.2714
     29  N         35.2270   14.4760   53.4020 N.am   97  ALA97      -0.1963
     30  CA        34.3730   14.8970   54.4890 C.3    97  ALA97       0.1728
     31  C         33.0560   15.4330   53.9170 C.2    97  ALA97       0.2616
     32  O         33.0020   15.9120   52.7810 O.2    97  ALA97      -0.2715
     33  CB        35.0840   15.9650   55.3170 C.3    97  ALA97       0.0334
     34  N         32.0060   15.3740   54.7150 N.am   98  ARG98      -0.1963
     35  CA        30.7540   16.0520   54.3880 C.3    98  ARG98       0.1729
     36  C         30.3620   16.9640   55.5360 C.2    98  ARG98       0.2616
     37  O         30.8550   16.8150   56.6330 O.2    98  ARG98      -0.2715
     38  CB        29.6450   15.0350   54.0910 C.3    98  ARG98       0.0348
     39  CG        29.3840   14.0290   55.2010 C.3    98  ARG98       0.0492
     40  CD        28.1850   13.1570   54.8360 C.3    98  ARG98       0.2205
     41  NE        27.8310   12.1530   55.8380 N.pl3  98  ARG98      -0.0865
     42  CZ        26.9580   12.3260   56.8290 C.cat  98  ARG98       0.5346
     43  NH1       26.3160   13.4890   57.0020 N.pl3  98  ARG98       0.1354
     44  NH2       26.7160   11.3100   57.6590 N.pl3  98  ARG98       0.1354
     45  N         29.4850   17.9190   55.2670 N.am   99  GLN99      -0.1977
     46  CA        29.1550   18.9200   56.2570 C.3    99  GLN99       0.1601
     47  C         28.2770   18.3680   57.3890 C.2    99  GLN99       0.2287
     48  O         27.4070   17.5210   57.1780 O.2    99  GLN99      -0.2864
     49  CB        28.5270   20.1650   55.6110 C.3    99  GLN99       0.0394
     50  CG        27.1180   20.0280   55.0590 C.3    99  GLN99       0.0908
     51  CD        27.0920   19.4570   53.6590 C.2    99  GLN99       0.2608
     52  OE1       27.9940   18.6970   53.2750 O.2    99  GLN99      -0.2717
     53  NE2       26.0570   19.7980   52.8930 N.am   99  GLN99      -0.0878
     54  N         29.1680   23.6940   52.9450 N.3   105  ARG105     -0.1245
     55  CA        29.9880   22.8550   52.0760 C.3   105  ARG105      0.1563
     56  C         31.3700   23.4690   51.8590 C.2   105  ARG105      0.2260
     57  O         32.3550   22.7480   51.7320 O.2   105  ARG105     -0.2867
     58  CB        29.3120   22.6600   50.7330 C.3   105  ARG105      0.0307
     59  CG        28.0150   21.8670   50.7970 C.3   105  ARG105      0.0489
     60  CD        27.3290   21.9350   49.4430 C.3   105  ARG105      0.2205
     61  NE        26.0120   21.3040   49.4000 N.pl3 105  ARG105     -0.0865
     62  CZ        24.8500   21.9140   49.6480 C.cat 105  ARG105      0.5346
     63  NH1       24.7930   23.1860   50.0460 N.pl3 105  ARG105      0.1354
     64  NH2       23.7200   21.2360   49.5160 N.pl3 105  ARG105      0.1354
     65  N         31.6460   14.7730   42.7800 N.3   135  VAL135     -0.1231
     66  CA        30.4370   14.9000   43.6010 C.3   135  VAL135      0.1692
     67  C         30.7570   15.4940   44.9640 C.2   135  VAL135      0.2593
     68  O         29.9530   16.2550   45.5100 O.2   135  VAL135     -0.2718
     69  CB        29.7210   13.5310   43.7760 C.3   135  VAL135      0.0266
     70  CG1       28.3560   13.6970   44.4410 C.3   135  VAL135      0.0020
     71  CG2       29.5660   12.8420   42.4190 C.3   135  VAL135      0.0020
     72  N         31.9120   15.1290   45.5210 N.am  136  SER136     -0.1938
     73  CA        32.3870   15.6730   46.7850 C.3   136  SER136      0.2055
     74  C         32.3070   17.2140   46.8450 C.2   136  SER136      0.2643
     75  O         32.4640   17.8870   45.8320 O.2   136  SER136     -0.2714
     76  CB        33.8280   15.2200   46.9990 C.3   136  SER136      0.2130
     77  OG        33.9060   13.8040   46.9200 O.3   136  SER136     -0.2179
     78  N         32.0700   17.7450   48.0440 N.am  137  ASN137     -0.1971
     79  CA        31.8780   19.1830   48.2530 C.3   137  ASN137      0.1688
     80  C         33.0560   19.9280   48.9020 C.2   137  ASN137      0.2292
     81  O         33.8330   19.3420   49.6490 O.2   137  ASN137     -0.2864
     82  CB        30.6080   19.4150   49.0710 C.3   137  ASN137      0.1181
     83  CG        29.3700   19.3190   48.2180 C.2   137  ASN137      0.2629
     84  OD1       29.2860   19.9650   47.1610 O.2   137  ASN137     -0.2716
     85  ND2       28.4110   18.5110   48.6530 N.am  137  ASN137     -0.0877
     86  N         21.2400   18.5560   40.7760 N.3   164  LEU164     -0.1245
     87  CA        20.3350   18.2050   41.8830 C.3   164  LEU164      0.1561
     88  C         19.4750   19.3860   42.3510 C.2   164  LEU164      0.2260
     89  O         18.2700   19.2430   42.5490 O.2   164  LEU164     -0.2867
     90  CB        21.1320   17.6240   43.0600 C.3   164  LEU164      0.0270
     91  CG        20.3550   17.2520   44.3150 C.3   164  LEU164      0.0019
     92  CD1       19.2050   16.3050   44.0100 C.3   164  LEU164      0.0001
     93  CD2       21.2830   16.6470   45.3490 C.3   164  LEU164      0.0001
     94  N         15.4830   19.5470   42.2600 N.3   168  ARG168     -0.1245
     95  CA        14.7140   19.8840   43.4490 C.3   168  ARG168      0.1563
     96  C         13.7440   21.0040   43.1270 C.2   168  ARG168      0.2260
     97  O         12.5690   20.9230   43.4450 O.2   168  ARG168     -0.2867
     98  CB        15.6420   20.2900   44.5900 C.3   168  ARG168      0.0307
     99  CG        16.2580   19.0950   45.2770 C.3   168  ARG168      0.0489
    100  CD        17.3890   19.5110   46.1940 C.3   168  ARG168      0.2205
    101  NE        17.7820   18.4340   47.1000 N.pl3 168  ARG168     -0.0865
    102  CZ        18.9810   18.3110   47.6640 C.cat 168  ARG168      0.5346
    103  NH1       19.9190   19.2250   47.4500 N.pl3 168  ARG168      0.1354
    104  NH2       19.2230   17.2770   48.4830 N.pl3 168  ARG168      0.1354
    105  N         26.6760   25.1390   43.8180 N.3   192  HIS192     -0.1241
    106  CA        25.8870   24.1130   44.5130 C.3   192  HIS192      0.1621
    107  C         26.0180   24.3660   45.9840 C.2   192  HIS192      0.2264
    108  O         26.8660   23.7850   46.6540 O.2   192  HIS192     -0.2867
    109  CB        26.3340   22.6980   44.1690 C.3   192  HIS192      0.0745
    110  CG        25.6180   21.6260   44.9570 C.ar  192  HIS192      0.0817
    111  ND1       24.2900   21.4390   44.8820 N.ar  192  HIS192     -0.2268
    112  CD2       26.0860   20.7050   45.8920 C.ar  192  HIS192      0.1154
    113  CE1       23.9270   20.4310   45.6960 C.ar  192  HIS192      0.1986
    114  NE2       25.0240   19.9900   46.3250 N.ar  192  HIS192     -0.2212
    115  N         19.4380   20.2270   51.5600 N.3   237  ALA237     -0.1245
    116  CA        20.5180   19.3730   52.0980 C.3   237  ALA237      0.1562
    117  C         20.4870   19.3980   53.6180 C.2   237  ALA237      0.2260
    118  O         20.5390   18.3530   54.2710 O.2   237  ALA237     -0.2867
    119  CB        21.8960   19.8290   51.6150 C.3   237  ALA237      0.0290
    120  N         19.4820   16.4630   56.0780 N.3   241  ILE241     -0.1245
    121  CA        20.5110   16.0330   57.0450 C.3   241  ILE241      0.1561
    122  C         19.9420   16.0540   58.4630 C.2   241  ILE241      0.2260
    123  O         20.1420   15.1030   59.2190 O.2   241  ILE241     -0.2867
    124  CB        21.8010   16.8980   56.9770 C.3   241  ILE241      0.0252
    125  CG1       22.5880   16.6350   55.6950 C.3   241  ILE241      0.0019
    126  CG2       22.7170   16.6130   58.1520 C.3   241  ILE241      0.0019
    127  CD1       23.5770   17.7270   55.3690 C.3   241  ILE241      0.0001
    128  N         21.9070   12.4410   56.7170 N.3   246  TYR246     -0.1227
    129  CA        22.6420   12.6660   55.4900 C.3   246  TYR246      0.1736
    130  C         21.6260   12.7040   54.3370 C.2   246  TYR246      0.2596
    131  O         20.4290   12.5690   54.5600 O.2   246  TYR246     -0.2718
    132  CB        23.6630   11.5300   55.2650 C.3   246  TYR246      0.0548
    133  CG        23.0000   10.1550   55.2550 C.ar  246  TYR246     -0.0200
    134  CD1       22.6850    9.5030   56.4450 C.ar  246  TYR246     -0.0009
    135  CD2       22.6770    9.5240   54.0620 C.ar  246  TYR246     -0.0009
    136  CE1       22.0590    8.2610   56.4420 C.ar  246  TYR246      0.0417
    137  CE2       22.0640    8.2850   54.0500 C.ar  246  TYR246      0.0417
    138  CZ        21.7370    7.6700   55.2400 C.ar  246  TYR246      0.1957
    139  OH        21.1300    6.4460   55.2370 O.3   246  TYR246     -0.2866
    140  N         22.0980   12.9310   53.1200 N.am  247  THR247     -0.1953
    141  CA        21.2710   12.7670   51.9250 C.3   247  THR247      0.1897
    142  C         22.0000   11.7720   51.0440 C.2   247  THR247      0.2313
    143  O         23.2420   11.6710   51.1050 O.2   247  THR247     -0.2863
    144  CB        21.0240   14.1030   51.1740 C.3   247  THR247      0.1794
    145  OG1       22.0500   14.3270   50.2000 O.3   247  THR247     -0.2208
    146  CG2       20.9700   15.2590   52.1550 C.3   247  THR247      0.0378
    147  N         20.8000   12.7050   45.2940 N.3   251  ILE251     -0.1245
    148  CA        22.1290   12.9690   44.6820 C.3   251  ILE251      0.1561
    149  C         22.5920   11.7720   43.8450 C.2   251  ILE251      0.2260
    150  O         23.2020   11.9380   42.7860 O.2   251  ILE251     -0.2867
    151  CB        23.2270   13.4040   45.7060 C.3   251  ILE251      0.0252
    152  CG1       24.5520   13.7480   44.9970 C.3   251  ILE251      0.0019
    153  CG2       23.4790   12.3280   46.7700 C.3   251  ILE251      0.0019
    154  CD1       24.4460   14.8520   43.9610 C.3   251  ILE251      0.0001
@<TRIPOS>BOND
     1    86    87    1
     2    87    88    1
     3    87    90    1
     4    94    95    1
     5    88    89    2
     6    71    69    1
     7    65    66    1
     8   150   149    2
     9    90    91    1
    10    96    97    2
    11    96    95    1
    12    95    98    1
    13    66    69    1
    14    66    67    1
    15    69    70    1
    16   105   106    1
    17   149   148    1
    18   154   152    1
    19    92    91    1
    20   109   106    1
    21   109   110    1
    22    91    93    1
    23   106   107    1
    24    98    99    1
    25   148   147    1
    26   148   151    1
    27    19    17    1
    28   111   110   ar
    29   111   113   ar
    30   110   112   ar
    31    67    68    2
    32    67    72   am
    33   152   151    1
    34    13    14    1
    35    99   100    1
    36    72    73    1
    37   113   114   ar
    38   151   153    1
    39    75    74    2
    40   112   114   ar
    41   107   108    2
    42   100   101    1
    43    14    17    1
    44    14    15    1
    45    17    18    1
    46     9     8    2
    47    73    74    1
    48    73    76    1
    49    74    78   am
    50    77    76    1
    51    11    10    1
    52   101   102    2
    53    84    83    2
    54     8     7    1
    55   103   102    1
    56    15    20   am
    57    15    16    2
    58   102   104    1
    59    20    21    1
    60    78    79    1
    61    83    85   am
    62    83    82    1
    63    79    80    1
    64    79    82    1
    65    10     7    1
    66    10    12    1
    67     7     6    1
    68    23    22    2
    69    24    21    1
    70    80    81    2
    71    21    22    1
    72     4     3    2
    73    61    60    1
    74    61    62    2
    75    60    59    1
    76    64    62    1
    77    22    25   am
    78    62    63    1
    79     6     3   am
    80     3     2    1
    81   145   144    1
    82    58    59    1
    83    58    55    1
    84    25    26    1
    85   142   143    2
    86   142   141    1
    87   144   141    1
    88   144   146    1
    89     2     1    1
    90     2     5    1
    91   115   116    1
    92    26    27    1
    93   119   116    1
    94    57    56    2
    95    56    55    1
    96   141   140    1
    97    55    54    1
    98   116   117    1
    99    27    28    2
   100    27    29   am
   101    32    31    2
   102    53    51   am
   103   140   130   am
   104    52    51    2
   105    29    30    1
   106   117   118    2
   107    51    50    1
   108    31    30    1
   109    31    34   am
   110   137   135   ar
   111   137   138   ar
   112   135   133   ar
   113    38    35    1
   114    38    39    1
   115   130   131    2
   116   130   129    1
   117    35    34    1
   118    35    36    1
   119    30    33    1
   120    40    39    1
   121    40    41    1
   122    50    49    1
   123   139   138    1
   124   138   136   ar
   125   133   132    1
   126   133   134   ar
   127   132   129    1
   128    45    36   am
   129    45    46    1
   130   127   125    1
   131   129   128    1
   132    36    37    2
   133    49    46    1
   134   125   124    1
   135    41    42    2
   136   120   121    1
   137    46    47    1
   138   136   134   ar
   139    42    43    1
   140    42    44    1
   141   124   121    1
   142   124   126    1
   143   121   122    1
   144    48    47    2
   145   122   123    2
