@<TRIPOS>MOLECULE
tmp/4ajkB00.pdb
 126 120 0 0 0
SMALL
GASTEIGER

@<TRIPOS>ATOM
      1  N         -6.4720   -1.0510   18.0140 N.3    23  VAL23      -0.1231
      2  CA        -7.3870   -1.3170   16.9040 C.3    23  VAL23       0.1692
      3  C         -6.6950   -0.9510   15.5720 C.2    23  VAL23       0.2592
      4  O         -6.3790    0.2170   15.3070 O.2    23  VAL23      -0.2718
      5  CB        -8.7790   -0.6320   17.0780 C.3    23  VAL23       0.0266
      6  CG1       -9.6780   -0.9140   15.8640 C.3    23  VAL23       0.0020
      7  CG2       -9.4470   -1.1050   18.3690 C.3    23  VAL23       0.0020
      8  N         -6.4900   -1.9690   14.7510 N.am   24  GLY24      -0.1957
      9  CA        -5.8180   -1.8210   13.4760 C.3    24  GLY24       0.1869
     10  C         -4.4480   -2.4440   13.5680 C.2    24  GLY24       0.2309
     11  O         -3.6560   -2.1040   14.4550 O.2    24  GLY24      -0.2863
     12  N         -2.3690   -2.5700   10.8570 N.3    26  GLY26      -0.1210
     13  CA        -1.5710   -2.0440    9.7530 C.3    26  GLY26       0.1956
     14  C         -0.2090   -1.6530   10.3150 C.2    26  GLY26       0.2612
     15  O          0.0680   -1.9190   11.4900 O.2    26  GLY26      -0.2717
     16  N          0.6430   -1.0090    9.5210 N.am   27  ALA27      -0.1965
     17  CA         1.9890   -0.6270    9.9730 C.3    27  ALA27       0.1728
     18  C          1.9830    0.2950   11.2220 C.2    27  ALA27       0.2616
     19  O          2.8050    0.1120   12.1320 O.2    27  ALA27      -0.2715
     20  CB         2.7600    0.0200    8.8330 C.3    27  ALA27       0.0334
     21  N          1.0370    1.2620   11.2720 N.am   28  VAL28      -0.1977
     22  CA         0.8950    2.1850   12.4180 C.3    28  VAL28       0.1596
     23  C          0.4990    1.3890   13.6720 C.2    28  VAL28       0.2287
     24  O          1.1430    1.5110   14.7180 O.2    28  VAL28      -0.2864
     25  CB        -0.0740    3.3600   12.1240 C.3    28  VAL28       0.0276
     26  CG1       -0.3690    4.1650   13.3930 C.3    28  VAL28       0.0022
     27  CG2        0.4850    4.2670   11.0190 C.3    28  VAL28       0.0022
     28  N         -7.1800   -5.8470   17.4200 N.3    48  VAL48      -0.1231
     29  CA        -8.4450   -5.9690   16.6710 C.3    48  VAL48       0.1692
     30  C         -8.2300   -5.4770   15.2500 C.2    48  VAL48       0.2592
     31  O         -7.6040   -4.4380   15.0410 O.2    48  VAL48      -0.2718
     32  CB        -9.6660   -5.2300   17.3070 C.3    48  VAL48       0.0266
     33  CG1      -10.9300   -5.4500   16.4930 C.3    48  VAL48       0.0020
     34  CG2       -9.9100   -5.6830   18.7370 C.3    48  VAL48       0.0020
     35  N         -8.7490   -6.2350   14.2840 N.am   49  ASP49      -0.1960
     36  CA        -8.7680   -5.8640   12.8790 C.3    49  ASP49       0.1840
     37  C         -9.9050   -6.6210   12.2090 C.2    49  ASP49       0.2621
     38  O        -10.6240   -7.3610   12.8950 O.2    49  ASP49      -0.2715
     39  CB        -7.3970   -6.0860   12.2050 C.3    49  ASP49       0.1450
     40  CG        -7.1390   -5.1510   11.0410 C.2    49  ASP49       0.3671
     41  OD1       -7.7430   -5.3580    9.9790 O.co2  49  ASP49      -0.2456
     42  OD2       -6.3560   -4.1890   11.2110 O.co2  49  ASP49      -0.2456
     43  N        -10.0950   -6.4110   10.8900 N.am   50  VAL50      -0.1977
     44  CA       -11.1300   -7.0650   10.0920 C.3    50  VAL50       0.1596
     45  C        -10.5800   -8.1670    9.1710 C.2    50  VAL50       0.2287
     46  O        -11.3630   -8.9640    8.6450 O.2    50  VAL50      -0.2864
     47  CB       -12.0530   -6.0560    9.3600 C.3    50  VAL50       0.0276
     48  CG1      -12.8220   -5.2070   10.3790 C.3    50  VAL50       0.0022
     49  CG2      -11.2670   -5.1840    8.3790 C.3    50  VAL50       0.0022
     50  N        -14.9600   -7.5730   19.3400 N.3    80  TYR80      -0.1241
     51  CA       -14.5510   -6.6200   20.3720 C.3    80  TYR80       0.1605
     52  C        -14.6500   -7.1070   21.8080 C.2    80  TYR80       0.2264
     53  O        -14.1530   -6.4220   22.7100 O.2    80  TYR80      -0.2867
     54  CB       -15.2540   -5.2840   20.1770 C.3    80  TYR80       0.0534
     55  CG       -14.6800   -4.4960   19.0330 C.ar   80  TYR80      -0.0201
     56  CD1      -15.1400   -4.6790   17.7310 C.ar   80  TYR80      -0.0009
     57  CD2      -13.6750   -3.5590   19.2450 C.ar   80  TYR80      -0.0009
     58  CE1      -14.6050   -3.9600   16.6680 C.ar   80  TYR80       0.0417
     59  CE2      -13.1450   -2.8200   18.1900 C.ar   80  TYR80       0.0417
     60  CZ       -13.6140   -3.0200   16.9050 C.ar   80  TYR80       0.1957
     61  OH       -13.0630   -2.2960   15.8800 O.3    80  TYR80      -0.2866
     62  N         -6.1330    3.0050   15.3210 N.3    92  THR92      -0.1203
     63  CA        -5.2330    3.3370   14.2030 C.3    92  THR92       0.1994
     64  C         -5.8670    2.8970   12.8720 C.2    92  THR92       0.2618
     65  O         -5.2330    3.0330   11.8200 O.2    92  THR92      -0.2717
     66  CB        -3.8460    2.6560   14.3770 C.3    92  THR92       0.1784
     67  OG1       -3.9420    1.2560   14.0570 O.3    92  THR92      -0.2211
     68  CG2       -3.2510    2.8320   15.7870 C.3    92  THR92       0.0376
     69  N         -7.0960    2.3420   12.9260 N.am   93  ALA93      -0.1965
     70  CA        -7.7720    1.8410   11.7310 C.3    93  ALA93       0.1728
     71  C         -8.1930    2.9310   10.7410 C.2    93  ALA93       0.2617
     72  O         -8.4590    4.0610   11.1350 O.2    93  ALA93      -0.2715
     73  CB        -8.9950    1.0310   12.1370 C.3    93  ALA93       0.0334
     74  N         -8.3130    2.5550    9.4770 N.am   94  GLY94      -0.1940
     75  CA        -8.8140    3.4430    8.4350 C.3    94  GLY94       0.2014
     76  C         -7.9060    3.6330    7.2430 C.2    94  GLY94       0.2639
     77  O         -6.7870    3.1210    7.2140 O.2    94  GLY94      -0.2714
     78  N         -8.3870    4.4000    6.2550 N.am   95  ALA95      -0.1963
     79  CA        -7.6360    4.7580    5.0650 C.3    95  ALA95       0.1728
     80  C         -6.4670    5.6870    5.4330 C.2    95  ALA95       0.2616
     81  O         -6.5730    6.4740    6.3930 O.2    95  ALA95      -0.2715
     82  CB        -8.5630    5.4560    4.0700 C.3    95  ALA95       0.0334
     83  N         -5.3600    5.6040    4.6880 N.am   96  ARG96      -0.1977
     84  CA        -4.1870    6.4690    4.9000 C.3    96  ARG96       0.1597
     85  C         -4.0070    7.3490    3.6710 C.2    96  ARG96       0.2287
     86  O         -4.3750    6.9410    2.5720 O.2    96  ARG96      -0.2864
     87  CB        -2.9110    5.6490    5.1460 C.3    96  ARG96       0.0334
     88  CG        -3.0300    4.6150    6.2550 C.3    96  ARG96       0.0492
     89  CD        -1.8640    3.6360    6.2470 C.3    96  ARG96       0.2205
     90  NE        -1.7640    2.8610    5.0040 N.pl3  96  ARG96      -0.0865
     91  CZ        -2.2050    1.6160    4.8430 C.cat  96  ARG96       0.5346
     92  NH1       -2.7910    0.9760    5.8460 N.pl3  96  ARG96       0.1354
     93  NH2       -2.0590    0.9990    3.6780 N.pl3  96  ARG96       0.1354
     94  N        -16.0220    4.1630    9.1440 N.3   113  ILE113     -0.1245
     95  CA       -15.3460    3.0910    9.8760 C.3   113  ILE113      0.1561
     96  C        -15.5170    3.2990   11.3990 C.2   113  ILE113      0.2260
     97  O        -15.8190    2.3470   12.1100 O.2   113  ILE113     -0.2867
     98  CB       -13.8630    2.9890    9.3930 C.3   113  ILE113      0.0252
     99  CG1      -13.7950    2.2500    8.0070 C.3   113  ILE113      0.0019
    100  CG2      -12.9480    2.3550   10.4300 C.3   113  ILE113      0.0019
    101  CD1      -12.4300    2.3110    7.2670 C.3   113  ILE113      0.0001
    102  N        -18.7130    2.1000   13.2860 N.3   116  PHE116     -0.1227
    103  CA       -18.7240    0.7110   13.7080 C.3   116  PHE116      0.1736
    104  C        -17.8000    0.5260   14.9030 C.2   116  PHE116      0.2595
    105  O        -18.2190   -0.0360   15.9170 O.2   116  PHE116     -0.2718
    106  CB       -18.3010   -0.2330   12.5720 C.3   116  PHE116      0.0547
    107  CG       -18.2710   -1.6940   12.9890 C.ar  116  PHE116     -0.0202
    108  CD1      -19.4510   -2.4360   13.0850 C.ar  116  PHE116     -0.0042
    109  CD2      -17.0620   -2.3280   13.2910 C.ar  116  PHE116     -0.0042
    110  CE1      -19.4230   -3.7810   13.4740 C.ar  116  PHE116     -0.0003
    111  CE2      -17.0360   -3.6720   13.6720 C.ar  116  PHE116     -0.0003
    112  CZ       -18.2160   -4.3890   13.7670 C.ar  116  PHE116     -0.0000
    113  N        -16.5390    0.9680   14.7720 N.am  117  ILE117     -0.1980
    114  CA       -15.5020    0.7980   15.8070 C.3   117  ILE117      0.1595
    115  C        -15.8170    1.3670   17.1940 C.2   117  ILE117      0.2287
    116  O        -15.7320    0.6540   18.1920 O.2   117  ILE117     -0.2864
    117  CB       -14.1050    1.2610   15.3290 C.3   117  ILE117      0.0276
    118  CG1      -13.6730    0.5250   14.0480 C.3   117  ILE117      0.0022
    119  CG2      -13.0500    1.1170   16.4970 C.3   117  ILE117      0.0022
    120  CD1      -12.2490    0.8870   13.5770 C.3   117  ILE117      0.0001
    121  N         -5.7560    7.4500   13.9460 N.3   134  SER134     -0.1217
    122  CA        -6.2400    7.4790   12.5610 C.3   134  SER134      0.1889
    123  C         -6.3700    8.9260   12.0930 C.2   134  SER134      0.2288
    124  O         -6.6420    9.8190   12.9040 O.2   134  SER134     -0.2866
    125  CB        -7.6080    6.8180   12.4610 C.3   134  SER134      0.2089
    126  OG        -7.6520    5.5470   13.0750 O.3   134  SER134     -0.2183
@<TRIPOS>BOND
     1    86    85    2
     2    85    84    1
     3    93    91    1
     4    82    79    1
     5    83    84    1
     6    83    80   am
     7    91    90    2
     8    91    92    1
     9    84    87    1
    10    90    89    1
    11    79    80    1
    12    79    78    1
    13    87    88    1
    14    80    81    2
    15    89    88    1
    16    78    76   am
    17    77    76    2
    18    76    75    1
    19   101    99    1
    20    99    98    1
    21    49    47    1
    22    75    74    1
    23    46    45    2
    24    20    17    1
    25    94    95    1
    26    45    44    1
    27    47    44    1
    28    47    48    1
    29    98    95    1
    30    98   100    1
    31    74    71   am
    32    16    17    1
    33    16    14   am
    34    13    14    1
    35    13    12    1
    36    95    96    1
    37    17    18    1
    38    41    40   ar
    39    44    43    1
    40    14    15    2
    41    71    72    2
    42    71    70    1
    43    43    37   am
    44    27    25    1
    45    40    42   ar
    46    40    39    1
    47    18    21   am
    48    18    19    2
    49    21    22    1
    50    96    97    2
    51    70    73    1
    52    70    69    1
    53    65    64    2
    54   123   122    1
    55   123   124    2
    56    25    22    1
    57    25    26    1
    58    39    36    1
    59    37    36    1
    60    37    38    2
    61    22    23    1
    62   125   122    1
    63   125   126    1
    64   122   121    1
    65   106   107    1
    66   106   103    1
    67    64    69   am
    68    64    63    1
    69    36    35    1
    70   107   108   ar
    71   107   109   ar
    72   108   110   ar
    73   102   103    1
    74   109   111   ar
    75   110   112   ar
    76     9    10    1
    77     9     8    1
    78    10    11    2
    79   120   118    1
    80    23    24    2
    81   111   112   ar
    82   103   104    1
    83   118   117    1
    84    67    66    1
    85    63    66    1
    86    63    62    1
    87    35    30   am
    88    66    68    1
    89     8     3   am
    90   113   104   am
    91   113   114    1
    92   104   105    2
    93    31    30    2
    94    30    29    1
    95     4     3    2
    96   117   114    1
    97   117   119    1
    98     3     2    1
    99   114   115    1
   100     6     5    1
   101    61    60    1
   102    33    32    1
   103    58    60   ar
   104    58    56   ar
   105    29    32    1
   106    29    28    1
   107     2     5    1
   108     2     1    1
   109    60    59   ar
   110     5     7    1
   111   115   116    2
   112    32    34    1
   113    56    55   ar
   114    59    57   ar
   115    55    57   ar
   116    55    54    1
   117    50    51    1
   118    54    51    1
   119    51    52    1
   120    52    53    2
