@<TRIPOS>MOLECULE
tmp/4ajlD00.pdb
 153 147 0 0 0
SMALL
GASTEIGER

@<TRIPOS>ATOM
      1  N          6.6100   -0.5750   54.6340 N.3    25  VAL25      -0.1231
      2  CA         6.5200   -0.3440   56.0800 C.3    25  VAL25       0.1692
      3  C          7.9110   -0.6670   56.6530 C.2    25  VAL25       0.2592
      4  O          8.3540   -1.8280   56.6260 O.2    25  VAL25      -0.2718
      5  CB         5.3960   -1.1810   56.7700 C.3    25  VAL25       0.0266
      6  CG1        5.3040   -0.8650   58.2740 C.3    25  VAL25       0.0020
      7  CG2        4.0520   -0.9540   56.1020 C.3    25  VAL25       0.0020
      8  N          8.5790    0.3610   57.1520 N.am   26  GLY26      -0.1957
      9  CA         9.9060    0.2470   57.7450 C.3    26  GLY26       0.1869
     10  C         10.9100    0.9210   56.8370 C.2    26  GLY26       0.2309
     11  O         11.1180    0.4700   55.7110 O.2    26  GLY26      -0.2863
     12  N         14.2280    1.4370   57.4950 N.3    28  GLY28      -0.1210
     13  CA        15.6010    1.0510   57.7870 C.3    28  GLY28       0.1956
     14  C         16.3180    0.7920   56.4680 C.2    28  GLY28       0.2612
     15  O         15.7780    1.0740   55.3820 O.2    28  GLY28      -0.2717
     16  N         17.5530    0.2850   56.5390 N.am   29  ALA29      -0.1965
     17  CA        18.3610    0.0280   55.3440 C.3    29  ALA29       0.1728
     18  C         17.7020   -0.9700   54.3640 C.2    29  ALA29       0.2616
     19  O         17.7290   -0.7260   53.1570 O.2    29  ALA29      -0.2715
     20  CB        19.7560   -0.4220   55.7410 C.3    29  ALA29       0.0334
     21  N         17.0620   -2.0440   54.8690 N.am   30  VAL30      -0.1963
     22  CA        16.3350   -2.9890   53.9910 C.3    30  VAL30       0.1727
     23  C         15.1590   -2.2970   53.2990 C.2    30  VAL30       0.2616
     24  O         15.0100   -2.4130   52.0770 O.2    30  VAL30      -0.2715
     25  CB        15.8640   -4.2680   54.7310 C.3    30  VAL30       0.0290
     26  CG1       14.9740   -5.1280   53.8330 C.3    30  VAL30       0.0023
     27  CG2       17.0560   -5.0770   55.2190 C.3    30  VAL30       0.0023
     28  N         14.3000   -1.6410   54.0790 N.am   31  GLY31      -0.1955
     29  CA        13.1310   -0.9580   53.5170 C.3    31  GLY31       0.1869
     30  C         13.4540    0.0650   52.4370 C.2    31  GLY31       0.2309
     31  O         12.7770    0.1110   51.4000 O.2    31  GLY31      -0.2863
     32  N          6.0080    4.1180   55.6950 N.3    50  VAL50      -0.1231
     33  CA         5.5130    4.1500   57.0850 C.3    50  VAL50       0.1692
     34  C          6.6270    3.7080   58.0230 C.2    50  VAL50       0.2592
     35  O          7.3360    2.7450   57.7370 O.2    50  VAL50      -0.2718
     36  CB         4.2370    3.2770   57.3200 C.3    50  VAL50       0.0266
     37  CG1        3.7290    3.3900   58.7670 C.3    50  VAL50       0.0020
     38  CG2        3.1270    3.6530   56.3620 C.3    50  VAL50       0.0020
     39  N          6.7610    4.4060   59.1570 N.am   51  ASP51      -0.1960
     40  CA         7.6890    4.0500   60.2290 C.3    51  ASP51       0.1840
     41  C          7.2270    4.7400   61.5140 C.2    51  ASP51       0.2622
     42  O          6.2540    5.4970   61.4830 O.2    51  ASP51      -0.2715
     43  CB         9.1540    4.4070   59.8890 C.3    51  ASP51       0.1450
     44  CG        10.1700    3.5240   60.5970 C.2    51  ASP51       0.3671
     45  OD1       10.3320    3.6710   61.8290 O.co2  51  ASP51      -0.2456
     46  OD2       10.7750    2.6650   59.9310 O.co2  51  ASP51      -0.2456
     47  N          7.8880    4.4490   62.6380 N.am   52  VAL52      -0.1963
     48  CA         7.5530    5.0590   63.9230 C.3    52  VAL52       0.1727
     49  C          8.5130    6.2130   64.2870 C.2    52  VAL52       0.2616
     50  O          8.2220    6.9710   65.2050 O.2    52  VAL52      -0.2715
     51  CB         7.3670    4.0220   65.0650 C.3    52  VAL52       0.0290
     52  CG1        6.1440    3.1460   64.8040 C.3    52  VAL52       0.0023
     53  CG2        8.6210    3.1680   65.2590 C.3    52  VAL52       0.0023
     54  N          9.6500    6.3450   63.5660 N.am   53  ILE53      -0.1977
     55  CA        10.6040    7.4280   63.8340 C.3    53  ILE53       0.1596
     56  C         10.2640    8.5340   62.8450 C.2    53  ILE53       0.2287
     57  O         10.5850    8.4250   61.6550 O.2    53  ILE53      -0.2864
     58  CB        12.0900    6.9800   63.7690 C.3    53  ILE53       0.0276
     59  CG1       12.3440    5.7600   64.7130 C.3    53  ILE53       0.0022
     60  CG2       13.0060    8.1690   64.1380 C.3    53  ILE53       0.0022
     61  CD1       13.7460    5.0510   64.5270 C.3    53  ILE53       0.0001
     62  N         -1.4370    4.9570   59.2160 N.3    82  TYR82      -0.1241
     63  CA        -1.6790    4.0010   58.1450 C.3    82  TYR82       0.1605
     64  C         -2.6720    4.4450   57.0870 C.2    82  TYR82       0.2264
     65  O         -2.7600    3.7950   56.0520 O.2    82  TYR82      -0.2867
     66  CB        -1.9540    2.5950   58.7010 C.3    82  TYR82       0.0534
     67  CG        -0.6850    1.9100   59.1680 C.ar   82  TYR82      -0.0201
     68  CD1       -0.1140    2.2160   60.4000 C.ar   82  TYR82      -0.0009
     69  CD2       -0.0290    0.9890   58.3550 C.ar   82  TYR82      -0.0009
     70  CE1        1.0410    1.5730   60.8420 C.ar   82  TYR82       0.0417
     71  CE2        1.1520    0.3700   58.7700 C.ar   82  TYR82       0.0417
     72  CZ         1.6740    0.6540   60.0190 C.ar   82  TYR82       0.1957
     73  OH         2.8280    0.0330   60.4270 O.3    82  TYR82      -0.2866
     74  N          9.0120   -4.4370   56.1130 N.3    94  THR94      -0.1203
     75  CA        10.4540   -4.4700   56.4200 C.3    94  THR94       0.1994
     76  C         10.6700   -3.7540   57.7650 C.2    94  THR94       0.2618
     77  O         11.6350   -3.0010   57.9250 O.2    94  THR94      -0.2717
     78  CB        11.2780   -3.7580   55.3430 C.3    94  THR94       0.1784
     79  OG1       10.9040   -2.3820   55.3300 O.3    94  THR94      -0.2211
     80  CG2       11.1290   -4.3760   53.9400 C.3    94  THR94       0.0376
     81  N          9.7400   -3.9150   58.6980 N.am   95  ALA95      -0.1965
     82  CA         9.8480   -3.2780   60.0080 C.3    95  ALA95       0.1728
     83  C         10.2520   -4.3030   61.0610 C.2    95  ALA95       0.2617
     84  O          9.9770   -5.4930   60.8910 O.2    95  ALA95      -0.2715
     85  CB         8.5040   -2.6730   60.3810 C.3    95  ALA95       0.0334
     86  N         10.8560   -3.8310   62.1520 N.am   96  GLY96      -0.1940
     87  CA        11.2290   -4.6690   63.2880 C.3    96  GLY96       0.2014
     88  C         12.7130   -4.8150   63.5530 C.2    96  GLY96       0.2639
     89  O         13.5390   -4.2360   62.8490 O.2    96  GLY96      -0.2714
     90  N         13.0630   -5.5900   64.5890 N.am   97  ALA97      -0.1963
     91  CA        14.4640   -5.8470   64.9420 C.3    97  ALA97       0.1728
     92  C         15.1780   -6.5580   63.7910 C.2    97  ALA97       0.2616
     93  O         14.5680   -7.3570   63.0850 O.2    97  ALA97      -0.2715
     94  CB        14.5360   -6.7050   66.2000 C.3    97  ALA97       0.0334
     95  N         16.4630   -6.2600   63.6020 N.am   98  ARG98      -0.1977
     96  CA        17.2850   -6.9150   62.5840 C.3    98  ARG98       0.1597
     97  C         18.4250   -7.6310   63.2690 C.2    98  ARG98       0.2287
     98  O         18.7470   -7.3000   64.4210 O.2    98  ARG98      -0.2864
     99  CB        17.7770   -5.9320   61.4960 C.3    98  ARG98       0.0334
    100  CG        18.5710   -4.7260   62.0100 C.3    98  ARG98       0.0492
    101  CD        19.1490   -3.9250   60.8560 C.3    98  ARG98       0.2205
    102  NE        19.7200   -2.6460   61.2840 N.pl3  98  ARG98      -0.0865
    103  CZ        20.9830   -2.4690   61.6580 C.cat  98  ARG98       0.5346
    104  NH1       21.8290   -3.4910   61.6730 N.pl3  98  ARG98       0.1354
    105  NH2       21.4100   -1.2680   62.0240 N.pl3  98  ARG98       0.1354
    106  N          5.6290   -6.5050   67.3100 N.3   115  ILE115     -0.1245
    107  CA         5.5340   -5.3970   66.3500 C.3   115  ILE115      0.1561
    108  C          4.4600   -5.7250   65.2850 C.2   115  ILE115      0.2260
    109  O          3.6680   -4.8490   64.9390 O.2   115  ILE115     -0.2867
    110  CB         6.9430   -5.0730   65.7560 C.3   115  ILE115      0.0252
    111  CG1        7.8120   -4.3000   66.8020 C.3   115  ILE115      0.0019
    112  CG2        6.8520   -4.3150   64.4450 C.3   115  ILE115      0.0019
    113  CD1        9.3120   -4.2680   66.5020 C.3   115  ILE115      0.0001
    114  N          0.6420   -4.8810   65.9770 N.3   118  PHE118     -0.1227
    115  CA         0.1890   -3.5050   65.7250 C.3   118  PHE118      0.1736
    116  C          0.1090   -3.2350   64.2070 C.2   118  PHE118      0.2595
    117  O         -0.8870   -2.6920   63.7190 O.2   118  PHE118     -0.2718
    118  CB         1.1510   -2.4810   66.3830 C.3   118  PHE118      0.0547
    119  CG         0.8180   -1.0320   66.0810 C.ar  118  PHE118     -0.0202
    120  CD1       -0.2130   -0.3820   66.7560 C.ar  118  PHE118     -0.0042
    121  CD2        1.5100   -0.3300   65.0990 C.ar  118  PHE118     -0.0042
    122  CE1       -0.5350    0.9470   66.4580 C.ar  118  PHE118     -0.0003
    123  CE2        1.1890    1.0010   64.8100 C.ar  118  PHE118     -0.0003
    124  CZ         0.1740    1.6310   65.4950 C.ar  118  PHE118     -0.0000
    125  N          1.1770   -3.5950   63.4820 N.am  119  ILE119     -0.1980
    126  CA         1.3220   -3.3570   62.0490 C.3   119  ILE119      0.1595
    127  C          0.2380   -3.9750   61.1690 C.2   119  ILE119      0.2287
    128  O         -0.4190   -3.2540   60.4170 O.2   119  ILE119     -0.2864
    129  CB         2.7610   -3.6910   61.5440 C.3   119  ILE119      0.0276
    130  CG1        3.7870   -2.7350   62.1740 C.3   119  ILE119      0.0022
    131  CG2        2.8320   -3.6480   59.9880 C.3   119  ILE119      0.0022
    132  CD1        5.2290   -2.9480   61.7080 C.3   119  ILE119      0.0001
    133  N          9.1890   -9.2910   54.5930 N.3   135  VAL135     -0.1231
    134  CA        10.6530   -9.2740   54.4320 C.3   135  VAL135      0.1692
    135  C         11.3370   -9.3770   55.8180 C.2   135  VAL135      0.2593
    136  O         12.4360   -9.9330   55.9280 O.2   135  VAL135     -0.2718
    137  CB        11.1060   -8.0390   53.6200 C.3   135  VAL135      0.0266
    138  CG1       12.6010   -8.0810   53.3050 C.3   135  VAL135      0.0020
    139  CG2       10.2890   -7.9130   52.3300 C.3   135  VAL135      0.0020
    140  N         10.6960   -8.8170   56.8600 N.am  136  SER136     -0.1938
    141  CA        11.1830   -8.8400   58.2580 C.3   136  SER136      0.2055
    142  C         11.4930  -10.2870   58.6950 C.2   136  SER136      0.2643
    143  O         10.8550  -11.2370   58.2080 O.2   136  SER136     -0.2714
    144  CB        10.1340   -8.2410   59.1930 C.3   136  SER136      0.2130
    145  OG         9.7350   -6.9460   58.7650 O.3   136  SER136     -0.2179
    146  N         12.4750  -10.4450   59.5960 N.am  137  ASN137     -0.1971
    147  CA        12.9350  -11.7590   60.0340 C.3   137  ASN137      0.1688
    148  C         12.4660  -12.1890   61.4150 C.2   137  ASN137      0.2292
    149  O         12.3010  -11.3320   62.2890 O.2   137  ASN137     -0.2864
    150  CB        14.4670  -11.8650   59.9050 C.3   137  ASN137      0.1181
    151  CG        14.9170  -12.1390   58.5010 C.2   137  ASN137      0.2629
    152  OD1       14.4280  -13.0630   57.8300 O.2   137  ASN137     -0.2716
    153  ND2       15.9100  -11.3940   58.0540 N.am  137  ASN137     -0.0877
@<TRIPOS>BOND
     1    31    30    2
     2    24    23    2
     3   139   137    1
     4    30    29    1
     5    19    18    2
     6    23    22    1
     7    23    28   am
     8   138   137    1
     9    29    28    1
    10   137   134    1
    11    26    25    1
    12    80    78    1
    13    22    25    1
    14    22    21    1
    15    18    21   am
    16    18    17    1
    17   134   133    1
    18   134   135    1
    19     1     2    1
    20    25    27    1
    21    79    78    1
    22    78    75    1
    23    17    20    1
    24    17    16    1
    25    15    14    2
    26    32    33    1
    27    11    10    2
    28   135   136    2
    29   135   140   am
    30    65    64    2
    31     2     3    1
    32     2     5    1
    33     7     5    1
    34    74    75    1
    35    38    36    1
    36    75    76    1
    37    14    16   am
    38    14    13    1
    39     4     3    2
    40     3     8   am
    41     5     6    1
    42    10     9    1
    43   140   141    1
    44    33    36    1
    45    33    34    1
    46    64    63    1
    47     8     9    1
    48    36    37    1
    49    12    13    1
    50    35    34    2
    51    76    77    2
    52    76    81   am
    53   152   151    2
    54    34    39   am
    55   153   151   am
    56    63    66    1
    57    63    62    1
    58   143   142    2
    59   141   142    1
    60   141   144    1
    61    69    71   ar
    62    69    67   ar
    63   151   150    1
    64   142   146   am
    65    81    82    1
    66    66    67    1
    67   145   144    1
    68    71    72   ar
    69    39    40    1
    70    67    68   ar
    71   146   147    1
    72    43    40    1
    73    43    44    1
    74   150   147    1
    75    46    44   ar
    76   131   129    1
    77    82    85    1
    78    82    83    1
    79    72    73    1
    80    72    70   ar
    81   147   148    1
    82    40    41    1
    83    68    70   ar
    84   128   127    2
    85    44    45   ar
    86   101   102    1
    87   101   100    1
    88    84    83    2
    89    83    86   am
    90   127   126    1
    91   102   103    2
    92   148   149    2
    93    42    41    2
    94    99   100    1
    95    99    96    1
    96    41    47   am
    97   129   126    1
    98   129   130    1
    99    57    56    2
   100   103   104    1
   101   103   105    1
   102   132   130    1
   103   126   125    1
   104    86    87    1
   105    96    97    1
   106    96    95    1
   107    47    48    1
   108    56    55    1
   109    89    88    2
   110    93    92    2
   111    97    98    2
   112    87    88    1
   113   125   116   am
   114    88    90   am
   115    54    55    1
   116    54    49   am
   117    95    92   am
   118   117   116    2
   119    58    55    1
   120    58    60    1
   121    58    59    1
   122    92    91    1
   123    48    49    1
   124    48    51    1
   125   116   115    1
   126    49    50    2
   127   112   110    1
   128    61    59    1
   129    90    91    1
   130    52    51    1
   131   123   121   ar
   132   123   124   ar
   133   109   108    2
   134    91    94    1
   135    51    53    1
   136   121   119   ar
   137   108   107    1
   138   124   122   ar
   139   115   114    1
   140   115   118    1
   141   110   107    1
   142   110   111    1
   143   119   118    1
   144   119   120   ar
   145   107   106    1
   146   122   120   ar
   147   113   111    1
