@<TRIPOS>MOLECULE
tmp/4ajmB00.pdb
 194 190 0 0 0
SMALL
GASTEIGER

@<TRIPOS>ATOM
      1  N         20.9790   48.4320   15.4400 N.3    76  TYR76      -0.1227
      2  CA        20.0690   47.3850   15.0170 C.3    76  TYR76       0.1736
      3  C         18.5880   47.7690   14.9100 C.2    76  TYR76       0.2595
      4  O         17.9830   47.5360   13.8680 O.2    76  TYR76      -0.2718
      5  CB        20.2640   46.1390   15.8880 C.3    76  TYR76       0.0548
      6  CG        19.3590   44.9900   15.5180 C.ar   76  TYR76      -0.0200
      7  CD1       19.4940   44.3310   14.2970 C.ar   76  TYR76      -0.0009
      8  CD2       18.3540   44.5690   16.3820 C.ar   76  TYR76      -0.0009
      9  CE1       18.6510   43.2730   13.9540 C.ar   76  TYR76       0.0417
     10  CE2       17.5220   43.5020   16.0590 C.ar   76  TYR76       0.0417
     11  CZ        17.6760   42.8520   14.8520 C.ar   76  TYR76       0.1957
     12  OH        16.8640   41.7670   14.6080 O.3    76  TYR76      -0.2866
     13  N         18.0010   48.3020   15.9710 N.am   77  HIS77      -0.1975
     14  CA        16.5800   48.6470   15.9950 C.3    77  HIS77       0.1656
     15  C         16.3120   49.9660   15.2700 C.2    77  HIS77       0.2291
     16  O         15.8940   50.9530   15.8550 O.2    77  HIS77      -0.2864
     17  CB        16.0480   48.6370   17.4330 C.3    77  HIS77       0.0771
     18  CG        16.0090   47.2590   18.0430 C.ar   77  HIS77       0.0820
     19  ND1       16.9540   46.8500   18.9690 N.ar   77  HIS77      -0.2267
     20  CD2       15.1310   46.2450   17.8460 C.ar   77  HIS77       0.1154
     21  CE1       16.6240   45.6120   19.2990 C.ar   77  HIS77       0.1986
     22  NE2       15.5290   45.2120   18.6630 N.ar   77  HIS77      -0.2212
     23  N          9.8940   39.5660   13.3180 N.3   226  ASP226     -0.1225
     24  CA        10.9020   40.2470   14.1120 C.3   226  ASP226      0.1805
     25  C         12.2560   39.5340   14.1180 C.2   226  ASP226      0.2597
     26  O         13.2960   40.1970   14.0860 O.2   226  ASP226     -0.2718
     27  CB        10.3840   40.4360   15.5360 C.3   226  ASP226      0.1424
     28  CG        10.9350   41.6450   16.2820 C.2   226  ASP226      0.3668
     29  OD1       11.7270   42.4070   15.6900 O.co2 226  ASP226     -0.2456
     30  OD2       10.6380   41.7770   17.4740 O.co2 226  ASP226     -0.2456
     31  N         12.2570   38.1750   14.1210 N.am  227  LEU227     -0.1979
     32  CA        13.5090   37.4120   14.1610 C.3   227  LEU227      0.1596
     33  C         14.0450   36.9880   12.8080 C.2   227  LEU227      0.2287
     34  O         15.1010   36.3610   12.7470 O.2   227  LEU227     -0.2864
     35  CB        13.3460   36.1780   15.0650 C.3   227  LEU227      0.0297
     36  CG        12.8560   36.3900   16.5080 C.3   227  LEU227      0.0022
     37  CD1       12.7480   35.0350   17.2240 C.3   227  LEU227      0.0001
     38  CD2       13.7720   37.3120   17.2730 C.3   227  LEU227      0.0001
     39  N         16.0050   37.7560   10.5410 N.3   229  SER229     -0.1202
     40  CA        17.4020   37.8060   10.0550 C.3   229  SER229      0.2020
     41  C         17.9930   36.3790   10.0510 C.2   229  SER229      0.2618
     42  O         18.8590   36.0490    9.2240 O.2   229  SER229     -0.2717
     43  CB        18.2680   38.7300   10.9150 C.3   229  SER229      0.2103
     44  OG        18.6410   38.1500   12.1590 O.3   229  SER229     -0.2182
     45  N         17.4630   35.5280   10.9490 N.am  230  VAL230     -0.1979
     46  CA        17.8740   34.1260   11.0500 C.3   230  VAL230      0.1595
     47  C         17.3870   33.2610    9.8830 C.2   230  VAL230      0.2287
     48  O         17.7740   32.0900    9.7870 O.2   230  VAL230     -0.2864
     49  CB        17.5140   33.4850   12.4030 C.3   230  VAL230      0.0276
     50  CG1       18.0290   34.3300   13.5600 C.3   230  VAL230      0.0022
     51  CG2       16.0170   33.2320   12.5180 C.3   230  VAL230      0.0022
     52  N         23.9460   39.8360   12.6200 N.3   241  ALA241     -0.1245
     53  CA        24.3780   39.4950   13.9690 C.3   241  ALA241      0.1562
     54  C         25.3850   40.5430   14.4510 C.2   241  ALA241      0.2260
     55  O         25.3670   40.9090   15.6290 O.2   241  ALA241     -0.2867
     56  CB        25.0030   38.1080   13.9840 C.3   241  ALA241      0.0290
     57  N         23.3750   43.5070   15.6650 N.3   244  ILE244     -0.1231
     58  CA        22.7150   43.1240   16.9240 C.3   244  ILE244      0.1692
     59  C         23.6900   43.3170   18.1200 C.2   244  ILE244      0.2592
     60  O         23.3340   44.0040   19.0790 O.2   244  ILE244     -0.2718
     61  CB        22.1440   41.6880   16.8500 C.3   244  ILE244      0.0266
     62  CG1       20.9800   41.6250   15.8540 C.3   244  ILE244      0.0019
     63  CG2       21.6720   41.2120   18.2210 C.3   244  ILE244      0.0020
     64  CD1       20.5550   40.2660   15.4080 C.3   244  ILE244      0.0001
     65  N         24.9290   42.7690   18.0290 N.am  245  TYR245     -0.1976
     66  CA        25.9570   42.9020   19.0770 C.3   245  TYR245      0.1639
     67  C         26.4750   44.3170   19.2820 C.2   245  TYR245      0.2290
     68  O         26.7040   44.6770   20.4290 O.2   245  TYR245     -0.2864
     69  CB        27.1120   41.9090   18.8960 C.3   245  TYR245      0.0560
     70  CG        26.7040   40.4670   19.1280 C.ar  245  TYR245     -0.0198
     71  CD1       26.2430   40.0420   20.3720 C.ar  245  TYR245     -0.0009
     72  CD2       26.7590   39.5340   18.0990 C.ar  245  TYR245     -0.0009
     73  CE1       25.8230   38.7250   20.5770 C.ar  245  TYR245      0.0417
     74  CE2       26.3600   38.2120   18.2960 C.ar  245  TYR245      0.0417
     75  CZ        25.8900   37.8120   19.5360 C.ar  245  TYR245      0.1957
     76  OH        25.5280   36.5040   19.7280 O.3   245  TYR245     -0.2866
     77  N         23.8840   45.6160   21.5220 N.3   248  PHE248     -0.1227
     78  CA        23.9060   44.9540   22.8260 C.3   248  PHE248      0.1736
     79  C         25.1240   45.3770   23.6460 C.2   248  PHE248      0.2595
     80  O         24.9900   45.7050   24.8370 O.2   248  PHE248     -0.2718
     81  CB        23.9200   43.4270   22.6680 C.3   248  PHE248      0.0547
     82  CG        22.6200   42.7270   22.3560 C.ar  248  PHE248     -0.0202
     83  CD1       21.4080   43.3900   22.4530 C.ar  248  PHE248     -0.0042
     84  CD2       22.6080   41.3880   21.9790 C.ar  248  PHE248     -0.0042
     85  CE1       20.2150   42.7280   22.1730 C.ar  248  PHE248     -0.0003
     86  CE2       21.4100   40.7230   21.7280 C.ar  248  PHE248     -0.0003
     87  CZ        20.2240   41.3970   21.8150 C.ar  248  PHE248     -0.0000
     88  N         26.2960   45.3560   23.0150 N.am  249  TRP249     -0.1976
     89  CA        27.5510   45.7280   23.6390 C.3   249  TRP249      0.1640
     90  C         27.5840   47.1660   24.1340 C.2   249  TRP249      0.2290
     91  O         28.0630   47.3920   25.2350 O.2   249  TRP249     -0.2864
     92  CB        28.7270   45.3700   22.7450 C.3   249  TRP249      0.0576
     93  CG        28.8380   43.8960   22.5340 C.ar  249  TRP249      0.0006
     94  CD1       28.3100   42.9120   23.3180 C.ar  249  TRP249      0.0946
     95  CD2       29.5150   43.2350   21.4610 C.ar  249  TRP249      0.0152
     96  NE1       28.6050   41.6810   22.7940 N.ar  249  TRP249     -0.2442
     97  CE2       29.3870   41.8470   21.6790 C.ar  249  TRP249      0.0810
     98  CE3       30.1990   43.6830   20.3120 C.ar  249  TRP249      0.0012
     99  CZ2       29.9550   40.9000   20.8220 C.ar  249  TRP249      0.0191
    100  CZ3       30.7350   42.7410   19.4500 C.ar  249  TRP249      0.0001
    101  CH2       30.6110   41.3670   19.7080 C.ar  249  TRP249      0.0015
    102  N         25.1930   40.6680   31.3500 N.3   263  ILE263     -0.1231
    103  CA        24.9300   39.2900   30.9590 C.3   263  ILE263      0.1678
    104  C         25.8830   38.9870   29.7930 C.2   263  ILE263      0.2434
    105  O         26.3100   39.9320   29.1170 O.2   263  ILE263     -0.2733
    106  CB        23.4490   39.1070   30.6050 C.3   263  ILE263      0.0265
    107  CG1       23.0700   39.9220   29.3440 C.3   263  ILE263      0.0019
    108  CG2       22.5880   39.4710   31.8260 C.3   263  ILE263      0.0020
    109  CD1       21.7050   39.6850   28.8220 C.3   263  ILE263      0.0001
    110  N         26.2930   37.7170   29.5830 N.am  264  PRO264     -0.2718
    111  CA        27.2890   37.4360   28.5300 C.3   264  PRO264      0.1535
    112  C         26.9830   38.0040   27.1490 C.2   264  PRO264      0.2598
    113  O         27.8820   38.5490   26.4860 O.2   264  PRO264     -0.2715
    114  CB        27.3860   35.9180   28.5300 C.3   264  PRO264      0.0310
    115  CG        26.9560   35.5240   29.9210 C.3   264  PRO264      0.0237
    116  CD        25.9070   36.4880   30.3090 C.3   264  PRO264      0.0939
    117  N         25.7080   37.9410   26.7430 N.am  265  MET265     -0.1978
    118  CA        25.3020   38.4560   25.4380 C.3   265  MET265      0.1605
    119  C         25.5590   39.9670   25.2300 C.2   265  MET265      0.2287
    120  O         25.7500   40.4090   24.0970 O.2   265  MET265     -0.2864
    121  CB        23.8700   38.0160   25.0900 C.3   265  MET265      0.0413
    122  CG        22.7860   39.0070   25.4260 C.3   265  MET265      0.0598
    123  SD        21.2470   38.2370   24.9470 S.3   265  MET265     -0.1393
    124  CE        20.1010   39.4540   25.4980 C.3   265  MET265      0.0692
    125  N         28.2180   41.5360   26.8640 N.3   267  ASP267     -0.1239
    126  CA        29.6300   41.6770   27.1940 C.3   267  ASP267      0.1674
    127  C         30.5180   41.4870   25.9660 C.2   267  ASP267      0.2266
    128  O         30.6980   40.3540   25.5070 O.2   267  ASP267     -0.2867
    129  CB        30.0120   40.6540   28.2890 C.3   267  ASP267      0.1410
    130  CG        31.2910   40.9540   29.0530 C.2   267  ASP267      0.3668
    131  OD1       32.1730   41.6600   28.4950 O.co2 267  ASP267     -0.2456
    132  OD2       31.4130   40.4820   30.2030 O.co2 267  ASP267     -0.2456
    133  N         33.2080   38.8460   25.7660 N.3   270  LYS270     -0.1245
    134  CA        32.7640   37.4520   25.6410 C.3   270  LYS270      0.1561
    135  C         32.4200   37.0890   24.2100 C.2   270  LYS270      0.2260
    136  O         31.7770   36.0900   23.9650 O.2   270  LYS270     -0.2867
    137  CB        31.6610   37.1160   26.6440 C.3   270  LYS270      0.0271
    138  CG        32.2160   37.0950   28.0640 C.3   270  LYS270      0.0035
    139  CD        31.1830   36.7720   29.1160 C.3   270  LYS270      0.0206
    140  CE        31.7980   36.8210   30.5020 C.3   270  LYS270      0.1093
    141  NZ        30.7800   36.8750   31.5920 N.3   270  LYS270     -0.1314
    142  N         32.4940   33.5880   22.5450 N.3   273  GLU273     -0.1231
    143  CA        31.3770   32.7300   22.9190 C.3   273  GLU273      0.1699
    144  C         30.0760   33.0610   22.1180 C.2   273  GLU273      0.2592
    145  O         29.0210   32.5040   22.4110 O.2   273  GLU273     -0.2718
    146  CB        31.1450   32.7900   24.4490 C.3   273  GLU273      0.0402
    147  CG        32.2260   32.1380   25.3020 C.3   273  GLU273      0.1161
    148  CD        31.8880   30.7540   25.8670 C.2   273  GLU273      0.3649
    149  OE1       30.9300   30.6640   26.6700 O.co2 273  GLU273     -0.2457
    150  OE2       32.5330   29.7580   25.4530 O.co2 273  GLU273     -0.2457
    151  N         30.1620   33.9440   21.1220 N.am  274  VAL274     -0.1980
    152  CA        29.0440   34.3420   20.2550 C.3   274  VAL274      0.1595
    153  C         28.4820   33.1320   19.4990 C.2   274  VAL274      0.2287
    154  O         27.2640   32.9130   19.5580 O.2   274  VAL274     -0.2864
    155  CB        29.4260   35.5370   19.3190 C.3   274  VAL274      0.0276
    156  CG1       28.5840   35.5820   18.0340 C.3   274  VAL274      0.0022
    157  CG2       29.3960   36.8630   20.0830 C.3   274  VAL274      0.0022
    158  N         28.4820   29.9010   20.1850 N.3   276  GLN276     -0.1231
    159  CA        27.7430   29.0630   21.0990 C.3   276  GLN276      0.1698
    160  C         26.3990   29.7210   21.4870 C.2   276  GLN276      0.2593
    161  O         25.3960   29.0290   21.5700 O.2   276  GLN276     -0.2718
    162  CB        28.6120   28.5660   22.3080 C.3   276  GLN276      0.0381
    163  CG        28.7130   29.4700   23.5710 C.3   276  GLN276      0.0905
    164  CD        27.4550   29.6630   24.4410 C.2   276  GLN276      0.2608
    165  OE1       26.6650   28.7310   24.7010 O.2   276  GLN276     -0.2717
    166  NE2       27.2600   30.8940   24.9410 N.am  276  GLN276     -0.0878
    167  N         26.3980   31.0480   21.6900 N.am  277  GLY277     -0.1942
    168  CA        25.2340   31.8350   22.0880 C.3   277  GLY277      0.2014
    169  C         24.1680   31.8230   21.0290 C.2   277  GLY277      0.2638
    170  O         22.9860   31.7060   21.3310 O.2   277  GLY277     -0.2714
    171  N         24.5920   31.9070   19.7810 N.am  278  GLN278     -0.1977
    172  CA        23.7190   31.8540   18.6220 C.3   278  GLN278      0.1601
    173  C         23.0550   30.4790   18.5270 C.2   278  GLN278      0.2287
    174  O         21.8310   30.4010   18.3940 O.2   278  GLN278     -0.2864
    175  CB        24.5360   32.1490   17.3550 C.3   278  GLN278      0.0394
    176  CG        24.9320   33.6260   17.2020 C.3   278  GLN278      0.0908
    177  CD        23.7490   34.5140   17.0200 C.2   278  GLN278      0.2608
    178  OE1       22.8800   34.2940   16.1690 O.2   278  GLN278     -0.2717
    179  NE2       23.6710   35.5250   17.8390 N.am  278  GLN278     -0.0878
    180  N         22.5130   28.2830   20.8430 N.3   280  GLY280     -0.1210
    181  CA        21.5840   28.1910   21.9430 C.3   280  GLY280      0.1956
    182  C         20.2840   28.8500   21.6070 C.2   280  GLY280      0.2611
    183  O         19.2490   28.2180   21.7890 O.2   280  GLY280     -0.2717
    184  N         20.3380   30.1130   21.0860 N.am  281  PHE281     -0.1976
    185  CA        19.1800   30.9210   20.7080 C.3   281  PHE281      0.1639
    186  C         18.3580   30.2220   19.6270 C.2   281  PHE281      0.2290
    187  O         17.1280   30.2110   19.7280 O.2   281  PHE281     -0.2864
    188  CB        19.6030   32.3200   20.2560 C.3   281  PHE281      0.0560
    189  CG        18.4500   33.2320   19.8580 C.ar  281  PHE281     -0.0200
    190  CD1       17.7040   33.9090   20.8300 C.ar  281  PHE281     -0.0042
    191  CD2       18.0740   33.3740   18.5110 C.ar  281  PHE281     -0.0042
    192  CE1       16.6290   34.7350   20.4610 C.ar  281  PHE281     -0.0003
    193  CE2       16.9790   34.1700   18.1540 C.ar  281  PHE281     -0.0003
    194  CZ        16.2750   34.8540   19.1320 C.ar  281  PHE281     -0.0000
@<TRIPOS>BOND
     1    42    41    2
     2    48    47    2
     3    47    46    1
     4    41    40    1
     5    41    45   am
     6    40    39    1
     7    40    43    1
     8    43    44    1
     9    45    46    1
    10    46    49    1
    11    49    51    1
    12    49    50    1
    13    52    53    1
    14    34    33    2
    15    33    32    1
    16    23    24    1
    17     4     3    2
    18     9     7   ar
    19     9    11   ar
    20    53    56    1
    21    53    54    1
    22    26    25    2
    23    24    25    1
    24    24    27    1
    25    25    31   am
    26    31    32    1
    27    32    35    1
    28     7     6   ar
    29    54    55    2
    30    12    11    1
    31    11    10   ar
    32     3     2    1
    33     3    13   am
    34     2     1    1
    35     2     5    1
    36    35    36    1
    37    15    16    2
    38    15    14    1
    39    64    62    1
    40     6     5    1
    41     6     8   ar
    42    27    28    1
    43    57    58    1
    44    29    28   ar
    45    62    61    1
    46    13    14    1
    47    14    17    1
    48    10     8   ar
    49   178   177    2
    50    28    30   ar
    51    36    37    1
    52    36    38    1
    53    61    58    1
    54    61    63    1
    55    58    59    1
    56   177   176    1
    57   177   179   am
    58   176   175    1
    59   175   172    1
    60    17    18    1
    61    20    18   ar
    62    20    22   ar
    63    65    59   am
    64    65    66    1
    65   156   155    1
    66    18    19   ar
    67    72    74   ar
    68    72    70   ar
    69    59    60    2
    70   193   191   ar
    71   193   194   ar
    72    74    75   ar
    73   174   173    2
    74   191   189   ar
    75   173   172    1
    76   172   171    1
    77    22    21   ar
    78    69    66    1
    79    69    70    1
    80    19    21   ar
    81    66    67    1
    82    70    71   ar
    83   194   192   ar
    84    67    68    2
    85   155   157    1
    86   155   152    1
    87   100   101   ar
    88   100    98   ar
    89   153   154    2
    90   153   152    1
    91    75    76    1
    92    75    73   ar
    93   186   187    2
    94   186   185    1
    95   101    99   ar
    96   171   169   am
    97   189   188    1
    98   189   190   ar
    99   158   159    1
   100   152   151    1
   101   188   185    1
   102    98    95   ar
   103    71    73   ar
   104   192   190   ar
   105   185   184    1
   106    99    97   ar
   107   180   181    1
   108   169   170    2
   109   169   168    1
   110   184   182   am
   111   159   160    1
   112   159   162    1
   113   151   144   am
   114    95    97   ar
   115    95    93   ar
   116   160   161    2
   117   160   167   am
   118    77    78    1
   119   182   183    2
   120   182   181    1
   121    97    96   ar
   122   167   168    1
   123    86    87   ar
   124    86    84   ar
   125    87    85   ar
   126    84    82   ar
   127   144   145    2
   128   144   143    1
   129    85    83   ar
   130   162   163    1
   131    82    83   ar
   132    82    81    1
   133    93    92    1
   134    93    94   ar
   135   142   143    1
   136    81    78    1
   137    92    89    1
   138    96    94   ar
   139    78    79    1
   140   143   146    1
   141    88    89    1
   142    88    79   am
   143   163   164    1
   144    89    90    1
   145    79    80    2
   146   136   135    2
   147   120   119    2
   148    90    91    2
   149   135   134    1
   150   164   165    2
   151   164   166   am
   152   146   147    1
   153   123   122    1
   154   123   124    1
   155   121   122    1
   156   121   118    1
   157   119   118    1
   158   147   148    1
   159   118   117    1
   160   150   148   ar
   161   128   127    2
   162   134   133    1
   163   134   137    1
   164   148   149   ar
   165   127   126    1
   166   113   112    2
   167   137   138    1
   168   117   112   am
   169   125   126    1
   170   112   111    1
   171   126   129    1
   172   138   139    1
   173   129   130    1
   174   131   130   ar
   175   114   111    1
   176   114   115    1
   177   111   110    1
   178   109   107    1
   179   130   132   ar
   180   139   140    1
   181   105   104    2
   182   107   106    1
   183   110   104   am
   184   110   116    1
   185   104   103    1
   186   115   116    1
   187   140   141    1
   188   106   103    1
   189   106   108    1
   190   103   102    1
