@<TRIPOS>MOLECULE
tmp/4ajwA00.pdb
 150 145 0 0 0
SMALL
GASTEIGER

@<TRIPOS>ATOM
      1  N         10.1220  -13.9040   -0.1090 N.3   509  THR509     -0.1203
      2  CA        11.3560  -14.3580    0.5460 C.3   509  THR509      0.1994
      3  C         11.1940  -14.5000    2.0770 C.2   509  THR509      0.2618
      4  O         10.0660  -14.5020    2.5750 O.2   509  THR509     -0.2717
      5  CB        12.5810  -13.5330    0.0670 C.3   509  THR509      0.1784
      6  OG1       13.7800  -14.1510    0.5350 O.3   509  THR509     -0.2211
      7  CG2       12.5330  -12.0650    0.5020 C.3   509  THR509      0.0376
      8  N         12.3160  -14.6590    2.8090 N.am  510  PHE510     -0.1961
      9  CA        12.3410  -14.7860    4.2670 C.3   510  PHE510      0.1771
     10  C         13.6380  -14.2200    4.8480 C.2   510  PHE510      0.2619
     11  O         14.6810  -14.2800    4.1920 O.2   510  PHE510     -0.2715
     12  CB        12.1250  -16.2520    4.7090 C.3   510  PHE510      0.0574
     13  CG        13.2990  -17.1870    4.5150 C.ar  510  PHE510     -0.0200
     14  CD1       13.5190  -17.8110    3.2930 C.ar  510  PHE510     -0.0042
     15  CD2       14.1740  -17.4570    5.5620 C.ar  510  PHE510     -0.0042
     16  CE1       14.6050  -18.6740    3.1150 C.ar  510  PHE510     -0.0003
     17  CE2       15.2600  -18.3180    5.3830 C.ar  510  PHE510     -0.0003
     18  CZ        15.4690  -18.9190    4.1610 C.ar  510  PHE510     -0.0000
     19  N         13.5750  -13.6880    6.0790 N.am  511  MET511     -0.1977
     20  CA        14.7450  -13.1520    6.7750 C.3   511  MET511      0.1605
     21  C         15.4240  -14.3000    7.5250 C.2   511  MET511      0.2287
     22  O         14.7500  -15.0480    8.2380 O.2   511  MET511     -0.2864
     23  CB        14.3390  -12.0230    7.7400 C.3   511  MET511      0.0413
     24  CG        15.5130  -11.2550    8.3100 C.3   511  MET511      0.0598
     25  SD        15.0130  -10.0680    9.5770 S.3   511  MET511     -0.1393
     26  CE        16.6030   -9.5040   10.1240 C.3   511  MET511      0.0692
     27  N         11.0380  -14.6040    9.8260 N.3   517  PRO517     -0.2116
     28  CA         9.7810  -14.0130    9.3280 C.3   517  PRO517      0.1372
     29  C          9.6360  -14.1060    7.8100 C.2   517  PRO517      0.2244
     30  O         10.6380  -14.0530    7.0970 O.2   517  PRO517     -0.2868
     31  CB         9.8410  -12.5660    9.8200 C.3   517  PRO517      0.0268
     32  CG        11.2790  -12.2710    9.9600 C.3   517  PRO517      0.0207
     33  CD        11.9800  -13.5590   10.2820 C.3   517  PRO517      0.0892
     34  N          8.3120  -12.8850    4.0020 N.3   519  TRP519     -0.1241
     35  CA         8.0990  -11.7060    3.1640 C.3   519  TRP519      0.1605
     36  C          7.1270  -12.1330    2.0650 C.2   519  TRP519      0.2264
     37  O          7.4720  -12.9850    1.2440 O.2   519  TRP519     -0.2867
     38  CB         9.4370  -11.2300    2.5680 C.3   519  TRP519      0.0550
     39  CG         9.3790   -9.9380    1.8070 C.ar  519  TRP519      0.0003
     40  CD1        9.0070   -9.7700    0.5050 C.ar  519  TRP519      0.0946
     41  CD2        9.8100   -8.6520    2.2710 C.ar  519  TRP519      0.0152
     42  NE1        9.1330   -8.4490    0.1440 N.ar  519  TRP519     -0.2442
     43  CE2        9.6280   -7.7410    1.2070 C.ar  519  TRP519      0.0810
     44  CE3       10.3120   -8.1740    3.4940 C.ar  519  TRP519      0.0012
     45  CZ2        9.9360   -6.3800    1.3260 C.ar  519  TRP519      0.0191
     46  CZ3       10.6120   -6.8250    3.6120 C.ar  519  TRP519      0.0001
     47  CH2       10.4210   -5.9440    2.5390 C.ar  519  TRP519      0.0015
     48  N          4.5790   -8.6930    5.9660 N.3   536  ILE536     -0.1245
     49  CA         5.5810   -9.4340    6.7370 C.3   536  ILE536      0.1561
     50  C          4.8580  -10.3000    7.7680 C.2   536  ILE536      0.2260
     51  O          4.1640   -9.7690    8.6360 O.2   536  ILE536     -0.2867
     52  CB         6.6780   -8.5210    7.3760 C.3   536  ILE536      0.0252
     53  CG1        7.5750   -7.8820    6.2960 C.3   536  ILE536      0.0019
     54  CG2        7.5390   -9.2980    8.3960 C.3   536  ILE536      0.0019
     55  CD1        8.3030   -6.5870    6.7250 C.3   536  ILE536      0.0001
     56  N          5.2140  -12.6410   10.8890 N.3   538  LYS538     -0.1245
     57  CA         6.1100  -12.9560   12.0020 C.3   538  LYS538      0.1561
     58  C          5.4660  -13.9620   12.9570 C.2   538  LYS538      0.2260
     59  O          4.2760  -13.8500   13.2620 O.2   538  LYS538     -0.2867
     60  CB         6.5060  -11.6710   12.7480 C.3   538  LYS538      0.0271
     61  CG         7.8340  -11.7690   13.4960 C.3   538  LYS538      0.0035
     62  CD         8.1610  -10.4900   14.2660 C.3   538  LYS538      0.0206
     63  CE         8.9930   -9.5110   13.4700 C.3   538  LYS538      0.1093
     64  NZ         9.1860   -8.2320   14.2020 N.3   538  LYS538     -0.1314
     65  N          4.8150   -3.6110   19.6940 N.3   546  ASP546     -0.1239
     66  CA         5.1920   -3.0410   18.3980 C.3   546  ASP546      0.1674
     67  C          4.0350   -2.2320   17.8020 C.2   546  ASP546      0.2266
     68  O          4.2620   -1.1300   17.3020 O.2   546  ASP546     -0.2867
     69  CB         5.6330   -4.1470   17.4230 C.3   546  ASP546      0.1410
     70  CG         6.8640   -4.9100   17.8690 C.2   546  ASP546      0.3668
     71  OD1        6.7320   -5.7850   18.7520 O.co2 546  ASP546     -0.2456
     72  OD2        7.9580   -4.6370   17.3290 O.co2 546  ASP546     -0.2456
     73  N          3.0840    2.7180    9.2790 N.3   572  TYR572     -0.1241
     74  CA         2.7410    1.4350    8.6640 C.3   572  TYR572      0.1605
     75  C          1.9680    0.5340    9.6250 C.2   572  TYR572      0.2264
     76  O          2.1810    0.5940   10.8390 O.2   572  TYR572     -0.2867
     77  CB         3.9820    0.7270    8.0840 C.3   572  TYR572      0.0534
     78  CG         5.0360    0.3470    9.1020 C.ar  572  TYR572     -0.0201
     79  CD1        6.0760    1.2170    9.4160 C.ar  572  TYR572     -0.0009
     80  CD2        5.0280   -0.9050    9.7080 C.ar  572  TYR572     -0.0009
     81  CE1        7.0610    0.8640   10.3370 C.ar  572  TYR572      0.0417
     82  CE2        6.0020   -1.2660   10.6360 C.ar  572  TYR572      0.0417
     83  CZ         7.0160   -0.3780   10.9480 C.ar  572  TYR572      0.1957
     84  OH         7.9690   -0.7410   11.8630 O.3   572  TYR572     -0.2866
     85  N          2.8960   -7.3500    9.5500 N.3   584  ILE584     -0.1231
     86  CA         3.5540   -6.0450    9.4150 C.3   584  ILE584      0.1692
     87  C          3.4320   -5.5900    7.9500 C.2   584  ILE584      0.2592
     88  O          3.7950   -6.3430    7.0450 O.2   584  ILE584     -0.2718
     89  CB         5.0390   -6.1000    9.9080 C.3   584  ILE584      0.0266
     90  CG1        5.1340   -6.4800   11.4060 C.3   584  ILE584      0.0019
     91  CG2        5.7820   -4.7820    9.6360 C.3   584  ILE584      0.0020
     92  CD1        6.3630   -7.3030   11.7890 C.3   584  ILE584      0.0001
     93  N          2.9120   -4.3700    7.7220 N.am  585  GLU585     -0.1966
     94  CA         2.7430   -3.8000    6.3830 C.3   585  GLU585      0.1733
     95  C          4.0980   -3.3630    5.8240 C.2   585  GLU585      0.2616
     96  O          4.8460   -2.6670    6.5110 O.2   585  GLU585     -0.2715
     97  CB         1.7600   -2.6170    6.4150 C.3   585  GLU585      0.0429
     98  CG         1.2290   -2.2160    5.0480 C.3   585  GLU585      0.1163
     99  CD         1.1560   -0.7220    4.8000 C.2   585  GLU585      0.3649
    100  OE1        0.4220   -0.0260    5.5390 O.co2 585  GLU585     -0.2457
    101  OE2        1.8150   -0.2500    3.8460 O.co2 585  GLU585     -0.2457
    102  N          4.4110   -3.7790    4.5840 N.am  586  VAL586     -0.1963
    103  CA         5.6690   -3.4410    3.9120 C.3   586  VAL586      0.1727
    104  C          5.5910   -2.0440    3.3040 C.2   586  VAL586      0.2616
    105  O          4.6830   -1.7590    2.5190 O.2   586  VAL586     -0.2715
    106  CB         6.0910   -4.5090    2.8560 C.3   586  VAL586      0.0290
    107  CG1        7.2320   -4.0190    1.9650 C.3   586  VAL586      0.0023
    108  CG2        6.4590   -5.8290    3.5150 C.3   586  VAL586      0.0023
    109  N          6.5610   -1.1870    3.6550 N.am  587  VAL587     -0.1977
    110  CA         6.6850    0.1520    3.0900 C.3   587  VAL587      0.1596
    111  C          7.5820   -0.0550    1.8640 C.2   587  VAL587      0.2287
    112  O          8.8020   -0.1750    2.0050 O.2   587  VAL587     -0.2864
    113  CB         7.2680    1.1870    4.0950 C.3   587  VAL587      0.0276
    114  CG1        7.3440    2.5780    3.4740 C.3   587  VAL587      0.0022
    115  CG2        6.4550    1.2270    5.3840 C.3   587  VAL587      0.0022
    116  N         15.0180    3.0250    8.6980 N.3   652  MET652     -0.1245
    117  CA        14.7770    2.9530    7.2530 C.3   652  MET652      0.1570
    118  C         14.4890    4.3110    6.6110 C.2   652  MET652      0.2261
    119  O         14.0230    5.2320    7.2830 O.2   652  MET652     -0.2867
    120  CB        13.6540    1.9520    6.9340 C.3   652  MET652      0.0387
    121  CG        14.0700    0.5090    7.0990 C.3   652  MET652      0.0595
    122  SD        12.8190   -0.6830    6.5670 S.3   652  MET652     -0.1393
    123  CE        13.1020   -0.6980    4.8150 C.3   652  MET652      0.0692
    124  N         12.1800    6.7740    8.7250 N.3   660  PHE660     -0.1241
    125  CA        11.3070    6.0860    9.6870 C.3   660  PHE660      0.1605
    126  C         11.9760    4.9100   10.4120 C.2   660  PHE660      0.2264
    127  O         12.8380    4.2460    9.8390 O.2   660  PHE660     -0.2867
    128  CB         9.9750    5.6530    9.0330 C.3   660  PHE660      0.0534
    129  CG        10.0610    4.5880    7.9630 C.ar  660  PHE660     -0.0203
    130  CD1       10.3660    4.9210    6.6480 C.ar  660  PHE660     -0.0042
    131  CD2        9.7870    3.2570    8.2590 C.ar  660  PHE660     -0.0042
    132  CE1       10.4330    3.9380    5.6560 C.ar  660  PHE660     -0.0003
    133  CE2        9.8500    2.2750    7.2660 C.ar  660  PHE660     -0.0003
    134  CZ        10.1710    2.6220    5.9710 C.ar  660  PHE660     -0.0000
    135  N         11.7190    1.1900   12.6370 N.3   662  ILE662     -0.1231
    136  CA        11.0760   -0.0910   12.5850 C.3   662  ILE662      0.1692
    137  C         11.5600   -0.8810   13.7560 C.2   662  ILE662      0.2592
    138  O         12.4610   -0.4730   14.4510 O.2   662  ILE662     -0.2718
    139  CB        11.4400   -0.8400   11.3470 C.3   662  ILE662      0.0266
    140  CG1       12.9470   -0.9620   11.2400 C.3   662  ILE662      0.0019
    141  CG2       10.9500   -0.1130   10.1760 C.3   662  ILE662      0.0020
    142  CD1       13.3830   -2.0820   10.3730 C.3   662  ILE662      0.0001
    143  N         10.9410   -2.0160   13.9850 N.am  663  ASP663     -0.1974
    144  CA        11.3230   -2.8950   15.0850 C.3   663  ASP663      0.1709
    145  C         11.3420   -2.3450   16.4830 C.2   663  ASP663      0.2293
    146  O         12.3830   -2.1880   17.0730 O.2   663  ASP663     -0.2864
    147  CB        12.6060   -3.6490   14.8120 C.3   663  ASP663      0.1436
    148  CG        12.5220   -5.0780   15.2650 C.2   663  ASP663      0.3671
    149  OD1       12.5620   -5.3290   16.4710 O.co2 663  ASP663     -0.2456
    150  OD2       12.3980   -5.9680   14.4200 O.co2 663  ASP663     -0.2456
@<TRIPOS>BOND
     1     1     2    1
     2     5     7    1
     3     5     6    1
     4     5     2    1
     5    42    40   ar
     6    42    43   ar
     7    40    39   ar
     8     2     3    1
     9    43    45   ar
    10    43    41   ar
    11    37    36    2
    12    45    47   ar
    13    39    41   ar
    14    39    38    1
    15   111   112    2
    16   111   110    1
    17   107   106    1
    18    36    35    1
    19     3     4    2
    20     3     8   am
    21    41    44   ar
    22   105   104    2
    23    47    46   ar
    24    38    35    1
    25     8     9    1
    26   106   108    1
    27   106   103    1
    28   110   109    1
    29   110   113    1
    30    16    14   ar
    31    16    18   ar
    32    35    34    1
    33    14    13   ar
    34   104   109   am
    35   104   103    1
    36   114   113    1
    37    44    46   ar
    38   101    99   ar
    39   103   102    1
    40   113   115    1
    41    18    17   ar
    42    11    10    2
    43     9    12    1
    44     9    10    1
    45    13    12    1
    46    13    15   ar
    47   102    95   am
    48    99    98    1
    49    99   100   ar
    50   123   122    1
    51    10    19   am
    52    98    97    1
    53    17    15   ar
    54   132   134   ar
    55   132   130   ar
    56    95    94    1
    57    95    96    2
    58    48    49    1
    59   134   133   ar
    60    19    20    1
    61    53    55    1
    62    53    52    1
    63    94    97    1
    64    94    93    1
    65   122   121    1
    66   118   117    1
    67   118   119    2
    68   130   129   ar
    69    49    52    1
    70    49    50    1
    71    20    21    1
    72    20    23    1
    73   120   121    1
    74   120   117    1
    75    88    87    2
    76    30    29    2
    77   117   116    1
    78   133   131   ar
    79    52    54    1
    80    21    22    2
    81    93    87   am
    82    23    24    1
    83    50    51    2
    84    29    28    1
    85    87    86    1
    86   129   131   ar
    87   129   128    1
    88    77    74    1
    89    77    78    1
    90    24    25    1
    91    74    73    1
    92    74    75    1
    93   124   125    1
    94   128   125    1
    95    78    79   ar
    96    78    80   ar
    97    28    31    1
    98    28    27    1
    99    86    85    1
   100    86    89    1
   101    79    81   ar
   102    25    26    1
   103    75    76    2
   104    91    89    1
   105   125   126    1
   106    80    82   ar
   107    31    32    1
   108    27    33    1
   109   127   126    2
   110    89    90    1
   111    32    33    1
   112   141   139    1
   113    81    83   ar
   114   142   140    1
   115    82    83   ar
   116    56    57    1
   117    83    84    1
   118   140   139    1
   119   139   136    1
   120    90    92    1
   121    57    60    1
   122    57    58    1
   123   136   135    1
   124   136   137    1
   125    60    61    1
   126    58    59    2
   127    63    64    1
   128    63    62    1
   129    61    62    1
   130   137   143   am
   131   137   138    2
   132   143   144    1
   133   150   148   ar
   134   147   144    1
   135   147   148    1
   136   144   145    1
   137   148   149   ar
   138   145   146    2
   139    68    67    2
   140    72    70   ar
   141    69    70    1
   142    69    66    1
   143    67    66    1
   144    70    71   ar
   145    66    65    1
