@<TRIPOS>MOLECULE
tmp/4ajwB00.pdb
 150 145 0 0 0
SMALL
GASTEIGER

@<TRIPOS>ATOM
      1  N         -9.8510   66.4710    0.1460 N.3   536  THR536     -0.1203
      2  CA       -11.0530   66.9840    0.7830 C.3   536  THR536      0.1994
      3  C        -10.9880   67.0220    2.3090 C.2   536  THR536      0.2618
      4  O         -9.9670   66.7440    2.8840 O.2   536  THR536     -0.2717
      5  CB       -12.2930   66.2690    0.3230 C.3   536  THR536      0.1784
      6  OG1      -13.4250   66.9350    0.8580 O.3   536  THR536     -0.2211
      7  CG2      -12.3090   64.8920    0.8220 C.3   536  THR536      0.0376
      8  N        -12.0770   67.4240    2.9490 N.am  537  PHE537     -0.1961
      9  CA       -12.1590   67.5190    4.4060 C.3   537  PHE537      0.1771
     10  C        -13.4600   66.9840    4.9560 C.2   537  PHE537      0.2619
     11  O        -14.4060   66.8610    4.2380 O.2   537  PHE537     -0.2715
     12  CB       -11.9830   68.9490    4.8610 C.3   537  PHE537      0.0574
     13  CG       -13.1660   69.8070    4.6120 C.ar  537  PHE537     -0.0200
     14  CD1      -14.2280   69.7910    5.4630 C.ar  537  PHE537     -0.0042
     15  CD2      -13.2100   70.6470    3.5320 C.ar  537  PHE537     -0.0042
     16  CE1      -15.2980   70.5800    5.2380 C.ar  537  PHE537     -0.0003
     17  CE2      -14.2820   71.4220    3.3130 C.ar  537  PHE537     -0.0003
     18  CZ       -15.3290   71.3850    4.1690 C.ar  537  PHE537     -0.0000
     19  N        -13.4830   66.6560    6.2360 N.am  538  MET538     -0.1977
     20  CA       -14.6360   66.0740    6.9260 C.3   538  MET538      0.1605
     21  C        -15.2820   67.1110    7.8470 C.2   538  MET538      0.2287
     22  O        -14.5780   67.8110    8.5800 O.2   538  MET538     -0.2864
     23  CB       -14.2380   64.8080    7.7040 C.3   538  MET538      0.0413
     24  CG       -15.4190   63.9380    8.0810 C.3   538  MET538      0.0598
     25  SD       -14.9630   62.5770    9.1760 S.3   538  MET538     -0.1393
     26  CE       -16.5610   61.8680    9.4780 C.3   538  MET538      0.0692
     27  N        -10.8250   67.2680    9.7440 N.3   544  PRO544     -0.2116
     28  CA        -9.6360   66.6070    9.2400 C.3   544  PRO544      0.1372
     29  C         -9.5270   66.6690    7.7340 C.2   544  PRO544      0.2244
     30  O        -10.5070   66.7720    7.0430 O.2   544  PRO544     -0.2868
     31  CB        -9.8170   65.1860    9.7240 C.3   544  PRO544      0.0268
     32  CG       -11.1690   65.0570   10.0220 C.3   544  PRO544      0.0207
     33  CD       -11.6650   66.3220   10.4690 C.3   544  PRO544      0.0892
     34  N         -8.2960   65.2990    4.0150 N.3   546  TRP546     -0.1241
     35  CA        -8.0800   64.1320    3.1610 C.3   546  TRP546      0.1605
     36  C         -7.1140   64.5840    2.0670 C.2   546  TRP546      0.2264
     37  O         -7.4750   65.4350    1.2540 O.2   546  TRP546     -0.2867
     38  CB        -9.4200   63.6770    2.5550 C.3   546  TRP546      0.0550
     39  CG        -9.3830   62.3580    1.8430 C.ar  546  TRP546      0.0003
     40  CD1       -8.9950   62.1320    0.5560 C.ar  546  TRP546      0.0946
     41  CD2       -9.8490   61.1000    2.3490 C.ar  546  TRP546      0.0152
     42  NE1       -9.1470   60.8020    0.2420 N.ar  546  TRP546     -0.2442
     43  CE2       -9.6720   60.1450    1.3240 C.ar  546  TRP546      0.0810
     44  CE3      -10.3790   60.6800    3.5820 C.ar  546  TRP546      0.0012
     45  CZ2      -10.0150   58.7980    1.4890 C.ar  546  TRP546      0.0191
     46  CZ3      -10.7100   59.3440    3.7470 C.ar  546  TRP546      0.0001
     47  CH2      -10.5240   58.4180    2.7110 C.ar  546  TRP546      0.0015
     48  N         -4.5360   61.2270    5.9130 N.3   563  ILE563     -0.1245
     49  CA        -5.5270   61.9690    6.6980 C.3   563  ILE563      0.1561
     50  C         -4.7710   62.8240    7.7150 C.2   563  ILE563      0.2260
     51  O         -4.0450   62.2840    8.5510 O.2   563  ILE563     -0.2867
     52  CB        -6.6080   61.0530    7.3630 C.3   563  ILE563      0.0252
     53  CG1       -7.5420   60.4280    6.3080 C.3   563  ILE563      0.0019
     54  CG2       -7.4310   61.8220    8.4200 C.3   563  ILE563      0.0019
     55  CD1       -8.2600   59.1260    6.7490 C.3   563  ILE563      0.0001
     56  N         -5.0740   65.1950   10.8620 N.3   565  LYS565     -0.1245
     57  CA        -5.9720   65.5260   11.9670 C.3   565  LYS565      0.1561
     58  C         -5.3380   66.5350   12.9220 C.2   565  LYS565      0.2260
     59  O         -4.1570   66.4130   13.2570 O.2   565  LYS565     -0.2867
     60  CB        -6.3950   64.2520   12.7140 C.3   565  LYS565      0.0271
     61  CG        -7.7370   64.3690   13.4330 C.3   565  LYS565      0.0035
     62  CD        -8.1650   63.0520   14.0800 C.3   565  LYS565      0.0206
     63  CE        -9.0040   62.1880   13.1670 C.3   565  LYS565      0.1093
     64  NZ        -9.3210   60.8770   13.7910 N.3   565  LYS565     -0.1314
     65  N         -4.7670   56.1760   19.6930 N.3   573  ASP573     -0.1239
     66  CA        -5.1450   55.5980   18.4000 C.3   573  ASP573      0.1674
     67  C         -3.9860   54.7970   17.8000 C.2   573  ASP573      0.2266
     68  O         -4.2110   53.6990   17.2880 O.2   573  ASP573     -0.2867
     69  CB        -5.6020   56.6960   17.4240 C.3   573  ASP573      0.1410
     70  CG        -6.8760   57.4000   17.8430 C.2   573  ASP573      0.3668
     71  OD1       -6.8040   58.2810   18.7280 O.co2 573  ASP573     -0.2456
     72  OD2       -7.9460   57.0710   17.2850 O.co2 573  ASP573     -0.2456
     73  N         -3.0540   49.8490    9.2810 N.3   599  TYR599     -0.1241
     74  CA        -2.7130   51.1330    8.6670 C.3   599  TYR599      0.1605
     75  C         -1.9410   52.0350    9.6290 C.2   599  TYR599      0.2264
     76  O         -2.1530   51.9730   10.8420 O.2   599  TYR599     -0.2867
     77  CB        -3.9550   51.8400    8.0890 C.3   599  TYR599      0.0534
     78  CG        -5.0100   52.2170    9.1070 C.ar  599  TYR599     -0.0201
     79  CD1       -6.0480   51.3450    9.4210 C.ar  599  TYR599     -0.0009
     80  CD2       -5.0050   53.4700    9.7140 C.ar  599  TYR599     -0.0009
     81  CE1       -7.0330   51.6940   10.3440 C.ar  599  TYR599      0.0417
     82  CE2       -5.9800   53.8280   10.6430 C.ar  599  TYR599      0.0417
     83  CZ        -6.9920   52.9360   10.9560 C.ar  599  TYR599      0.1957
     84  OH        -7.9550   53.2850   11.8720 O.3   599  TYR599     -0.2866
     85  N         -2.8880   59.8870    9.5810 N.3   611  ILE611     -0.1231
     86  CA        -3.5540   58.5880    9.4320 C.3   611  ILE611      0.1692
     87  C         -3.4330   58.1470    7.9630 C.2   611  ILE611      0.2592
     88  O         -3.8090   58.9010    7.0650 O.2   611  ILE611     -0.2718
     89  CB        -5.0370   58.6440    9.9310 C.3   611  ILE611      0.0266
     90  CG1       -5.1170   58.9370   11.4500 C.3   611  ILE611      0.0019
     91  CG2       -5.8090   57.3590    9.5840 C.3   611  ILE611      0.0020
     92  CD1       -6.3440   59.7340   11.8960 C.3   611  ILE611      0.0001
     93  N         -2.8950   56.9350    7.7270 N.am  612  GLU612     -0.1966
     94  CA        -2.7220   56.3680    6.3860 C.3   612  GLU612      0.1733
     95  C         -4.0750   55.9280    5.8250 C.2   612  GLU612      0.2616
     96  O         -4.8230   55.2300    6.5120 O.2   612  GLU612     -0.2715
     97  CB        -1.7370   55.1860    6.4190 C.3   612  GLU612      0.0429
     98  CG        -1.2030   54.7860    5.0530 C.3   612  GLU612      0.1163
     99  CD        -1.1270   53.2920    4.8040 C.2   612  GLU612      0.3649
    100  OE1       -0.3930   52.5970    5.5440 O.co2 612  GLU612     -0.2457
    101  OE2       -1.7830   52.8190    3.8490 O.co2 612  GLU612     -0.2457
    102  N         -4.3860   56.3440    4.5840 N.am  613  VAL613     -0.1963
    103  CA        -5.6420   56.0040    3.9110 C.3   613  VAL613      0.1727
    104  C         -5.5620   54.6070    3.3030 C.2   613  VAL613      0.2616
    105  O         -4.6520   54.3230    2.5190 O.2   613  VAL613     -0.2715
    106  CB        -6.0640   57.0710    2.8550 C.3   613  VAL613      0.0290
    107  CG1       -7.2040   56.5790    1.9630 C.3   613  VAL613      0.0023
    108  CG2       -6.4350   58.3910    3.5130 C.3   613  VAL613      0.0023
    109  N         -6.5290   53.7480    3.6540 N.am  614  VAL614     -0.1977
    110  CA        -6.6510   52.4090    3.0890 C.3   614  VAL614      0.1596
    111  C         -7.5480   52.6140    1.8630 C.2   614  VAL614      0.2287
    112  O         -8.7670   52.7330    2.0050 O.2   614  VAL614     -0.2864
    113  CB        -7.2330   51.3730    4.0940 C.3   614  VAL614      0.0276
    114  CG1       -7.3090   49.9820    3.4720 C.3   614  VAL614      0.0022
    115  CG2       -6.4210   51.3340    5.3840 C.3   614  VAL614      0.0022
    116  N        -14.9790   49.5420    8.7020 N.3   679  MET679     -0.1245
    117  CA       -14.7390   49.6130    7.2570 C.3   679  MET679      0.1570
    118  C        -14.4540   48.2550    6.6160 C.2   679  MET679      0.2261
    119  O        -13.9880   47.3340    7.2880 O.2   679  MET679     -0.2867
    120  CB       -13.6160   50.6130    6.9370 C.3   679  MET679      0.0387
    121  CG       -14.0310   52.0560    7.1020 C.3   679  MET679      0.0595
    122  SD       -12.7770   53.2460    6.5720 S.3   679  MET679     -0.1393
    123  CE       -13.0630   53.2630    4.8170 C.3   679  MET679      0.0692
    124  N        -12.1440   45.7890    8.7260 N.3   687  PHE687     -0.1241
    125  CA       -11.2680   46.4770    9.6840 C.3   687  PHE687      0.1605
    126  C        -11.9390   47.6430   10.4130 C.2   687  PHE687      0.2264
    127  O        -12.7960   48.3220    9.8450 O.2   687  PHE687     -0.2867
    128  CB        -9.9380   46.9110    9.0320 C.3   687  PHE687      0.0534
    129  CG       -10.0250   47.9750    7.9630 C.ar  687  PHE687     -0.0203
    130  CD1      -10.3310   47.6410    6.6480 C.ar  687  PHE687     -0.0042
    131  CD2       -9.7510   49.3050    8.2590 C.ar  687  PHE687     -0.0042
    132  CE1      -10.3980   48.6250    5.6570 C.ar  687  PHE687     -0.0003
    133  CE2       -9.8130   50.2870    7.2660 C.ar  687  PHE687     -0.0003
    134  CZ       -10.1350   49.9400    5.9720 C.ar  687  PHE687     -0.0000
    135  N        -11.8670   51.3330   12.6240 N.3   689  ILE689     -0.1231
    136  CA       -11.1750   52.5900   12.6140 C.3   689  ILE689      0.1692
    137  C        -11.6300   53.4440   13.7500 C.2   689  ILE689      0.2592
    138  O        -12.5560   53.1200   14.4520 O.2   689  ILE689     -0.2718
    139  CB       -11.4100   53.3480   11.3520 C.3   689  ILE689      0.0266
    140  CG1      -12.8980   53.5070   11.1290 C.3   689  ILE689      0.0019
    141  CG2      -10.8060   52.6250   10.2190 C.3   689  ILE689      0.0020
    142  CD1      -13.2430   54.6040   10.2010 C.3   689  ILE689      0.0001
    143  N        -10.9290   54.5440   13.9240 N.am  690  ASP690     -0.1974
    144  CA       -11.2130   55.5190   14.9610 C.3   690  ASP690      0.1709
    145  C        -11.2450   55.0720   16.3990 C.2   690  ASP690      0.2293
    146  O        -12.2800   55.0660   17.0180 O.2   690  ASP690     -0.2864
    147  CB       -12.4700   56.2900   14.6570 C.3   690  ASP690      0.1436
    148  CG       -12.6700   57.3990   15.6140 C.2   690  ASP690      0.3671
    149  OD1      -13.2320   57.1300   16.6760 O.co2 690  ASP690     -0.2456
    150  OD2      -12.2410   58.5270   15.3310 O.co2 690  ASP690     -0.2456
@<TRIPOS>BOND
     1     1     2    1
     2    42    40   ar
     3    42    43   ar
     4     5     2    1
     5     5     7    1
     6     5     6    1
     7    40    39   ar
     8     2     3    1
     9    37    36    2
    10    43    45   ar
    11    43    41   ar
    12    45    47   ar
    13    39    41   ar
    14    39    38    1
    15   111   112    2
    16   111   110    1
    17   107   106    1
    18    36    35    1
    19     3     4    2
    20     3     8   am
    21    41    44   ar
    22   105   104    2
    23    38    35    1
    24    47    46   ar
    25   106   108    1
    26   106   103    1
    27     8     9    1
    28   110   109    1
    29   110   113    1
    30    35    34    1
    31   104   109   am
    32   104   103    1
    33    17    15   ar
    34    17    18   ar
    35   114   113    1
    36    15    13   ar
    37    44    46   ar
    38   101    99   ar
    39   103   102    1
    40   113   115    1
    41    18    16   ar
    42    11    10    2
    43     9    12    1
    44     9    10    1
    45   102    95   am
    46    13    12    1
    47    13    14   ar
    48    99    98    1
    49    99   100   ar
    50   123   122    1
    51    10    19   am
    52    98    97    1
    53    16    14   ar
    54   132   134   ar
    55   132   130   ar
    56    95    94    1
    57    95    96    2
    58    48    49    1
    59   134   133   ar
    60    19    20    1
    61    53    55    1
    62    53    52    1
    63    94    97    1
    64    94    93    1
    65   122   121    1
    66   118   117    1
    67   118   119    2
    68   130   129   ar
    69    49    52    1
    70    49    50    1
    71    20    23    1
    72    20    21    1
    73   120   121    1
    74   120   117    1
    75    30    29    2
    76    88    87    2
    77   117   116    1
    78   133   131   ar
    79    52    54    1
    80    23    24    1
    81    50    51    2
    82    93    87   am
    83    29    28    1
    84    21    22    2
    85   129   131   ar
    86   129   128    1
    87    87    86    1
    88    24    25    1
    89    77    74    1
    90    77    78    1
    91    74    73    1
    92    74    75    1
    93   124   125    1
    94   128   125    1
    95    78    79   ar
    96    78    80   ar
    97    25    26    1
    98    28    31    1
    99    28    27    1
   100    79    81   ar
   101    86    85    1
   102    86    89    1
   103    91    89    1
   104    75    76    2
   105   125   126    1
   106    80    82   ar
   107    31    32    1
   108    27    33    1
   109   127   126    2
   110    89    90    1
   111    32    33    1
   112   142   140    1
   113   141   139    1
   114    81    83   ar
   115    82    83   ar
   116    56    57    1
   117    83    84    1
   118   140   139    1
   119   139   136    1
   120    90    92    1
   121    57    60    1
   122    57    58    1
   123   136   135    1
   124   136   137    1
   125    60    61    1
   126    58    59    2
   127    63    64    1
   128    63    62    1
   129    61    62    1
   130   137   143   am
   131   137   138    2
   132   143   144    1
   133   147   144    1
   134   147   148    1
   135   144   145    1
   136   150   148   ar
   137   148   149   ar
   138   145   146    2
   139    72    70   ar
   140    68    67    2
   141    69    70    1
   142    69    66    1
   143    67    66    1
   144    70    71   ar
   145    66    65    1
