@<TRIPOS>MOLECULE
tmp/4ak4E01.pdb
 147 144 0 0 0
SMALL
GASTEIGER

@<TRIPOS>ATOM
      1  N         13.5400  -49.0950   13.2040 N.3     8  VAL8       -0.1245
      2  CA        13.3800  -47.7540   12.6300 C.3     8  VAL8        0.1561
      3  C         13.4770  -47.7740   11.1100 C.2     8  VAL8        0.2260
      4  O         14.3300  -48.4770   10.5590 O.2     8  VAL8       -0.2867
      5  CB        14.5170  -46.8460   13.1420 C.3     8  VAL8        0.0252
      6  CG1       14.0780  -45.4160   13.2190 C.3     8  VAL8        0.0019
      7  CG2       15.0590  -47.3110   14.4770 C.3     8  VAL8        0.0019
      8  N         -6.3430  -47.7940   27.2230 N.3    72  THR72      -0.1218
      9  CA        -5.8000  -49.0320   27.7970 C.3    72  THR72       0.1862
     10  C         -6.7480  -49.4460   28.8950 C.2    72  THR72       0.2287
     11  O         -7.3550  -48.6030   29.5530 O.2    72  THR72      -0.2866
     12  CB        -4.3470  -48.8810   28.2860 C.3    72  THR72       0.1770
     13  OG1       -4.3000  -47.9100   29.3370 O.3    72  THR72      -0.2211
     14  CG2       -3.3870  -48.5090   27.1710 C.3    72  THR72       0.0375
     15  N         -4.0370  -56.0460   31.3590 N.3    79  VAL79      -0.1231
     16  CA        -4.0490  -54.6580   30.8900 C.3    79  VAL79       0.1692
     17  C         -3.6060  -54.7170   29.4190 C.2    79  VAL79       0.2592
     18  O         -2.5240  -55.2260   29.1150 O.2    79  VAL79      -0.2718
     19  CB        -3.1540  -53.7170   31.7350 C.3    79  VAL79       0.0266
     20  CG1       -3.1300  -52.3120   31.1370 C.3    79  VAL79       0.0020
     21  CG2       -3.6270  -53.6750   33.1950 C.3    79  VAL79       0.0020
     22  N         -4.4540  -54.2390   28.5100 N.am   80  VAL80      -0.1966
     23  CA        -4.1540  -54.2800   27.0680 C.3    80  VAL80       0.1727
     24  C         -4.5370  -52.9530   26.4120 C.2    80  VAL80       0.2616
     25  O         -5.1820  -52.1000   27.0410 O.2    80  VAL80      -0.2715
     26  CB        -4.8830  -55.4790   26.3660 C.3    80  VAL80       0.0290
     27  CG1       -4.3920  -56.8370   26.8860 C.3    80  VAL80       0.0023
     28  CG2       -6.4030  -55.3750   26.5250 C.3    80  VAL80       0.0023
     29  N         -4.1680  -52.8040   25.1400 N.am   81  VAL81      -0.1977
     30  CA        -4.5150  -51.6370   24.3350 C.3    81  VAL81       0.1596
     31  C         -5.9010  -51.9210   23.7490 C.2    81  VAL81       0.2287
     32  O         -6.0400  -52.7550   22.8430 O.2    81  VAL81      -0.2864
     33  CB        -3.4650  -51.3480   23.2440 C.3    81  VAL81       0.0276
     34  CG1       -3.9140  -50.1860   22.3580 C.3    81  VAL81       0.0022
     35  CG2       -2.0950  -51.0580   23.8730 C.3    81  VAL81       0.0022
     36  N         -4.9210  -42.3510   26.4340 N.3   104  PHE104     -0.1227
     37  CA        -3.5600  -41.8660   26.2120 C.3   104  PHE104      0.1736
     38  C         -3.5730  -41.1180   24.8820 C.2   104  PHE104      0.2596
     39  O         -4.4480  -41.3760   24.0340 O.2   104  PHE104     -0.2718
     40  CB        -2.4910  -42.9820   26.2400 C.3   104  PHE104      0.0547
     41  CG        -2.5990  -43.9700   25.0970 C.ar  104  PHE104     -0.0202
     42  CD1       -1.9680  -43.7240   23.8780 C.ar  104  PHE104     -0.0042
     43  CD2       -3.3280  -45.1470   25.2400 C.ar  104  PHE104     -0.0042
     44  CE1       -2.1150  -44.6230   22.8050 C.ar  104  PHE104     -0.0003
     45  CE2       -3.4520  -46.0520   24.1730 C.ar  104  PHE104     -0.0003
     46  CZ        -2.8560  -45.7720   22.9600 C.ar  104  PHE104     -0.0000
     47  N         -2.6210  -40.1930   24.6970 N.am  105  SER105     -0.1938
     48  CA        -2.5520  -39.4150   23.4580 C.3   105  SER105      0.2055
     49  C         -1.1080  -38.9680   23.2450 C.2   105  SER105      0.2642
     50  O         -0.4720  -38.4450   24.1730 O.2   105  SER105     -0.2714
     51  CB        -3.4750  -38.1890   23.5150 C.3   105  SER105      0.2130
     52  OG        -3.2940  -37.3400   24.6620 O.3   105  SER105     -0.2179
     53  N         -0.6170  -39.1640   22.0200 N.am  106  LEU106     -0.1977
     54  CA         0.7140  -38.6950   21.6290 C.3   106  LEU106      0.1596
     55  C          0.5720  -37.7510   20.4140 C.2   106  LEU106      0.2287
     56  O          0.6510  -38.2290   19.2750 O.2   106  LEU106     -0.2864
     57  CB         1.7060  -39.8420   21.3030 C.3   106  LEU106      0.0297
     58  CG         3.1230  -39.2740   21.0080 C.3   106  LEU106      0.0022
     59  CD1        3.8570  -38.9380   22.2770 C.3   106  LEU106      0.0001
     60  CD2        3.9020  -40.0920   20.0220 C.3   106  LEU106      0.0001
     61  N          8.5050  -43.3890   12.9750 N.3   114  VAL114     -0.1245
     62  CA         9.2950  -44.1570   11.9850 C.3   114  VAL114      0.1561
     63  C          9.4200  -45.6400   12.3310 C.2   114  VAL114      0.2260
     64  O         10.1860  -46.3450   11.6710 O.2   114  VAL114     -0.2867
     65  CB        10.6870  -43.5080   11.7520 C.3   114  VAL114      0.0252
     66  CG1       10.5700  -42.0920   11.1530 C.3   114  VAL114      0.0019
     67  CG2       11.5050  -43.4720   13.0520 C.3   114  VAL114      0.0019
     68  N          7.1640  -50.9300   18.1630 N.3   117  LYS117     -0.1245
     69  CA         7.5530  -52.1200   18.9150 C.3   117  LYS117      0.1561
     70  C          6.4480  -52.3630   19.9530 C.2   117  LYS117      0.2260
     71  O          5.6480  -51.4640   20.2100 O.2   117  LYS117     -0.2867
     72  CB         8.9500  -51.9980   19.5680 C.3   117  LYS117      0.0271
     73  CG         9.1090  -50.8370   20.5550 C.3   117  LYS117      0.0035
     74  CD        10.5390  -50.7490   21.1170 C.3   117  LYS117      0.0206
     75  CE        10.9530  -51.9530   21.9510 C.3   117  LYS117      0.1093
     76  NZ        10.1930  -52.0280   23.2330 N.3   117  LYS117     -0.1314
     77  N         -0.7550  -56.0510   23.9990 N.3   125  ASP125     -0.1225
     78  CA        -0.4830  -55.7930   25.4270 C.3   125  ASP125      0.1805
     79  C         -0.0010  -54.3690   25.6400 C.2   125  ASP125      0.2598
     80  O         -0.4210  -53.7080   26.5990 O.2   125  ASP125     -0.2718
     81  CB         0.6020  -56.7480   25.9700 C.3   125  ASP125      0.1424
     82  CG         0.2420  -58.1990   25.8110 C.2   125  ASP125      0.3668
     83  OD1       -0.8450  -58.5790   26.2610 O.co2 125  ASP125     -0.2456
     84  OD2        1.0130  -58.9310   25.1430 O.co2 125  ASP125     -0.2456
     85  N          0.9640  -53.9490   24.8130 N.am  126  TYR126     -0.1962
     86  CA         1.5610  -52.6120   24.8900 C.3   126  TYR126      0.1771
     87  C          2.2630  -52.2840   23.6120 C.2   126  TYR126      0.2620
     88  O          2.4980  -53.1700   22.7800 O.2   126  TYR126     -0.2715
     89  CB         2.5370  -52.4760   26.0920 C.3   126  TYR126      0.0574
     90  CG         3.6720  -53.4810   26.1050 C.ar  126  TYR126     -0.0198
     91  CD1        4.8330  -53.2640   25.3680 C.ar  126  TYR126     -0.0009
     92  CD2        3.6060  -54.6200   26.9010 C.ar  126  TYR126     -0.0009
     93  CE1        5.8900  -54.1770   25.3960 C.ar  126  TYR126      0.0417
     94  CE2        4.6540  -55.5420   26.9360 C.ar  126  TYR126      0.0417
     95  CZ         5.7970  -55.3100   26.1880 C.ar  126  TYR126      0.1957
     96  OH         6.8180  -56.2310   26.2010 O.3   126  TYR126     -0.2866
     97  N          2.5470  -51.0010   23.4120 N.am  127  PHE127     -0.1960
     98  CA         3.3200  -50.6060   22.2490 C.3   127  PHE127      0.1771
     99  C          4.1070  -49.3530   22.5260 C.2   127  PHE127      0.2620
    100  O          3.7440  -48.5650   23.4140 O.2   127  PHE127     -0.2715
    101  CB         2.4450  -50.4640   20.9880 C.3   127  PHE127      0.0574
    102  CG         1.6520  -49.1760   20.9290 C.ar  127  PHE127     -0.0200
    103  CD1        0.5410  -48.9850   21.7490 C.ar  127  PHE127     -0.0042
    104  CD2        2.0690  -48.1220   20.1240 C.ar  127  PHE127     -0.0042
    105  CE1       -0.1550  -47.7690   21.7360 C.ar  127  PHE127     -0.0003
    106  CE2        1.3700  -46.9080   20.1060 C.ar  127  PHE127     -0.0003
    107  CZ         0.2530  -46.7480   20.9040 C.ar  127  PHE127     -0.0000
    108  N          5.1730  -49.1540   21.7520 N.am  128  SER128     -0.1936
    109  CA         6.0080  -47.9500   21.7980 C.3   128  SER128      0.2055
    110  C          6.2570  -47.4860   20.3610 C.2   128  SER128      0.2643
    111  O          6.0610  -48.2530   19.4220 O.2   128  SER128     -0.2714
    112  CB         7.3500  -48.2260   22.4590 C.3   128  SER128      0.2130
    113  OG         7.1790  -48.6960   23.7840 O.3   128  SER128     -0.2179
    114  N          6.6870  -46.2390   20.1890 N.am  129  MET129     -0.1962
    115  CA         6.9490  -45.7110   18.8490 C.3   129  MET129      0.1736
    116  C          8.3090  -45.0560   18.7500 C.2   129  MET129      0.2616
    117  O          8.7070  -44.3100   19.6480 O.2   129  MET129     -0.2715
    118  CB         5.8680  -44.6740   18.4720 C.3   129  MET129      0.0427
    119  CG         4.5050  -45.3160   18.3200 C.3   129  MET129      0.0599
    120  SD         3.2030  -44.0970   17.9850 S.3   129  MET129     -0.1393
    121  CE         2.9660  -43.4860   19.6410 C.3   129  MET129      0.0692
    122  N          8.9910  -45.2860   17.6300 N.am  130  TYR130     -0.1960
    123  CA        10.2590  -44.6320   17.3280 C.3   130  TYR130      0.1771
    124  C          9.8840  -43.2840   16.7000 C.2   130  TYR130      0.2619
    125  O          9.0290  -43.2520   15.8060 O.2   130  TYR130     -0.2715
    126  CB        11.0060  -45.4790   16.2860 C.3   130  TYR130      0.0574
    127  CG        11.6000  -46.7680   16.8190 C.ar  130  TYR130     -0.0198
    128  CD1       10.8150  -47.9130   16.9810 C.ar  130  TYR130     -0.0009
    129  CD2       12.9670  -46.8760   17.0580 C.ar  130  TYR130     -0.0009
    130  CE1       11.3730  -49.1160   17.4350 C.ar  130  TYR130      0.0417
    131  CE2       13.5420  -48.0840   17.4630 C.ar  130  TYR130      0.0417
    132  CZ        12.7460  -49.2020   17.6410 C.ar  130  TYR130      0.1957
    133  OH        13.3430  -50.3820   18.0340 O.3   130  TYR130     -0.2866
    134  N         10.5430  -42.1830   17.1400 N.am  131  LEU131     -0.1963
    135  CA        10.3270  -40.8520   16.5900 C.3   131  LEU131      0.1728
    136  C         11.6170  -40.2980   16.0080 C.2   131  LEU131      0.2616
    137  O         12.6780  -40.4510   16.6260 O.2   131  LEU131     -0.2715
    138  CB         9.8580  -39.8660   17.6860 C.3   131  LEU131      0.0311
    139  CG         8.5680  -40.2350   18.4310 C.3   131  LEU131      0.0022
    140  CD1        8.2070  -39.1140   19.4150 C.3   131  LEU131      0.0001
    141  CD2        7.3950  -40.4890   17.4420 C.3   131  LEU131      0.0001
    142  N         11.5280  -39.5920   14.8710 N.am  132  SER132     -0.1950
    143  CA        12.7080  -38.9850   14.2440 C.3   132  SER132      0.1924
    144  C         12.3200  -37.6990   13.5380 C.2   132  SER132      0.2314
    145  O         11.1520  -37.4890   13.2520 O.2   132  SER132     -0.2863
    146  CB        13.2990  -39.9490   13.2130 C.3   132  SER132      0.2116
    147  OG        14.5500  -39.4670   12.7500 O.3   132  SER132     -0.2180
@<TRIPOS>BOND
     1     4     3    2
     2     3     2    1
     3    66    65    1
     4    64    63    2
     5    65    62    1
     6    65    67    1
     7    62    63    1
     8    62    61    1
     9     2     5    1
    10     2     1    1
    11   147   146    1
    12     5     6    1
    13     5     7    1
    14   146   143    1
    15   145   144    2
    16   144   143    1
    17   143   142    1
    18   142   136   am
    19   125   124    2
    20   136   135    1
    21   136   137    2
    22   126   127    1
    23   126   123    1
    24   135   134    1
    25   135   138    1
    26   124   134   am
    27   124   123    1
    28   127   128   ar
    29   127   129   ar
    30   128   130   ar
    31   129   131   ar
    32   123   122    1
    33   130   132   ar
    34   141   139    1
    35   131   132   ar
    36   122   116   am
    37   132   133    1
    38   138   139    1
    39   120   119    1
    40   120   121    1
    41    68    69    1
    42   119   118    1
    43   139   140    1
    44   118   115    1
    45   116   115    1
    46   116   117    2
    47   115   114    1
    48    69    72    1
    49    69    70    1
    50    56    55    2
    51   111   110    2
    52    72    73    1
    53    70    71    2
    54    60    58    1
    55   106   104   ar
    56   106   107   ar
    57   104   102   ar
    58   114   110   am
    59   110   109    1
    60    55    54    1
    61    73    74    1
    62   107   105   ar
    63   102   101    1
    64   102   103   ar
    65   101    98    1
    66    58    57    1
    67    58    59    1
    68    74    75    1
    69    57    54    1
    70    54    53    1
    71   105   103   ar
    72   108   109    1
    73   108    99   am
    74   109   112    1
    75    75    76    1
    76    53    49   am
    77    98    99    1
    78    98    97    1
    79    34    33    1
    80   112   113    1
    81    99   100    2
    82    88    87    2
    83    44    46   ar
    84    44    42   ar
    85    32    31    2
    86    46    45   ar
    87    33    35    1
    88    33    30    1
    89    49    48    1
    90    49    50    2
    91    97    87   am
    92    48    51    1
    93    48    47    1
    94    51    52    1
    95    87    86    1
    96    31    30    1
    97    42    41   ar
    98    77    78    1
    99    39    38    2
   100    45    43   ar
   101    30    29    1
   102    47    38   am
   103    85    86    1
   104    85    79   am
   105    38    37    1
   106    86    89    1
   107    41    43   ar
   108    41    40    1
   109    29    24   am
   110    84    82   ar
   111    91    93   ar
   112    91    90   ar
   113    93    95   ar
   114    78    79    1
   115    78    81    1
   116    79    80    2
   117    82    81    1
   118    82    83   ar
   119    89    90    1
   120    90    92   ar
   121    95    96    1
   122    95    94   ar
   123    37    40    1
   124    37    36    1
   125    26    28    1
   126    26    27    1
   127    26    23    1
   128    24    25    2
   129    24    23    1
   130    92    94   ar
   131    23    22    1
   132    14    12    1
   133     8     9    1
   134     9    12    1
   135     9    10    1
   136    12    13    1
   137    22    17   am
   138    10    11    2
   139    18    17    2
   140    17    16    1
   141    16    15    1
   142    16    19    1
   143    20    19    1
   144    19    21    1
