@<TRIPOS>MOLECULE
tmp/4akmB00.pdb
 94 85 0 0 0
SMALL
GASTEIGER

@<TRIPOS>ATOM
      1  N         33.1390   22.3920   55.9210 N.3    52  ASN52      -0.1240
      2  CA        34.4940   22.4550   55.4110 C.3    52  ASN52       0.1653
      3  C         35.3710   23.3170   56.2960 C.2    52  ASN52       0.2266
      4  O         34.9320   24.3330   56.8320 O.2    52  ASN52      -0.2867
      5  CB        34.5030   22.9670   53.9740 C.3    52  ASN52       0.1155
      6  CG        33.6630   24.2010   53.8070 C.2    52  ASN52       0.2627
      7  OD1       32.4440   24.1140   53.6350 O.2    52  ASN52      -0.2716
      8  ND2       34.3000   25.3670   53.8760 N.am   52  ASN52      -0.0877
      9  N         38.5390   30.3030   59.0130 N.3    57  LYS57      -0.1231
     10  CA        37.0940   30.1770   59.1110 C.3    57  LYS57       0.1693
     11  C         36.6580   28.7580   58.7960 C.2    57  LYS57       0.2593
     12  O         37.0430   28.2080   57.7670 O.2    57  LYS57      -0.2718
     13  CB        36.4300   31.1400   58.1320 C.3    57  LYS57       0.0285
     14  CG        34.9150   31.1180   58.1480 C.3    57  LYS57       0.0035
     15  CD        34.3560   31.8090   56.9090 C.3    57  LYS57       0.0206
     16  CE        33.2400   32.7810   57.2640 C.3    57  LYS57       0.1093
     17  NZ        32.8310   33.6090   56.0910 N.3    57  LYS57      -0.1314
     18  N         35.8510   28.1640   59.6720 N.am   58  SER58      -0.1938
     19  CA        35.2560   26.8590   59.3590 C.3    58  SER58       0.2055
     20  C         33.7930   26.7290   59.8110 C.2    58  SER58       0.2643
     21  O         33.2410   27.6400   60.4290 O.2    58  SER58      -0.2714
     22  CB        36.1180   25.7000   59.8820 C.3    58  SER58       0.2130
     23  OG        36.3480   25.7820   61.2790 O.3    58  SER58      -0.2179
     24  N         33.1590   25.6090   59.4740 N.am   59  ASN59      -0.1971
     25  CA        31.7720   25.3990   59.8720 C.3    59  ASN59       0.1688
     26  C         31.3990   23.9470   60.1460 C.2    59  ASN59       0.2292
     27  O         31.9100   23.0190   59.5150 O.2    59  ASN59      -0.2864
     28  CB        30.7970   26.0310   58.8650 C.3    59  ASN59       0.1181
     29  CG        30.6450   25.2140   57.5940 C.2    59  ASN59       0.2629
     30  OD1       31.5780   25.0950   56.8000 O.2    59  ASN59      -0.2716
     31  ND2       29.4520   24.6700   57.3810 N.am   59  ASN59      -0.0877
     32  N         27.9730   21.8990   60.1050 N.3    61  LEU61      -0.1245
     33  CA        26.5850   21.8770   59.7020 C.3    61  LEU61       0.1561
     34  C         25.9440   20.5640   60.1140 C.2    61  LEU61       0.2260
     35  O         26.4410   19.4890   59.7940 O.2    61  LEU61      -0.2867
     36  CB        26.4820   22.0610   58.1920 C.3    61  LEU61       0.0270
     37  CG        25.0690   22.1470   57.6220 C.3    61  LEU61       0.0019
     38  CD1       24.2610   23.2180   58.3600 C.3    61  LEU61       0.0001
     39  CD2       25.1150   22.4040   56.1130 C.3    61  LEU61       0.0001
     40  N         22.5090   18.3760   59.8490 N.3    63  ASN63      -0.1240
     41  CA        21.2560   18.2120   59.1290 C.3    63  ASN63       0.1653
     42  C         20.3860   17.0930   59.6780 C.2    63  ASN63       0.2266
     43  O         20.8750   16.0240   60.0290 O.2    63  ASN63      -0.2867
     44  CB        21.5180   17.9840   57.6390 C.3    63  ASN63       0.1155
     45  CG        21.0960   19.1630   56.7930 C.2    63  ASN63       0.2627
     46  OD1       21.9170   20.0000   56.4160 O.2    63  ASN63      -0.2716
     47  ND2       19.8000   19.2420   56.5000 N.am   63  ASN63      -0.0877
     48  N         18.0550   22.2420   59.8280 N.3    68  PHE68      -0.1241
     49  CA        19.4880   22.2220   60.0870 C.3    68  PHE68       0.1605
     50  C         19.9250   23.2170   61.1450 C.2    68  PHE68       0.2264
     51  O         19.1810   24.1410   61.5220 O.2    68  PHE68      -0.2867
     52  CB        20.2860   22.4700   58.7980 C.3    68  PHE68       0.0534
     53  CG        20.0930   23.8480   58.2090 C.ar   68  PHE68      -0.0203
     54  CD1       20.8150   24.9310   58.6790 C.ar   68  PHE68      -0.0042
     55  CD2       19.1990   24.0510   57.1760 C.ar   68  PHE68      -0.0042
     56  CE1       20.6350   26.1910   58.1460 C.ar   68  PHE68      -0.0003
     57  CE2       19.0230   25.3030   56.6260 C.ar   68  PHE68      -0.0003
     58  CZ        19.7380   26.3770   57.1170 C.ar   68  PHE68      -0.0000
     59  N         23.6340   25.3960   61.7360 N.3    70  ASN70      -0.1240
     60  CA        24.9090   25.7240   61.1390 C.3    70  ASN70       0.1653
     61  C         25.7420   26.5410   62.1090 C.2    70  ASN70       0.2266
     62  O         25.3510   27.6450   62.5040 O.2    70  ASN70      -0.2867
     63  CB        24.6720   26.5160   59.8550 C.3    70  ASN70       0.1155
     64  CG        25.8590   26.4980   58.9350 C.2    70  ASN70       0.2627
     65  OD1       26.7270   25.6350   59.0380 O.2    70  ASN70      -0.2716
     66  ND2       25.9060   27.4550   58.0190 N.am   70  ASN70      -0.0877
     67  N         29.2450   28.3890   62.6350 N.3    72  THR72      -0.1218
     68  CA        30.4550   28.9640   62.0570 C.3    72  THR72       0.1862
     69  C         31.4730   29.4430   63.0950 C.2    72  THR72       0.2287
     70  O         31.1580   30.2590   63.9800 O.2    72  THR72      -0.2866
     71  CB        30.1280   30.1420   61.1240 C.3    72  THR72       0.1770
     72  OG1       29.4680   29.6610   59.9460 O.3    72  THR72      -0.2211
     73  CG2       31.3930   30.8770   60.7300 C.3    72  THR72       0.0375
     74  N         29.1900   32.6020   63.9600 N.3    84  GLU84      -0.1245
     75  CA        27.8530   32.6430   63.3730 C.3    84  GLU84       0.1567
     76  C         27.0080   31.4390   63.7540 C.2    84  GLU84       0.2260
     77  O         27.5140   30.3220   63.8270 O.2    84  GLU84      -0.2867
     78  CB        27.9400   32.7850   61.8530 C.3    84  GLU84       0.0388
     79  CG        26.6000   32.7830   61.1420 C.3    84  GLU84       0.1160
     80  CD        26.6990   33.3110   59.7270 C.2    84  GLU84       0.3649
     81  OE1       27.3800   34.3390   59.5340 O.co2  84  GLU84      -0.2457
     82  OE2       26.1020   32.7020   58.8100 O.co2  84  GLU84      -0.2457
     83  N         23.2500   29.6780   62.6230 N.3    86  GLY86      -0.1225
     84  CA        22.0340   29.6890   61.8320 C.3    86  GLY86       0.1811
     85  C         21.2130   28.4500   62.1120 C.2    86  GLY86       0.2280
     86  O         21.7540   27.4070   62.4370 O.2    86  GLY86      -0.2866
     87  N         19.3850   33.6410   61.7500 N.3   101  ILE101     -0.1245
     88  CA        20.8330   33.6650   61.7880 C.3   101  ILE101      0.1561
     89  C         21.3150   34.8350   62.6180 C.2   101  ILE101      0.2260
     90  O         20.8220   35.9550   62.4740 O.2   101  ILE101     -0.2867
     91  CB        21.4460   33.7950   60.3780 C.3   101  ILE101      0.0252
     92  CG1       20.8030   32.8060   59.4040 C.3   101  ILE101      0.0019
     93  CG2       22.9480   33.5780   60.4350 C.3   101  ILE101      0.0019
     94  CD1       21.4340   32.7970   58.0350 C.3   101  ILE101      0.0001
@<TRIPOS>BOND
     1     7     6    2
     2     6     8   am
     3     6     5    1
     4     5     2    1
     5     2     1    1
     6     2     3    1
     7    17    16    1
     8    39    37    1
     9     3     4    2
    10    46    45    2
    11    47    45   am
    12    57    58   ar
    13    57    55   ar
    14    45    44    1
    15    30    29    2
    16    15    16    1
    17    15    14    1
    18    58    56   ar
    19    55    53   ar
    20    31    29   am
    21    29    28    1
    22    37    36    1
    23    37    38    1
    24    44    41    1
    25    12    11    2
    26    66    64   am
    27    94    92    1
    28    13    14    1
    29    13    10    1
    30    56    54   ar
    31    36    33    1
    32    53    54   ar
    33    53    52    1
    34    11    10    1
    35    11    18   am
    36    52    49    1
    37    82    80   ar
    38    28    25    1
    39    64    65    2
    40    64    63    1
    41     9    10    1
    42    41    42    1
    43    41    40    1
    44    19    18    1
    45    19    20    1
    46    19    22    1
    47    92    91    1
    48    24    20   am
    49    24    25    1
    50    27    26    2
    51    81    80   ar
    52    42    43    2
    53    33    32    1
    54    33    34    1
    55    80    79    1
    56    35    34    2
    57    20    21    2
    58    48    49    1
    59    63    60    1
    60    25    26    1
    61    22    23    1
    62    72    71    1
    63    49    50    1
    64    91    93    1
    65    91    88    1
    66    73    71    1
    67    71    68    1
    68    60    59    1
    69    60    61    1
    70    79    78    1
    71    50    51    2
    72    87    88    1
    73    88    89    1
    74    84    85    1
    75    84    83    1
    76    78    75    1
    77    68    67    1
    78    68    69    1
    79    61    62    2
    80    85    86    2
    81    90    89    2
    82    69    70    2
    83    75    76    1
    84    75    74    1
    85    76    77    2
