@<TRIPOS>MOLECULE
tmp/4aknB00.pdb
 166 163 0 0 0
SMALL
GASTEIGER

@<TRIPOS>ATOM
      1  N         41.8190    0.7260   10.1310 N.3    25  TRP25      -0.1228
      2  CA        43.1680    1.3070   10.0100 C.3    25  TRP25       0.1722
      3  C         43.3360    2.4140    8.9740 C.2    25  TRP25       0.2437
      4  O         44.0310    3.3940    9.2520 O.2    25  TRP25      -0.2733
      5  CB        44.2440    0.2210    9.8640 C.3    25  TRP25       0.0563
      6  CG        44.1070   -0.6440    8.6410 C.ar   25  TRP25       0.0003
      7  CD1       43.3560   -1.8040    8.4960 C.ar   25  TRP25       0.0946
      8  CD2       44.7370   -0.4350    7.3410 C.ar   25  TRP25       0.0152
      9  NE1       43.4740   -2.3090    7.2290 N.ar   25  TRP25      -0.2442
     10  CE2       44.2890   -1.5330    6.4860 C.ar   25  TRP25       0.0810
     11  CE3       45.5900    0.5200    6.8190 C.ar   25  TRP25       0.0012
     12  CZ2       44.6960   -1.6480    5.1710 C.ar   25  TRP25       0.0191
     13  CZ3       45.9960    0.3920    5.4920 C.ar   25  TRP25       0.0001
     14  CH2       45.5570   -0.6640    4.6880 C.ar   25  TRP25       0.0015
     15  N         42.6790    2.3150    7.7920 N.am   26  PRO26      -0.2718
     16  CA        42.8210    3.4250    6.8380 C.3    26  PRO26       0.1535
     17  C         42.1210    4.7230    7.2570 C.2    26  PRO26       0.2598
     18  O         42.3750    5.7630    6.6530 O.2    26  PRO26      -0.2715
     19  CB        42.1620    2.8880    5.5570 C.3    26  PRO26       0.0310
     20  CG        41.9780    1.4170    5.7730 C.3    26  PRO26       0.0237
     21  CD        41.7950    1.2710    7.2530 C.3    26  PRO26       0.0939
     22  N         41.2510    4.6460    8.2630 N.am   27  PHE27      -0.1974
     23  CA        40.4010    5.7580    8.6870 C.3    27  PHE27       0.1639
     24  C         40.8640    6.4470    9.9740 C.2    27  PHE27       0.2290
     25  O         40.2470    7.4190   10.4040 O.2    27  PHE27      -0.2864
     26  CB        38.9660    5.2510    8.8810 C.3    27  PHE27       0.0560
     27  CG        38.3640    4.6530    7.6400 C.ar   27  PHE27      -0.0200
     28  CD1       37.6720    5.4470    6.7350 C.ar   27  PHE27      -0.0042
     29  CD2       38.4930    3.2960    7.3720 C.ar   27  PHE27      -0.0042
     30  CE1       37.1270    4.9000    5.5860 C.ar   27  PHE27      -0.0003
     31  CE2       37.9450    2.7450    6.2260 C.ar   27  PHE27      -0.0003
     32  CZ        37.2650    3.5480    5.3300 C.ar   27  PHE27      -0.0000
     33  N         43.5490    8.1810   10.6100 N.3    29  GLN29      -0.1231
     34  CA        44.3230    9.3980   10.3830 C.3    29  GLN29       0.1683
     35  C         43.8890    9.9850    9.0500 C.2    29  GLN29       0.2434
     36  O         43.2800    9.2810    8.2450 O.2    29  GLN29      -0.2733
     37  CB        45.8290    9.0960   10.3710 C.3    29  GLN29       0.0380
     38  CG        46.2740    8.0750    9.3360 C.3    29  GLN29       0.0905
     39  CD        45.7850    6.6710    9.6470 C.2    29  GLN29       0.2608
     40  OE1       46.0100    6.1520   10.7430 O.2    29  GLN29      -0.2717
     41  NE2       45.1000    6.0540    8.6850 N.am   29  GLN29      -0.0878
     42  N         44.2020   11.2680    8.7990 N.am   30  PRO30      -0.2718
     43  CA        43.8290   11.8580    7.5140 C.3    30  PRO30       0.1535
     44  C         44.4000   11.0980    6.3170 C.2    30  PRO30       0.2598
     45  O         45.4770   10.5060    6.4080 O.2    30  PRO30      -0.2715
     46  CB        44.4290   13.2680    7.5800 C.3    30  PRO30       0.0310
     47  CG        44.5450   13.5700    9.0310 C.3    30  PRO30       0.0237
     48  CD        44.7970   12.2600    9.7140 C.3    30  PRO30       0.0939
     49  N         43.6640   11.1070    5.2120 N.am   31  VAL31      -0.1964
     50  CA        44.1680   10.5920    3.9480 C.3    31  VAL31       0.1727
     51  C         45.4040   11.4010    3.5650 C.2    31  VAL31       0.2616
     52  O         45.3430   12.6280    3.4950 O.2    31  VAL31      -0.2715
     53  CB        43.1100   10.7100    2.8300 C.3    31  VAL31       0.0290
     54  CG1       43.6850   10.2900    1.4850 C.3    31  VAL31       0.0023
     55  CG2       41.8820    9.8750    3.1770 C.3    31  VAL31       0.0023
     56  N         46.5240   10.7100    3.3560 N.am   32  ASP32      -0.1971
     57  CA        47.7710   11.3490    2.9220 C.3    32  ASP32       0.1709
     58  C         47.8860   11.1850    1.4090 C.2    32  ASP32       0.2293
     59  O         48.3430   10.1500    0.9200 O.2    32  ASP32      -0.2864
     60  CB        48.9760   10.7240    3.6380 C.3    32  ASP32       0.1436
     61  CG        50.2680   11.5200    3.4370 C.2    32  ASP32       0.3671
     62  OD1       50.3770   12.2870    2.4570 O.co2  32  ASP32      -0.2456
     63  OD2       51.1860   11.3680    4.2690 O.co2  32  ASP32      -0.2456
     64  N         51.5190   10.5730    0.0560 N.3    35  LYS35      -0.1231
     65  CA        51.9920    9.2210    0.3670 C.3    35  LYS35       0.1693
     66  C         51.2650    8.1400   -0.4430 C.2    35  LYS35       0.2591
     67  O         51.8790    7.1530   -0.8550 O.2    35  LYS35      -0.2718
     68  CB        51.8510    8.9590    1.8720 C.3    35  LYS35       0.0285
     69  CG        52.6670    7.7930    2.4150 C.3    35  LYS35       0.0035
     70  CD        51.8420    6.5270    2.5930 C.3    35  LYS35       0.0206
     71  CE        52.4450    5.6150    3.6530 C.3    35  LYS35       0.1093
     72  NZ        51.5890    4.4240    3.9150 N.3    35  LYS35      -0.1314
     73  N         49.9680    8.3360   -0.6790 N.am   36  LEU36      -0.1980
     74  CA        49.1630    7.3870   -1.4580 C.3    36  LEU36       0.1596
     75  C         49.2060    7.6370   -2.9670 C.2    36  LEU36       0.2287
     76  O         48.7010    6.8240   -3.7390 O.2    36  LEU36      -0.2864
     77  CB        47.7010    7.4170   -0.9880 C.3    36  LEU36       0.0297
     78  CG        47.4410    6.9840    0.4540 C.3    36  LEU36       0.0022
     79  CD1       45.9870    7.2390    0.8230 C.3    36  LEU36       0.0001
     80  CD2       47.8020    5.5200    0.6600 C.3    36  LEU36       0.0001
     81  N         47.8180   10.3670   -4.7500 N.3    38  LEU38      -0.1245
     82  CA        46.4830   10.8010   -5.1650 C.3    38  LEU38       0.1561
     83  C         46.4510   12.3250   -5.3240 C.2    38  LEU38       0.2260
     84  O         45.8770   13.0270   -4.4860 O.2    38  LEU38      -0.2867
     85  CB        45.4480   10.3630   -4.1230 C.3    38  LEU38       0.0270
     86  CG        45.4250    8.8750   -3.7680 C.3    38  LEU38       0.0019
     87  CD1       44.4970    8.6240   -2.5870 C.3    38  LEU38       0.0001
     88  CD2       45.0120    8.0360   -4.9680 C.3    38  LEU38       0.0001
     89  N         43.1040   14.2340   -4.9400 N.3    41  TYR41      -0.1241
     90  CA        42.2690   13.9830   -3.7560 C.3    41  TYR41       0.1605
     91  C         41.6850   15.2630   -3.1600 C.2    41  TYR41       0.2264
     92  O         40.4810   15.3490   -2.9160 O.2    41  TYR41      -0.2867
     93  CB        43.0260   13.2090   -2.6700 C.3    41  TYR41       0.0534
     94  CG        42.1160   12.8700   -1.5090 C.ar   41  TYR41      -0.0201
     95  CD1       41.2240   11.8010   -1.5900 C.ar   41  TYR41      -0.0009
     96  CD2       42.0980   13.6530   -0.3580 C.ar   41  TYR41      -0.0009
     97  CE1       40.3700   11.5020   -0.5430 C.ar   41  TYR41       0.0417
     98  CE2       41.2400   13.3660    0.6930 C.ar   41  TYR41       0.0417
     99  CZ        40.3750   12.2900    0.5930 C.ar   41  TYR41       0.1957
    100  OH        39.5230   12.0010    1.6380 O.3    41  TYR41      -0.2866
    101  N         33.3120   11.7350    6.7560 N.3    76  MET76      -0.1245
    102  CA        34.3870   10.7700    6.5420 C.3    76  MET76       0.1570
    103  C         33.9540    9.6700    5.5740 C.2    76  MET76       0.2261
    104  O         34.6560    9.3650    4.6040 O.2    76  MET76      -0.2867
    105  CB        34.8090   10.1510    7.8710 C.3    76  MET76       0.0387
    106  CG        35.8520    9.0580    7.7470 C.3    76  MET76       0.0595
    107  SD        36.2550    8.3860    9.3630 S.3    76  MET76      -0.1393
    108  CE        34.7870    7.4200    9.7010 C.3    76  MET76       0.0692
    109  N         32.9780   11.1150    1.9470 N.3    79  ASN79      -0.1225
    110  CA        34.1980   11.4230    1.2010 C.3    79  ASN79       0.1785
    111  C         34.7560   10.1750    0.5230 C.2    79  ASN79       0.2597
    112  O         35.1410   10.2030   -0.6470 O.2    79  ASN79      -0.2718
    113  CB        35.2760   11.9910    2.1290 C.3    79  ASN79       0.1169
    114  CG        35.0060   13.4230    2.5580 C.2    79  ASN79       0.2627
    115  OD1       34.1560   14.1200    1.9970 O.2    79  ASN79      -0.2716
    116  ND2       35.7380   13.8700    3.5690 N.am   79  ASN79      -0.0877
    117  N         34.8130    9.0870    1.2860 N.am   80  CYS80      -0.1970
    118  CA        35.3090    7.8060    0.7870 C.3    80  CYS80       0.1712
    119  C         34.5140    7.3110   -0.4310 C.2    80  CYS80       0.2296
    120  O         35.0990    6.9210   -1.4500 O.2    80  CYS80      -0.2864
    121  CB        35.2860    6.7800    1.9150 C.3    80  CYS80       0.0983
    122  SG        36.0670    5.2140    1.4960 S.3    80  CYS80      -0.0798
    123  N         35.0030    9.8380   -3.5790 N.3    83  TYR83      -0.1227
    124  CA        36.3160    9.8570   -4.2290 C.3    83  TYR83       0.1736
    125  C         36.6690    8.5490   -4.9360 C.2    83  TYR83       0.2595
    126  O         37.1560    8.5580   -6.0710 O.2    83  TYR83      -0.2718
    127  CB        37.4400   10.1940   -3.2390 C.3    83  TYR83       0.0548
    128  CG        38.7920   10.1510   -3.9150 C.ar   83  TYR83      -0.0200
    129  CD1       39.2010   11.1800   -4.7570 C.ar   83  TYR83      -0.0009
    130  CD2       39.6340    9.0530   -3.7620 C.ar   83  TYR83      -0.0009
    131  CE1       40.4210   11.1240   -5.4150 C.ar   83  TYR83       0.0417
    132  CE2       40.8530    8.9900   -4.4100 C.ar   83  TYR83       0.0417
    133  CZ        41.2440   10.0300   -5.2310 C.ar   83  TYR83       0.1957
    134  OH        42.4550    9.9630   -5.8760 O.3    83  TYR83      -0.2866
    135  N         36.4490    7.4280   -4.2610 N.am   84  ASN84      -0.1974
    136  CA        36.9560    6.1460   -4.7490 C.3    84  ASN84       0.1688
    137  C         36.0730    5.4990   -5.8100 C.2    84  ASN84       0.2292
    138  O         34.9040    5.8550   -5.9650 O.2    84  ASN84      -0.2864
    139  CB        37.1640    5.2040   -3.5700 C.3    84  ASN84       0.1181
    140  CG        38.2430    5.6990   -2.6360 C.2    84  ASN84       0.2629
    141  OD1       39.4340    5.5930   -2.9370 O.2    84  ASN84      -0.2716
    142  ND2       37.8350    6.2780   -1.5140 N.am   84  ASN84      -0.0877
    143  N         38.2870   -1.7040   -2.6310 N.3    89  ASP89      -0.1225
    144  CA        38.0800   -2.3590   -1.3420 C.3    89  ASP89       0.1805
    145  C         37.7880   -1.3640   -0.2240 C.2    89  ASP89       0.2597
    146  O         37.0500   -1.6840    0.7040 O.2    89  ASP89      -0.2718
    147  CB        39.3000   -3.1990   -0.9420 C.3    89  ASP89       0.1424
    148  CG        39.4690   -4.4430   -1.7890 C.2    89  ASP89       0.3668
    149  OD1       38.5610   -4.7880   -2.5680 O.co2  89  ASP89      -0.2456
    150  OD2       40.5260   -5.0850   -1.6610 O.co2  89  ASP89      -0.2456
    151  N         38.3520   -0.1600   -0.3080 N.am   90  ILE90      -0.1980
    152  CA        38.1370    0.8430    0.7350 C.3    90  ILE90       0.1595
    153  C         36.6510    1.1810    0.8880 C.2    90  ILE90       0.2287
    154  O         36.1880    1.4460    1.9940 O.2    90  ILE90      -0.2864
    155  CB        38.9810    2.1190    0.5040 C.3    90  ILE90       0.0276
    156  CG1       39.0560    2.9600    1.7840 C.3    90  ILE90       0.0022
    157  CG2       38.4360    2.9360   -0.6630 C.3    90  ILE90       0.0022
    158  CD1       39.9050    2.3590    2.8860 C.3    90  ILE90       0.0001
    159  N         35.0770   -1.4380    3.0350 N.3    93  MET93      -0.1245
    160  CA        35.5370   -1.2360    4.4130 C.3    93  MET93       0.1570
    161  C         34.7460   -0.1030    5.0890 C.2    93  MET93       0.2261
    162  O         34.2640   -0.2510    6.2170 O.2    93  MET93      -0.2867
    163  CB        37.0410   -0.9600    4.4030 C.3    93  MET93       0.0387
    164  CG        37.8610   -2.1510    3.9140 C.3    93  MET93       0.0595
    165  SD        39.5860   -1.7720    3.5490 S.3    93  MET93      -0.1393
    166  CE        40.2900   -1.9000    5.1940 C.3    93  MET93       0.0692
@<TRIPOS>BOND
     1   126   125    2
     2   138   137    2
     3   134   133    1
     4   137   136    1
     5   131   133   ar
     6   131   129   ar
     7    83    82    1
     8    83    84    2
     9   133   132   ar
    10    82    81    1
    11    82    85    1
    12    88    86    1
    13    89    90    1
    14   125   135   am
    15   125   124    1
    16   129   128   ar
    17   136   135    1
    18   136   139    1
    19   132   130   ar
    20   124   123    1
    21   124   127    1
    22    85    86    1
    23   128   130   ar
    24   128   127    1
    25    86    87    1
    26    90    91    1
    27    90    93    1
    28    76    75    2
    29   139   140    1
    30    91    92    2
    31    75    74    1
    32   141   140    2
    33    93    94    1
    34   140   142   am
    35   143   144    1
    36   149   148   ar
    37   148   150   ar
    38   148   147    1
    39    95    94   ar
    40    95    97   ar
    41    94    96   ar
    42    74    77    1
    43    74    73    1
    44   120   119    2
    45   144   147    1
    46   144   145    1
    47    77    78    1
    48    67    66    2
    49    73    66   am
    50   157   155    1
    51   112   111    2
    52    97    99   ar
    53    66    65    1
    54   119   118    1
    55    96    98   ar
    56   151   145   am
    57   151   152    1
    58   145   146    2
    59    64    65    1
    60    65    68    1
    61    78    80    1
    62    78    79    1
    63   155   152    1
    64   155   156    1
    65   111   110    1
    66   111   117   am
    67    99    98   ar
    68    99   100    1
    69   152   153    1
    70   118   117    1
    71   118   121    1
    72   153   154    2
    73    59    58    2
    74   110   109    1
    75   110   113    1
    76    58    57    1
    77    54    53    1
    78   122   121    1
    79   156   158    1
    80    68    69    1
    81   115   114    2
    82   113   114    1
    83    69    70    1
    84    62    61   ar
    85   114   116   am
    86    70    71    1
    87    53    55    1
    88    53    50    1
    89    57    56    1
    90    57    60    1
    91   159   160    1
    92    56    51   am
    93    61    60    1
    94    61    63   ar
    95    52    51    2
    96   165   164    1
    97   165   166    1
    98    51    50    1
    99    71    72    1
   100   164   163    1
   101    50    49    1
   102   163   160    1
   103   160   161    1
   104   104   103    2
   105    14    12   ar
   106    14    13   ar
   107   161   162    2
   108    12    10   ar
   109    49    44   am
   110    32    30   ar
   111    32    31   ar
   112    13    11   ar
   113    19    20    1
   114    19    16    1
   115   103   102    1
   116    30    28   ar
   117    20    21    1
   118    31    29   ar
   119    44    45    2
   120    44    43    1
   121    10     9   ar
   122    10     8   ar
   123   102   101    1
   124   102   105    1
   125    18    17    2
   126    28    27   ar
   127    11     8   ar
   128    16    17    1
   129    16    15    1
   130     9     7   ar
   131    21    15    1
   132    17    22   am
   133     8     6   ar
   134    29    27   ar
   135    43    46    1
   136    43    42    1
   137    46    47    1
   138    27    26    1
   139   106   105    1
   140   106   107    1
   141    15     3   am
   142    36    35    2
   143    22    23    1
   144     7     6   ar
   145     6     5    1
   146    41    39   am
   147    23    26    1
   148    23    24    1
   149    42    35   am
   150    42    48    1
   151     3     4    2
   152     3     2    1
   153    47    48    1
   154    35    34    1
   155    38    39    1
   156    38    37    1
   157   107   108    1
   158    39    40    2
   159     5     2    1
   160    24    25    2
   161     2     1    1
   162    37    34    1
   163    34    33    1
