@<TRIPOS>MOLECULE
tmp/4aktA00.pdb
 210 203 0 0 0
SMALL
GASTEIGER

@<TRIPOS>ATOM
      1  N         15.7020   -4.0470  -19.8390 N.3    75  ARG75      -0.1245
      2  CA        15.6940   -3.0690  -18.7670 C.3    75  ARG75       0.1563
      3  C         14.2760   -2.7870  -18.3130 C.2    75  ARG75       0.2260
      4  O         13.9970   -2.7820  -17.1180 O.2    75  ARG75      -0.2867
      5  CB        16.3590   -1.7660  -19.1970 C.3    75  ARG75       0.0307
      6  CG        16.3210   -0.7090  -18.1130 C.3    75  ARG75       0.0489
      7  CD        17.4760    0.2580  -18.2710 C.3    75  ARG75       0.2205
      8  NE        17.3620    1.0720  -19.4750 N.pl3  75  ARG75      -0.0865
      9  CZ        18.3740    1.7290  -20.0440 C.cat  75  ARG75       0.5346
     10  NH1       19.5990    1.6600  -19.5340 N.pl3  75  ARG75       0.1354
     11  NH2       18.1530    2.4490  -21.1440 N.pl3  75  ARG75       0.1354
     12  N         14.5390   -6.7370  -15.0820 N.3    79  LEU79      -0.1231
     13  CA        15.4490   -7.8370  -14.7890 C.3    79  LEU79       0.1693
     14  C         16.7670   -7.2760  -14.2800 C.2    79  LEU79       0.2592
     15  O         17.1880   -6.1860  -14.6880 O.2    79  LEU79      -0.2718
     16  CB        15.7140   -8.6970  -16.0280 C.3    79  LEU79       0.0284
     17  CG        14.6750   -9.7360  -16.4040 C.3    79  LEU79       0.0019
     18  CD1       15.0830  -10.3660  -17.7280 C.3    79  LEU79       0.0001
     19  CD2       14.5460  -10.7810  -15.3120 C.3    79  LEU79       0.0001
     20  N         17.4050   -8.0220  -13.3850 N.am   80  LYS80      -0.1966
     21  CA        18.6370   -7.5670  -12.7600 C.3    80  LYS80       0.1728
     22  C         19.5730   -8.7260  -12.4430 C.2    80  LYS80       0.2617
     23  O         19.1410   -9.8860  -12.3620 O.2    80  LYS80      -0.2715
     24  CB        18.2960   -6.7930  -11.4780 C.3    80  LYS80       0.0311
     25  CG        17.5100   -7.6050  -10.4320 C.3    80  LYS80       0.0038
     26  CD        17.1660   -6.8590   -9.1470 C.3    80  LYS80       0.0206
     27  CE        16.7750   -5.4050   -9.4020 C.3    80  LYS80       0.1093
     28  NZ        16.3190   -4.6740   -8.1850 N.3    80  LYS80      -0.1314
     29  N         20.8570   -8.4020  -12.2760 N.am   81  GLY81      -0.1940
     30  CA        21.8480   -9.3680  -11.7970 C.3    81  GLY81       0.2014
     31  C         22.1920  -10.4630  -12.7920 C.2    81  GLY81       0.2638
     32  O         22.5170  -10.1830  -13.9450 O.2    81  GLY81      -0.2714
     33  N         22.1220  -11.7110  -12.3380 N.am   82  LYS82      -0.1977
     34  CA        22.4450  -12.8580  -13.1820 C.3    82  LYS82       0.1596
     35  C         21.4030  -13.0150  -14.2890 C.2    82  LYS82       0.2287
     36  O         21.7540  -13.0780  -15.4700 O.2    82  LYS82      -0.2864
     37  CB        22.5500  -14.1330  -12.3350 C.3    82  LYS82       0.0298
     38  CG        23.7560  -14.1280  -11.4030 C.3    82  LYS82       0.0038
     39  CD        25.0530  -14.4480  -12.1370 C.3    82  LYS82       0.0206
     40  CE        26.2830  -14.1290  -11.2940 C.3    82  LYS82       0.1093
     41  NZ        26.5880  -15.2330  -10.3390 N.3    82  LYS82      -0.1314
     42  N         19.5560  -10.8840  -15.6860 N.3    84  LYS84      -0.1231
     43  CA        19.7130   -9.8440  -16.7020 C.3    84  LYS84       0.1693
     44  C         20.8260  -10.1900  -17.6880 C.2    84  LYS84       0.2591
     45  O         20.6820   -9.9520  -18.8820 O.2    84  LYS84      -0.2718
     46  CB        20.0010   -8.4760  -16.0590 C.3    84  LYS84       0.0285
     47  CG        20.2630   -7.3460  -17.0500 C.3    84  LYS84       0.0035
     48  CD        20.6290   -6.0240  -16.3650 C.3    84  LYS84       0.0206
     49  CE        20.6490   -4.8590  -17.3660 C.3    84  LYS84       0.1093
     50  NZ        20.5730   -3.4770  -16.8140 N.3    84  LYS84      -0.1314
     51  N         21.9390  -10.7280  -17.1920 N.am   85  GLU85      -0.1979
     52  CA        23.0870  -11.0020  -18.0620 C.3    85  GLU85       0.1602
     53  C         22.8420  -12.2610  -18.8830 C.2    85  GLU85       0.2287
     54  O         23.3420  -12.3650  -19.9940 O.2    85  GLU85      -0.2864
     55  CB        24.4220  -11.0850  -17.2910 C.3    85  GLU85       0.0415
     56  CG        25.6540  -10.6180  -18.1030 C.3    85  GLU85       0.1163
     57  CD        25.7380   -9.1080  -18.3380 C.2    85  GLU85       0.3649
     58  OE1       24.8710   -8.3410  -17.8480 O.co2  85  GLU85      -0.2457
     59  OE2       26.6940   -8.6760  -19.0340 O.co2  85  GLU85      -0.2457
     60  N         25.9150   -1.0060  -23.4240 N.3   100  VAL100     -0.1231
     61  CA        25.9770   -0.4580  -22.0740 C.3   100  VAL100      0.1692
     62  C         26.6860    0.8920  -22.1230 C.2   100  VAL100      0.2591
     63  O         26.1710    1.8740  -21.5860 O.2   100  VAL100     -0.2718
     64  CB        26.6980   -1.3780  -21.0590 C.3   100  VAL100      0.0266
     65  CG1       27.1500   -0.5680  -19.8420 C.3   100  VAL100      0.0020
     66  CG2       25.7900   -2.5260  -20.6190 C.3   100  VAL100      0.0020
     67  N         27.8430    0.9400  -22.7940 N.am  101  LEU101     -0.1980
     68  CA        28.6140    2.1740  -22.9200 C.3   101  LEU101      0.1596
     69  C         27.8170    3.2280  -23.6400 C.2   101  LEU101      0.2287
     70  O         27.6630    4.3290  -23.1280 O.2   101  LEU101     -0.2864
     71  CB        29.9380    1.9600  -23.6690 C.3   101  LEU101      0.0297
     72  CG        31.2140    1.5710  -22.9340 C.3   101  LEU101      0.0022
     73  CD1       32.2550    1.0290  -23.9080 C.3   101  LEU101      0.0001
     74  CD2       31.7410    2.7950  -22.2330 C.3   101  LEU101      0.0001
     75  N         24.7750    4.5420  -21.7050 N.3   104  ALA104     -0.1245
     76  CA        25.2090    5.4440  -20.6430 C.3   104  ALA104      0.1562
     77  C         25.6880    6.8150  -21.1920 C.2   104  ALA104      0.2260
     78  O         25.4230    7.8560  -20.5790 O.2   104  ALA104     -0.2867
     79  CB        26.2550    4.7870  -19.7570 C.3   104  ALA104      0.0290
     80  N         39.5530    1.0450  -21.6050 N.3   139  MET139     -0.1245
     81  CA        39.6910    1.8260  -20.3770 C.3   139  MET139      0.1570
     82  C         41.1200    1.8220  -19.8300 C.2   139  MET139      0.2261
     83  O         41.3080    2.2520  -18.6990 O.2   139  MET139     -0.2867
     84  CB        38.7890    1.2590  -19.2580 C.3   139  MET139      0.0387
     85  CG        37.3080    1.0150  -19.5660 C.3   139  MET139      0.0595
     86  SD        36.3700    0.8460  -18.0240 S.3   139  MET139     -0.1393
     87  CE        36.7140   -0.8600  -17.5590 C.3   139  MET139      0.0692
     88  N         33.8930    9.5580  -18.1690 N.3   162  ALA162     -0.1231
     89  CA        32.8300    8.6260  -17.7040 C.3   162  ALA162      0.1694
     90  C         33.3160    7.2670  -17.1360 C.2   162  ALA162      0.2592
     91  O         32.5100    6.4670  -16.6660 O.2   162  ALA162     -0.2718
     92  CB        31.8290    8.3810  -18.8160 C.3   162  ALA162      0.0304
     93  N         34.6300    7.0530  -17.1240 N.am  163  PHE163     -0.1962
     94  CA        35.2200    5.7390  -16.9690 C.3   163  PHE163      0.1771
     95  C         35.7630    5.4630  -15.6010 C.2   163  PHE163      0.2619
     96  O         36.3030    6.3620  -14.9480 O.2   163  PHE163     -0.2715
     97  CB        36.3640    5.5760  -17.9830 C.3   163  PHE163      0.0574
     98  CG        35.8800    5.4320  -19.3920 C.ar  163  PHE163     -0.0200
     99  CD1       35.1680    4.2810  -19.7870 C.ar  163  PHE163     -0.0042
    100  CD2       36.0730    6.4400  -20.3110 C.ar  163  PHE163     -0.0042
    101  CE1       34.6880    4.1460  -21.0830 C.ar  163  PHE163     -0.0003
    102  CE2       35.5960    6.3140  -21.6080 C.ar  163  PHE163     -0.0003
    103  CZ        34.9080    5.1700  -21.9920 C.ar  163  PHE163     -0.0000
    104  N         35.6480    4.2050  -15.1850 N.am  164  CYS164     -0.1968
    105  CA        36.2560    3.7280  -13.9510 C.3   164  CYS164      0.1712
    106  C         37.1880    2.5650  -14.2750 C.2   164  CYS164      0.2296
    107  O         36.7050    1.4990  -14.6340 O.2   164  CYS164     -0.2864
    108  CB        35.1640    3.2760  -12.9420 C.3   164  CYS164      0.0983
    109  SG        35.7620    2.1580  -11.6310 S.3   164  CYS164     -0.0798
    110  N         39.5810   -0.1790  -12.6500 N.3   166  PRO166     -0.2116
    111  CA        39.7740   -0.5970  -11.2720 C.3   166  PRO166      0.1372
    112  C         41.1530   -0.3580  -10.6780 C.2   166  PRO166      0.2244
    113  O         42.1660   -0.2900  -11.3880 O.2   166  PRO166     -0.2868
    114  CB        39.4210   -2.0820  -11.3200 C.3   166  PRO166      0.0268
    115  CG        38.3590   -2.1480  -12.3600 C.3   166  PRO166      0.0207
    116  CD        38.8050   -1.1680  -13.4100 C.3   166  PRO166      0.0892
    117  N         33.4220    9.6520  -11.9430 N.3   193  PRO193     -0.2116
    118  CA        32.6560    9.0420  -10.8640 C.3   193  PRO193      0.1372
    119  C         33.5160    8.1860   -9.9770 C.2   193  PRO193      0.2244
    120  O         34.5590    7.7210  -10.4180 O.2   193  PRO193     -0.2868
    121  CB        31.6400    8.1860  -11.5980 C.3   193  PRO193      0.0268
    122  CG        32.3490    7.7990  -12.8190 C.3   193  PRO193      0.0207
    123  CD        33.1450    9.0090  -13.2270 C.3   193  PRO193      0.0892
    124  N         32.5820    5.4240   -8.5180 N.3   195  GLY195     -0.1210
    125  CA        32.2900    4.0310   -8.8290 C.3   195  GLY195      0.1956
    126  C         31.1870    3.4270   -7.9580 C.2   195  GLY195      0.2612
    127  O         30.8330    3.9720   -6.9140 O.2   195  GLY195     -0.2717
    128  N         30.6670    2.2770   -8.3800 N.am  196  ASN196     -0.1960
    129  CA        29.5720    1.6130   -7.6870 C.3   196  ASN196      0.1819
    130  C         29.9610    0.2800   -7.0780 C.2   196  ASN196      0.2621
    131  O         29.1640   -0.6440   -7.0540 O.2   196  ASN196     -0.2715
    132  CB        28.4200    1.4010   -8.6580 C.3   196  ASN196      0.1195
    133  CG        27.9410    2.6890   -9.2780 C.2   196  ASN196      0.2630
    134  OD1       28.2250    3.8040   -8.8020 O.2   196  ASN196     -0.2716
    135  ND2       27.2190    2.5470  -10.3590 N.am  196  ASN196     -0.0877
    136  N         31.1760    0.1850   -6.5550 N.am  197  ASN197     -0.1958
    137  CA        31.6800   -1.0810   -6.0400 C.3   197  ASN197      0.1819
    138  C         31.4280   -1.3450   -4.5550 C.2   197  ASN197      0.2622
    139  O         31.7930   -2.3820   -4.0610 O.2   197  ASN197     -0.2715
    140  CB        33.1810   -1.1800   -6.3420 C.3   197  ASN197      0.1195
    141  CG        33.4750   -1.0600   -7.8260 C.2   197  ASN197      0.2630
    142  OD1       33.5220    0.0390   -8.3860 O.2   197  ASN197     -0.2716
    143  ND2       33.6410   -2.1840   -8.4690 N.am  197  ASN197     -0.0877
    144  N         30.8040   -0.4190   -3.8460 N.am  198  SER198     -0.1950
    145  CA        30.6610   -0.5220   -2.3910 C.3   198  SER198      0.1924
    146  C         32.0320   -0.7100   -1.7120 C.2   198  SER198      0.2314
    147  O         32.1710   -1.4800   -0.7800 O.2   198  SER198     -0.2863
    148  CB        29.7060   -1.6660   -2.0130 C.3   198  SER198      0.2116
    149  OG        28.5510   -1.6780   -2.8380 O.3   198  SER198     -0.2180
    150  N         24.4320    3.3310   -0.8600 N.3   225  HIS225     -0.1226
    151  CA        25.2610    2.2950   -0.2520 C.3   225  HIS225      0.1752
    152  C         26.3870    1.8210   -1.1460 C.2   225  HIS225      0.2596
    153  O         27.4840    1.5330   -0.6810 O.2   225  HIS225     -0.2718
    154  CB        24.3840    1.1290    0.1600 C.3   225  HIS225      0.0759
    155  CG        23.8090    0.3490   -1.0100 C.ar  225  HIS225      0.0818
    156  ND1       22.6590    0.7020   -1.6270 N.ar  225  HIS225     -0.2268
    157  CD2       24.2800   -0.8050   -1.6710 C.ar  225  HIS225      0.1154
    158  CE1       22.4030   -0.1750   -2.6270 C.ar  225  HIS225      0.1986
    159  NE2       23.4010   -1.0940   -2.6520 N.ar  225  HIS225     -0.2212
    160  N         26.1460    1.7760   -2.4450 N.am  226  PHE226     -0.1976
    161  CA        27.1560    1.2950   -3.3930 C.3   226  PHE226      0.1639
    162  C         28.2350    2.3170   -3.7630 C.2   226  PHE226      0.2290
    163  O         29.2400    1.9360   -4.3460 O.2   226  PHE226     -0.2864
    164  CB        26.4770    0.8360   -4.6900 C.3   226  PHE226      0.0560
    165  CG        25.6910    1.9260   -5.3770 C.ar  226  PHE226     -0.0200
    166  CD1       26.3310    2.9090   -6.0800 C.ar  226  PHE226     -0.0042
    167  CD2       24.3240    1.9570   -5.2860 C.ar  226  PHE226     -0.0042
    168  CE1       25.6190    3.9080   -6.6870 C.ar  226  PHE226     -0.0003
    169  CE2       23.5960    2.9520   -5.8920 C.ar  226  PHE226     -0.0003
    170  CZ        24.2460    3.9360   -6.5950 C.ar  226  PHE226     -0.0000
    171  N         17.9910    6.5310  -14.2610 N.3   258  LEU258     -0.1231
    172  CA        19.0430    5.5860  -13.8970 C.3   258  LEU258      0.1693
    173  C         19.6740    5.9560  -12.5690 C.2   258  LEU258      0.2593
    174  O         19.5790    7.1040  -12.1120 O.2   258  LEU258     -0.2718
    175  CB        20.1100    5.5370  -14.9850 C.3   258  LEU258      0.0284
    176  CG        19.6360    5.0060  -16.3400 C.3   258  LEU258      0.0019
    177  CD1       20.8020    5.0870  -17.3050 C.3   258  LEU258      0.0001
    178  CD2       19.1270    3.5730  -16.2590 C.3   258  LEU258      0.0001
    179  N         20.3430    4.9820  -11.9670 N.am  259  THR259     -0.1939
    180  CA        20.9950    5.1760  -10.6740 C.3   259  THR259      0.2028
    181  C         22.4630    4.8040  -10.6810 C.2   259  THR259      0.2643
    182  O         22.8310    3.7250  -11.1410 O.2   259  THR259     -0.2714
    183  CB        20.2410    4.3770   -9.6010 C.3   259  THR259      0.1808
    184  OG1       18.9980    5.0300   -9.3760 O.3   259  THR259     -0.2208
    185  CG2       21.0030    4.3320   -8.3250 C.3   259  THR259      0.0379
    186  N         23.2960    5.6690  -10.1230 N.am  260  GLY260     -0.1939
    187  CA        24.7440    5.3830  -10.0300 C.3   260  GLY260      0.2014
    188  C         25.6200    6.6190   -9.9650 C.2   260  GLY260      0.2640
    189  O         25.1760    7.7290  -10.2960 O.2   260  GLY260     -0.2714
    190  N         26.8740    6.4350   -9.5550 N.am  261  THR261     -0.1936
    191  CA        27.8220    7.5420   -9.5550 C.3   261  THR261      0.2028
    192  C         28.0120    8.1210  -10.9520 C.2   261  THR261      0.2643
    193  O         28.2070    9.3180  -11.1010 O.2   261  THR261     -0.2714
    194  CB        29.1750    7.1450   -8.9800 C.3   261  THR261      0.1808
    195  OG1       29.7330    6.0700   -9.7270 O.3   261  THR261     -0.2208
    196  CG2       29.0290    6.7380   -7.5390 C.3   261  THR261      0.0379
    197  N         27.9070    7.2860  -11.9790 N.am  262  SER262     -0.1935
    198  CA        27.9420    7.7490  -13.3780 C.3   262  SER262      0.2055
    199  C         26.8290    8.7150  -13.7280 C.2   262  SER262      0.2642
    200  O         26.9600    9.4380  -14.7120 O.2   262  SER262     -0.2714
    201  CB        27.8710    6.5740  -14.3410 C.3   262  SER262      0.2130
    202  OG        29.1500    5.9610  -14.4580 O.3   262  SER262     -0.2179
    203  N         25.7290    8.7150  -12.9640 N.am  263  MET263     -0.1976
    204  CA        24.6550    9.6630  -13.2030 C.3   263  MET263      0.1605
    205  C         24.8520   10.9110  -12.3320 C.2   263  MET263      0.2287
    206  O         24.3830   11.9800  -12.6880 O.2   263  MET263     -0.2864
    207  CB        23.2640    9.0710  -12.9610 C.3   263  MET263      0.0413
    208  CG        23.1270    7.5580  -12.9900 C.3   263  MET263      0.0598
    209  SD        23.7280    6.7510  -14.4470 S.3   263  MET263     -0.1393
    210  CE        23.5880    5.1080  -13.8520 C.3   263  MET263      0.0692
@<TRIPOS>BOND
     1    73    72    1
     2    71    72    1
     3    71    68    1
     4    69    70    2
     5    69    68    1
     6    60    61    1
     7    72    74    1
     8    68    67    1
     9    67    62   am
    10    62    61    1
    11    62    63    2
    12    61    64    1
    13   103   102   ar
    14   103   101   ar
    15    75    76    1
    16   102   100   ar
    17    80    81    1
    18    77    76    1
    19    77    78    2
    20    11     9    1
    21   101    99   ar
    22    64    66    1
    23    64    65    1
    24    76    79    1
    25    81    82    1
    26    81    84    1
    27   100    98   ar
    28     9    10    1
    29     9     8    2
    30    54    53    2
    31     1     2    1
    32    82    83    2
    33    99    98   ar
    34    85    84    1
    35    85    86    1
    36     8     7    1
    37    98    97    1
    38     5     2    1
    39     5     6    1
    40    59    57   ar
    41    53    52    1
    42    45    44    2
    43    92    89    1
    44     2     3    1
    45    57    56    1
    46    57    58   ar
    47     3     4    2
    48     7     6    1
    49    88    89    1
    50    56    55    1
    51    52    55    1
    52    52    51    1
    53    86    87    1
    54    97    94    1
    55    18    17    1
    56    89    90    1
    57    44    51   am
    58    44    43    1
    59    49    50    1
    60    49    48    1
    61   177   176    1
    62    90    93   am
    63    90    91    2
    64    93    94    1
    65    47    48    1
    66    47    46    1
    67    94    95    1
    68    43    46    1
    69    43    42    1
    70    17    16    1
    71    17    19    1
    72   176   178    1
    73   176   175    1
    74    16    13    1
    75    95   104   am
    76    95    96    2
    77    36    35    2
    78   104   105    1
    79    12    13    1
    80   175   172    1
    81    13    14    1
    82   200   199    2
    83    15    14    2
    84   107   106    2
    85   202   201    1
    86   209   210    1
    87   209   208    1
    88   201   198    1
    89    35    34    1
    90    14    20   am
    91   106   105    1
    92   171   172    1
    93   105   108    1
    94    32    31    2
    95   172   173    1
    96   199   198    1
    97   199   203   am
    98   116   110    1
    99   116   115    1
   100    20    21    1
   101   198   197    1
   102   123   122    1
   103   123   117    1
   104   204   203    1
   105   204   207    1
   106   204   205    1
   107    34    33    1
   108    34    37    1
   109   208   207    1
   110   108   109    1
   111   122   121    1
   112    31    33   am
   113    31    30    1
   114    21    22    1
   115    21    24    1
   116   206   205    2
   117   110   111    1
   118   173   174    2
   119   173   179   am
   120    22    23    2
   121    22    29   am
   122   115   114    1
   123    37    38    1
   124    29    30    1
   125    39    38    1
   126    39    40    1
   127   197   192   am
   128   179   180    1
   129   117   118    1
   130   121   118    1
   131    24    25    1
   132   113   112    2
   133   114   111    1
   134    40    41    1
   135   111   112    1
   136   182   181    2
   137   193   192    2
   138   192   191    1
   139   118   119    1
   140   181   180    1
   141   181   186   am
   142   180   183    1
   143    25    26    1
   144   120   119    2
   145   135   133   am
   146   189   188    2
   147   186   187    1
   148   187   188    1
   149   188   190   am
   150   195   194    1
   151   183   184    1
   152   183   185    1
   153   190   191    1
   154   191   194    1
   155    27    26    1
   156    27    28    1
   157   133   134    2
   158   133   132    1
   159   194   196    1
   160   125   124    1
   161   125   126    1
   162   132   129    1
   163   143   141   am
   164   142   141    2
   165   128   126   am
   166   128   129    1
   167   126   127    2
   168   141   140    1
   169   129   130    1
   170   130   131    2
   171   130   136   am
   172   168   170   ar
   173   168   166   ar
   174   170   169   ar
   175   136   137    1
   176   140   137    1
   177   166   165   ar
   178   137   138    1
   179   169   167   ar
   180   165   167   ar
   181   165   164    1
   182   164   161    1
   183   138   139    2
   184   138   144   am
   185   163   162    2
   186   144   145    1
   187   162   161    1
   188   161   160    1
   189   149   148    1
   190   159   158   ar
   191   159   157   ar
   192   158   156   ar
   193   160   152   am
   194   145   148    1
   195   145   146    1
   196   146   147    2
   197   157   155   ar
   198   156   155   ar
   199   152   153    2
   200   152   151    1
   201   155   154    1
   202   150   151    1
   203   151   154    1
