@<TRIPOS>MOLECULE
tmp/4akyC00.pdb
 147 143 0 0 0
SMALL
GASTEIGER

@<TRIPOS>ATOM
      1  N         10.1410  -53.1060   48.2930 N.3    18  ARG18      -0.1231
      2  CA         9.7900  -53.4100   49.6740 C.3    18  ARG18       0.1694
      3  C         10.9690  -53.9020   50.5180 C.2    18  ARG18       0.2592
      4  O         11.0600  -53.5760   51.6960 O.2    18  ARG18      -0.2718
      5  CB         8.6430  -54.4230   49.7280 C.3    18  ARG18       0.0321
      6  CG         8.1540  -54.7130   51.1390 C.3    18  ARG18       0.0489
      7  CD         6.6890  -55.1430   51.1580 C.3    18  ARG18       0.2205
      8  NE         6.1640  -55.2420   52.5200 N.pl3  18  ARG18      -0.0865
      9  CZ         4.8950  -55.5050   52.8170 C.cat  18  ARG18       0.5346
     10  NH1        4.0070  -55.6950   51.8490 N.pl3  18  ARG18       0.1354
     11  NH2        4.5110  -55.5770   54.0820 N.pl3  18  ARG18       0.1354
     12  N         11.8690  -54.6750   49.9180 N.am   19  GLU19      -0.1966
     13  CA        12.9280  -55.3370   50.6780 C.3    19  GLU19       0.1733
     14  C         14.2590  -54.5990   50.6570 C.2    19  GLU19       0.2617
     15  O         15.2290  -55.0490   51.2580 O.2    19  GLU19      -0.2715
     16  CB        13.1310  -56.7700   50.1760 C.3    19  GLU19       0.0429
     17  CG        11.9210  -57.6590   50.3580 C.3    19  GLU19       0.1163
     18  CD        11.5430  -57.8100   51.8130 C.2    19  GLU19       0.3649
     19  OE1       12.4210  -57.6050   52.6820 O.co2  19  GLU19      -0.2457
     20  OE2       10.3710  -58.1340   52.0890 O.co2  19  GLU19      -0.2457
     21  N         14.3080  -53.4690   49.9650 N.am   20  THR20      -0.1937
     22  CA        15.5570  -52.7360   49.8030 C.3    20  THR20       0.2028
     23  C         15.6710  -51.6030   50.8120 C.2    20  THR20       0.2642
     24  O         14.6950  -50.9060   51.0870 O.2    20  THR20      -0.2714
     25  CB        15.6640  -52.1360   48.3760 C.3    20  THR20       0.1808
     26  OG1       15.8190  -53.1940   47.4260 O.3    20  THR20      -0.2208
     27  CG2       16.8460  -51.1820   48.2670 C.3    20  THR20       0.0379
     28  N         16.8600  -51.4240   51.3740 N.am   21  TYR21      -0.1973
     29  CA        17.1390  -50.2000   52.1110 C.3    21  TYR21       0.1639
     30  C         18.2860  -49.4270   51.4870 C.2    21  TYR21       0.2290
     31  O         19.4440  -49.8380   51.5630 O.2    21  TYR21      -0.2864
     32  CB        17.4280  -50.4370   53.5980 C.3    21  TYR21       0.0560
     33  CG        17.6840  -49.1230   54.3040 C.ar   21  TYR21      -0.0198
     34  CD1       18.9550  -48.5690   54.3420 C.ar   21  TYR21      -0.0009
     35  CD2       16.6420  -48.4060   54.8760 C.ar   21  TYR21      -0.0009
     36  CE1       19.1890  -47.3520   54.9560 C.ar   21  TYR21       0.0417
     37  CE2       16.8650  -47.1890   55.4960 C.ar   21  TYR21       0.0417
     38  CZ        18.1430  -46.6660   55.5330 C.ar   21  TYR21       0.1957
     39  OH        18.3750  -45.4550   56.1460 O.3    21  TYR21      -0.2866
     40  N          4.0250  -52.1200   55.9480 N.3    45  TYR45      -0.1241
     41  CA         5.3370  -51.6850   55.4920 C.3    45  TYR45       0.1605
     42  C          5.7440  -50.3590   56.1330 C.2    45  TYR45       0.2264
     43  O          6.8800  -50.1970   56.5860 O.2    45  TYR45      -0.2867
     44  CB         5.3550  -51.5540   53.9650 C.3    45  TYR45       0.0534
     45  CG         6.5640  -50.8160   53.4470 C.ar   45  TYR45      -0.0201
     46  CD1        7.7720  -51.4690   53.2610 C.ar   45  TYR45      -0.0009
     47  CD2        6.5030  -49.4610   53.1650 C.ar   45  TYR45      -0.0009
     48  CE1        8.8860  -50.7950   52.8000 C.ar   45  TYR45       0.0417
     49  CE2        7.6090  -48.7780   52.7030 C.ar   45  TYR45       0.0417
     50  CZ         8.7990  -49.4480   52.5220 C.ar   45  TYR45       0.1957
     51  OH         9.9010  -48.7650   52.0600 O.3    45  TYR45      -0.2866
     52  N          7.5210  -49.8130   59.7170 N.3    48  GLN48      -0.1231
     53  CA         8.9710  -49.8910   59.8560 C.3    48  GLN48       0.1698
     54  C          9.6560  -48.5270   59.8450 C.2    48  GLN48       0.2592
     55  O         10.7970  -48.3940   60.2870 O.2    48  GLN48      -0.2718
     56  CB         9.5680  -50.7720   58.7600 C.3    48  GLN48       0.0381
     57  CG         9.3070  -52.2530   58.9380 C.3    48  GLN48       0.0905
     58  CD         9.8090  -53.0610   57.7620 C.2    48  GLN48       0.2608
     59  OE1        9.9050  -52.5500   56.6460 O.2    48  GLN48      -0.2717
     60  NE2       10.1350  -54.3270   58.0040 N.am   48  GLN48      -0.0878
     61  N          8.9630  -47.5140   59.3380 N.am   49  PHE49      -0.1976
     62  CA         9.5580  -46.1890   59.2090 C.3    49  PHE49       0.1639
     63  C          8.8450  -45.1590   60.0760 C.2    49  PHE49       0.2290
     64  O          8.9530  -43.9540   59.8460 O.2    49  PHE49      -0.2864
     65  CB         9.5650  -45.7520   57.7460 C.3    49  PHE49       0.0560
     66  CG        10.2620  -46.7200   56.8350 C.ar   49  PHE49      -0.0200
     67  CD1        9.5660  -47.7660   56.2490 C.ar   49  PHE49      -0.0042
     68  CD2       11.6160  -46.5930   56.5750 C.ar   49  PHE49      -0.0042
     69  CE1       10.2060  -48.6600   55.4170 C.ar   49  PHE49      -0.0003
     70  CE2       12.2620  -47.4840   55.7440 C.ar   49  PHE49      -0.0003
     71  CZ        11.5560  -48.5190   55.1620 C.ar   49  PHE49      -0.0000
     72  N         13.8700  -47.0820   60.5470 N.3    55  LEU55      -0.1245
     73  CA        15.1430  -47.4790   59.9510 C.3    55  LEU55       0.1561
     74  C         15.9370  -46.3150   59.3570 C.2    55  LEU55       0.2260
     75  O         17.1630  -46.2880   59.4490 O.2    55  LEU55      -0.2867
     76  CB        14.9440  -48.5830   58.9090 C.3    55  LEU55       0.0270
     77  CG        14.7320  -49.9930   59.4600 C.3    55  LEU55       0.0019
     78  CD1       14.8580  -51.0120   58.3400 C.3    55  LEU55       0.0001
     79  CD2       15.7400  -50.2830   60.5620 C.3    55  LEU55       0.0001
     80  N         19.4740  -46.1170   60.4650 N.3    59  TYR59      -0.1241
     81  CA        20.5300  -46.4680   59.5180 C.3    59  TYR59       0.1605
     82  C         21.1970  -45.2620   58.8600 C.2    59  TYR59       0.2264
     83  O         22.3960  -45.2830   58.5820 O.2    59  TYR59      -0.2867
     84  CB        19.9830  -47.4000   58.4290 C.3    59  TYR59       0.0534
     85  CG        19.6410  -48.7920   58.9080 C.ar   59  TYR59      -0.0201
     86  CD1       20.3210  -49.3710   59.9750 C.ar   59  TYR59      -0.0009
     87  CD2       18.6490  -49.5370   58.2820 C.ar   59  TYR59      -0.0009
     88  CE1       20.0130  -50.6490   60.4100 C.ar   59  TYR59       0.0417
     89  CE2       18.3360  -50.8150   58.7100 C.ar   59  TYR59       0.0417
     90  CZ        19.0180  -51.3650   59.7730 C.ar   59  TYR59       0.1957
     91  OH        18.7020  -52.6360   60.1930 O.3    59  TYR59      -0.2866
     92  N         20.9580  -52.1240   52.1070 N.3    65  THR65      -0.1218
     93  CA        20.5010  -53.4910   51.9050 C.3    65  THR65       0.1862
     94  C         20.0830  -53.7110   50.4590 C.2    65  THR65       0.2287
     95  O         19.1570  -53.0700   49.9610 O.2    65  THR65      -0.2866
     96  CB        19.3260  -53.8390   52.8270 C.3    65  THR65       0.1770
     97  OG1       19.7350  -53.6940   54.1910 O.3    65  THR65      -0.2211
     98  CG2       18.8690  -55.2710   52.5820 C.3    65  THR65       0.0375
     99  N         19.1830  -61.1700   50.1570 N.3    86  LYS86      -0.1245
    100  CA        19.4500  -59.8450   50.7040 C.3    86  LYS86       0.1561
    101  C         20.8870  -59.7630   51.1830 C.2    86  LYS86       0.2260
    102  O         21.4030  -60.7000   51.7860 O.2    86  LYS86      -0.2867
    103  CB        18.5100  -59.5320   51.8720 C.3    86  LYS86       0.0271
    104  CG        17.0420  -59.7240   51.5550 C.3    86  LYS86       0.0035
    105  CD        16.1660  -59.2210   52.6850 C.3    86  LYS86       0.0206
    106  CE        16.3670  -57.7330   52.9060 C.3    86  LYS86       0.1093
    107  NZ        15.2560  -57.1410   53.7030 N.3    86  LYS86      -0.1314
    108  N         21.4880  -63.1500   53.3010 N.3    96  THR96      -0.1218
    109  CA        20.4530  -64.0820   53.7230 C.3    96  THR96       0.1862
    110  C         19.5360  -64.4190   52.5480 C.2    96  THR96       0.2287
    111  O         19.5130  -63.7090   51.5420 O.2    96  THR96      -0.2866
    112  CB        19.6290  -63.5280   54.9010 C.3    96  THR96       0.1770
    113  OG1       19.1510  -62.2150   54.5800 O.3    96  THR96      -0.2211
    114  CG2       20.4850  -63.4570   56.1590 C.3    96  THR96       0.0375
    115  N         15.5830  -65.6690   51.1990 N.3    98  TRP98      -0.1241
    116  CA        14.1900  -65.5630   51.5960 C.3    98  TRP98       0.1605
    117  C         13.2170  -66.0000   50.5090 C.2    98  TRP98       0.2264
    118  O         13.5640  -66.0720   49.3310 O.2    98  TRP98      -0.2867
    119  CB        13.8830  -64.1240   52.0040 C.3    98  TRP98       0.0550
    120  CG        14.8330  -63.5790   53.0210 C.ar   98  TRP98       0.0003
    121  CD1       15.9570  -62.8440   52.7820 C.ar   98  TRP98       0.0946
    122  CD2       14.7410  -63.7250   54.4420 C.ar   98  TRP98       0.0152
    123  NE1       16.5710  -62.5200   53.9670 N.ar   98  TRP98      -0.2442
    124  CE2       15.8460  -63.0500   55.0020 C.ar   98  TRP98       0.0810
    125  CE3       13.8350  -64.3610   55.2950 C.ar   98  TRP98       0.0012
    126  CZ2       16.0670  -62.9930   56.3780 C.ar   98  TRP98       0.0191
    127  CZ3       14.0560  -64.3040   56.6610 C.ar   98  TRP98       0.0001
    128  CH2       15.1620  -63.6220   57.1880 C.ar   98  TRP98       0.0015
    129  N          1.4370  -60.2070   51.9230 N.3   129  TYR129     -0.1241
    130  CA         2.8820  -60.2730   51.7800 C.3   129  TYR129      0.1605
    131  C          3.5300  -60.9070   53.0040 C.2   129  TYR129      0.2264
    132  O          3.6610  -60.2690   54.0500 O.2   129  TYR129     -0.2867
    133  CB         3.4530  -58.8700   51.5580 C.3   129  TYR129      0.0534
    134  CG         4.9160  -58.8490   51.1630 C.ar  129  TYR129     -0.0201
    135  CD1        5.3110  -59.1340   49.8590 C.ar  129  TYR129     -0.0009
    136  CD2        5.9020  -58.5340   52.0890 C.ar  129  TYR129     -0.0009
    137  CE1        6.6490  -59.1140   49.4910 C.ar  129  TYR129      0.0417
    138  CE2        7.2420  -58.5090   51.7290 C.ar  129  TYR129      0.0417
    139  CZ         7.6080  -58.7980   50.4300 C.ar  129  TYR129      0.1957
    140  OH         8.9380  -58.7730   50.0790 O.3   129  TYR129     -0.2866
    141  N          7.0830  -63.0400   54.0920 N.3   131  VAL131     -0.1245
    142  CA         8.4020  -63.5170   53.7080 C.3   131  VAL131      0.1561
    143  C          8.9460  -64.5070   54.7330 C.2   131  VAL131      0.2260
    144  O          8.9840  -64.2220   55.9280 O.2   131  VAL131     -0.2867
    145  CB         9.3980  -62.3480   53.4950 C.3   131  VAL131      0.0252
    146  CG1        8.9670  -61.1240   54.2820 C.3   131  VAL131      0.0019
    147  CG2       10.8130  -62.7700   53.8680 C.3   131  VAL131      0.0019
@<TRIPOS>BOND
     1    26    25    1
     2    27    25    1
     3     1     2    1
     4    25    22    1
     5   118   117    2
     6   137   135   ar
     7   137   139   ar
     8     2     5    1
     9     2     3    1
    10     5     6    1
    11    22    21    1
    12    22    23    1
    13   135   134   ar
    14    12     3   am
    15    12    13    1
    16    95    94    2
    17    21    14   am
    18   140   139    1
    19    99   100    1
    20    16    17    1
    21    16    13    1
    22    17    18    1
    23   139   138   ar
    24    94    93    1
    25   117   116    1
    26     3     4    2
    27    14    13    1
    28    14    15    2
    29   100   101    1
    30   100   103    1
    31    23    24    2
    32    23    28   am
    33     6     7    1
    34     7     8    1
    35   134   133    1
    36   134   136   ar
    37   101   102    2
    38   115   116    1
    39    28    29    1
    40    30    31    2
    41    30    29    1
    42   111   110    2
    43   104   103    1
    44   104   105    1
    45   133   130    1
    46   116   119    1
    47   138   136   ar
    48   130   129    1
    49   130   131    1
    50    18    20   ar
    51    18    19   ar
    52    10     9    1
    53    93    92    1
    54    93    96    1
    55   119   120    1
    56    51    50    1
    57    29    32    1
    58     8     9    2
    59    50    49   ar
    60    50    48   ar
    61   110   109    1
    62    98    96    1
    63   105   106    1
    64    49    47   ar
    65   121   120   ar
    66   121   123   ar
    67    48    46   ar
    68     9    11    1
    69    96    97    1
    70   106   107    1
    71   131   132    2
    72   120   122   ar
    73    47    45   ar
    74    46    45   ar
    75   108   109    1
    76    45    44    1
    77   145   142    1
    78   145   147    1
    79   145   146    1
    80    32    33    1
    81   142   141    1
    82   142   143    1
    83   109   112    1
    84    44    41    1
    85   123   124   ar
    86    33    34   ar
    87    33    35   ar
    88    34    36   ar
    89   122   124   ar
    90   122   125   ar
    91   113   112    1
    92   143   144    2
    93    35    37   ar
    94   112   114    1
    95    36    38   ar
    96   124   126   ar
    97    71    69   ar
    98    71    70   ar
    99   125   127   ar
   100    69    67   ar
   101    41    40    1
   102    41    42    1
   103    37    38   ar
   104    38    39    1
   105    70    68   ar
   106    42    43    2
   107    67    66   ar
   108   126   128   ar
   109    68    66   ar
   110    59    58    2
   111   127   128   ar
   112    66    65    1
   113    65    62    1
   114    58    60   am
   115    58    57    1
   116    87    89   ar
   117    87    85   ar
   118    78    77    1
   119    84    85    1
   120    84    81    1
   121    83    82    2
   122    89    90   ar
   123    56    57    1
   124    56    53    1
   125    82    81    1
   126    85    86   ar
   127    76    77    1
   128    76    73    1
   129    62    61    1
   130    62    63    1
   131    61    54   am
   132    74    75    2
   133    74    73    1
   134    77    79    1
   135    81    80    1
   136    52    53    1
   137    90    91    1
   138    90    88   ar
   139    54    53    1
   140    54    55    2
   141    64    63    2
   142    73    72    1
   143    86    88   ar
