@<TRIPOS>MOLECULE
tmp/4al1A01.pdb
 73 67 0 0 0
SMALL
GASTEIGER

@<TRIPOS>ATOM
      1  N         13.4870    5.5260    2.7260 N.3    17  LYS17      -0.1245
      2  CA        13.9630    4.8940    1.4750 C.3    17  LYS17       0.1561
      3  C         12.8770    4.8860    0.3900 C.2    17  LYS17       0.2260
      4  O         13.1680    5.0770   -0.7980 O.2    17  LYS17      -0.2867
      5  CB        14.4560    3.4690    1.7580 C.3    17  LYS17       0.0271
      6  CG        15.1310    2.7630    0.5280 C.3    17  LYS17       0.0035
      7  CD        14.6880    1.2880    0.3870 C.3    17  LYS17       0.0206
      8  CE        13.2170    1.1840   -0.0690 C.3    17  LYS17       0.1093
      9  NZ        12.9800    1.6290   -1.4930 N.3    17  LYS17      -0.1314
     10  N         12.6370    8.3980   -0.9390 N.3    20  VAL20      -0.1231
     11  CA        13.7400    8.6060   -1.8900 C.3    20  VAL20       0.1692
     12  C         13.3710    8.0720   -3.2720 C.2    20  VAL20       0.2591
     13  O         13.6470    8.7190   -4.2880 O.2    20  VAL20      -0.2718
     14  CB        15.0750    8.0010   -1.3930 C.3    20  VAL20       0.0266
     15  CG1       16.1480    8.0180   -2.5300 C.3    20  VAL20       0.0020
     16  CG2       15.5800    8.7590   -0.1750 C.3    20  VAL20       0.0020
     17  N         12.7300    6.9090   -3.3180 N.am   21  VAL21      -0.1980
     18  CA        12.2040    6.3790   -4.5900 C.3    21  VAL21       0.1595
     19  C         11.1710    7.3420   -5.2180 C.2    21  VAL21       0.2287
     20  O         11.2030    7.5840   -6.4240 O.2    21  VAL21      -0.2864
     21  CB        11.6310    4.9540   -4.4220 C.3    21  VAL21       0.0276
     22  CG1       10.9490    4.4670   -5.7030 C.3    21  VAL21       0.0022
     23  CG2       12.7640    3.9950   -4.0210 C.3    21  VAL21       0.0022
     24  N         13.2310   10.2510   -6.6250 N.3    24  ILE24      -0.1245
     25  CA        13.9070    9.7910   -7.8570 C.3    24  ILE24       0.1561
     26  C         12.9330    9.7120   -9.0430 C.2    24  ILE24       0.2260
     27  O         13.2550   10.1660  -10.1470 O.2    24  ILE24      -0.2867
     28  CB        14.6220    8.4450   -7.6420 C.3    24  ILE24       0.0252
     29  CG1       15.8470    8.6490   -6.7320 C.3    24  ILE24       0.0019
     30  CG2       15.0180    7.7950   -9.0100 C.3    24  ILE24       0.0019
     31  CD1       16.4830    7.3290   -6.2110 C.3    24  ILE24       0.0001
     32  N         16.9590   -2.5160    0.9200 N.3   102  VAL102     -0.1245
     33  CA        17.8370   -1.4900    0.3510 C.3   102  VAL102      0.1561
     34  C         18.5720   -2.0440   -0.8830 C.2   102  VAL102      0.2260
     35  O         18.6480   -1.3830   -1.9250 O.2   102  VAL102     -0.2867
     36  CB        18.8470   -0.8990    1.3860 C.3   102  VAL102      0.0252
     37  CG1       19.8180    0.0390    0.6960 C.3   102  VAL102      0.0019
     38  CG2       18.1120   -0.1380    2.5130 C.3   102  VAL102      0.0019
     39  N         16.1950   -2.2400   -3.9560 N.3   105  THR105     -0.1203
     40  CA        16.0480   -0.9750   -4.6720 C.3   105  THR105      0.1994
     41  C         17.3190   -0.6190   -5.4840 C.2   105  THR105      0.2617
     42  O         17.2270   -0.1660   -6.6230 O.2   105  THR105     -0.2717
     43  CB        15.6910    0.1810   -3.7090 C.3   105  THR105      0.1784
     44  OG1       14.4660   -0.1380   -3.0210 O.3   105  THR105     -0.2211
     45  CG2       15.4820    1.4770   -4.4970 C.3   105  THR105      0.0376
     46  N         18.4950   -0.8210   -4.8990 N.am  106  VAL106     -0.1979
     47  CA        19.7530   -0.6410   -5.6670 C.3   106  VAL106      0.1595
     48  C         19.8090   -1.5520   -6.9050 C.2   106  VAL106      0.2287
     49  O         20.1460   -1.0980   -8.0140 O.2   106  VAL106     -0.2864
     50  CB        21.0100   -0.8220   -4.7590 C.3   106  VAL106      0.0276
     51  CG1       22.3130   -0.7570   -5.5870 C.3   106  VAL106      0.0022
     52  CG2       21.0350    0.2610   -3.6920 C.3   106  VAL106      0.0022
     53  N         16.7740   -0.2150   -9.5250 N.3   109  LEU109     -0.1231
     54  CA        17.0220    1.0580  -10.2020 C.3   109  LEU109      0.1693
     55  C         18.3630    1.0490  -10.9090 C.2   109  LEU109      0.2593
     56  O         18.5320    1.7520  -11.9030 O.2   109  LEU109     -0.2718
     57  CB        16.9390    2.2360   -9.2320 C.3   109  LEU109      0.0284
     58  CG        15.6050    2.3750   -8.4790 C.3   109  LEU109      0.0019
     59  CD1       15.6150    3.6140   -7.6110 C.3   109  LEU109      0.0001
     60  CD2       14.4130    2.3850   -9.4260 C.3   109  LEU109      0.0001
     61  N         19.3030    0.2540  -10.3950 N.am  110  GLY110     -0.1942
     62  CA        20.6400    0.1420  -10.9890 C.3   110  GLY110      0.2014
     63  C         20.7390   -0.8500  -12.1310 C.2   110  GLY110      0.2638
     64  O         21.8230   -1.0230  -12.7280 O.2   110  GLY110     -0.2714
     65  N         19.6130   -1.4960  -12.4360 N.am  111  LYS111     -0.1977
     66  CA        19.4960   -2.4550  -13.5410 C.3   111  LYS111      0.1596
     67  C         20.5350   -3.5740  -13.4620 C.2   111  LYS111      0.2287
     68  O         21.1390   -3.9450  -14.4760 O.2   111  LYS111     -0.2864
     69  CB        19.5450   -1.7410  -14.9020 C.3   111  LYS111      0.0298
     70  CG        18.5890   -0.5590  -15.0070 C.3   111  LYS111      0.0038
     71  CD        18.6800    0.1460  -16.3490 C.3   111  LYS111      0.0206
     72  CE        17.9330    1.4710  -16.3100 C.3   111  LYS111      0.1093
     73  NZ        18.0670    2.2080  -17.5990 N.3   111  LYS111     -0.1314
@<TRIPOS>BOND
     1    73    72    1
     2    71    72    1
     3    71    70    1
     4    70    69    1
     5    69    66    1
     6    68    67    2
     7    66    67    1
     8    66    65    1
     9    64    63    2
    10    65    63   am
    11    63    62    1
    12    56    55    2
    13    62    61    1
    14    55    61   am
    15    55    54    1
    16    54    53    1
    17    54    57    1
    18    27    26    2
    19    60    58    1
    20    57    58    1
    21    26    25    1
    22    30    28    1
    23    58    59    1
    24    49    48    2
    25    25    28    1
    26    25    24    1
    27    28    29    1
    28    48    47    1
    29    29    31    1
    30    42    41    2
    31    20    19    2
    32    22    21    1
    33    47    46    1
    34    47    50    1
    35    51    50    1
    36    41    46   am
    37    41    40    1
    38    19    18    1
    39    50    52    1
    40    40    39    1
    41    40    43    1
    42    18    21    1
    43    18    17    1
    44    45    43    1
    45    21    23    1
    46    13    12    2
    47    43    44    1
    48    17    12   am
    49    12    11    1
    50    15    14    1
    51    35    34    2
    52    11    14    1
    53    11    10    1
    54     9     8    1
    55    14    16    1
    56    34    33    1
    57     4     3    2
    58     8     7    1
    59    33    32    1
    60    33    36    1
    61     7     6    1
    62     3     2    1
    63     6     5    1
    64    37    36    1
    65    36    38    1
    66     2     5    1
    67     2     1    1
