@<TRIPOS>MOLECULE
tmp/4al4B01.pdb
 111 104 0 0 0
SMALL
GASTEIGER

@<TRIPOS>ATOM
      1  N         -2.6540   -2.6080   11.0520 N.3    27  GLY27      -0.1210
      2  CA        -1.8180   -2.1350    9.9650 C.3    27  GLY27       0.1956
      3  C         -0.4680   -1.7480   10.5570 C.2    27  GLY27       0.2612
      4  O         -0.2160   -1.9560   11.7640 O.2    27  GLY27      -0.2717
      5  N          0.4090   -1.2020    9.7250 N.am   28  ALA28      -0.1965
      6  CA         1.7450   -0.7810   10.1500 C.3    28  ALA28       0.1728
      7  C          1.7590    0.1380   11.4150 C.2    28  ALA28       0.2616
      8  O          2.5290   -0.1150   12.3730 O.2    28  ALA28      -0.2715
      9  CB         2.4900   -0.1550    8.9650 C.3    28  ALA28       0.0334
     10  N          0.8470    1.1600   11.4540 N.am   29  VAL29      -0.1977
     11  CA         0.7520    2.1000   12.5980 C.3    29  VAL29       0.1596
     12  C          0.2870    1.3520   13.8500 C.2    29  VAL29       0.2287
     13  O          0.9420    1.4370   14.8980 O.2    29  VAL29      -0.2864
     14  CB        -0.1090    3.3460   12.2750 C.3    29  VAL29       0.0276
     15  CG1       -0.3180    4.2280   13.4940 C.3    29  VAL29       0.0022
     16  CG2        0.5110    4.1530   11.1450 C.3    29  VAL29       0.0022
     17  N        -10.5760   -6.3180   11.0890 N.3    51  VAL51      -0.1245
     18  CA       -11.5870   -6.9610   10.2750 C.3    51  VAL51       0.1561
     19  C        -10.9750   -8.0740    9.3920 C.2    51  VAL51       0.2260
     20  O        -11.7190   -8.8850    8.8660 O.2    51  VAL51      -0.2867
     21  CB       -12.3990   -5.9080    9.4660 C.3    51  VAL51       0.0252
     22  CG1      -13.3300   -5.1360   10.4000 C.3    51  VAL51       0.0019
     23  CG2      -11.4780   -4.9480    8.6870 C.3    51  VAL51       0.0019
     24  N         -4.6960  -11.8280    9.0210 N.3    55  LYS55      -0.1245
     25  CA        -3.6880  -10.8290    9.3550 C.3    55  LYS55       0.1561
     26  C         -3.6520  -10.6060   10.8550 C.2    55  LYS55       0.2260
     27  O         -2.5700  -10.6170   11.4210 O.2    55  LYS55      -0.2867
     28  CB        -3.9610   -9.5070    8.6150 C.3    55  LYS55       0.0271
     29  CG        -3.1350   -8.3200    9.0440 C.3    55  LYS55       0.0035
     30  CD        -1.6600   -8.4470    8.6810 C.3    55  LYS55       0.0206
     31  CE        -0.9390   -7.1530    8.9670 C.3    55  LYS55       0.1093
     32  NZ         0.5170   -7.3080    8.7290 N.3    55  LYS55      -0.1314
     33  N         -8.7580    2.6140    9.6460 N.3    95  GLY95      -0.1210
     34  CA        -9.1920    3.5460    8.6170 C.3    95  GLY95       0.1956
     35  C         -8.2860    3.7360    7.4330 C.2    95  GLY95       0.2612
     36  O         -7.1700    3.2020    7.3630 O.2    95  GLY95      -0.2717
     37  N         -8.8260    4.5090    6.4600 N.am   96  ALA96      -0.1965
     38  CA        -8.1430    4.8790    5.2540 C.3    96  ALA96       0.1728
     39  C         -6.9590    5.8010    5.5890 C.2    96  ALA96       0.2616
     40  O         -6.9920    6.5880    6.5590 O.2    96  ALA96      -0.2715
     41  CB        -9.1290    5.5750    4.2990 C.3    96  ALA96       0.0334
     42  N         -5.9060    5.6800    4.7840 N.am   97  ARG97      -0.1977
     43  CA        -4.6890    6.4860    4.8760 C.3    97  ARG97       0.1597
     44  C         -4.6000    7.3110    3.5810 C.2    97  ARG97       0.2287
     45  O         -5.1110    6.8740    2.5290 O.2    97  ARG97      -0.2864
     46  CB        -3.4490    5.5810    4.9370 C.3    97  ARG97       0.0334
     47  CG        -3.2960    4.7690    6.2140 C.3    97  ARG97       0.0492
     48  CD        -2.1500    3.7570    6.1150 C.3    97  ARG97       0.2205
     49  NE        -1.8820    3.2930    4.7420 N.pl3  97  ARG97      -0.0865
     50  CZ        -0.8180    2.5790    4.3760 C.cat  97  ARG97       0.5346
     51  NH1        0.0910    2.2220    5.2730 N.pl3  97  ARG97       0.1354
     52  NH2       -0.6450    2.2390    3.1050 N.pl3  97  ARG97       0.1354
     53  N         -3.0800    8.9670    0.1680 N.3    99  GLN99      -0.1245
     54  CA        -2.1070    8.6990   -0.8780 C.3    99  GLN99       0.1566
     55  C         -1.1790    9.9470   -0.8940 C.2    99  GLN99       0.2260
     56  O         -1.4930   10.9580   -0.2530 O.2    99  GLN99      -0.2867
     57  CB        -2.8060    8.5980   -2.2290 C.3    99  GLN99       0.0367
     58  CG        -3.6100    7.3380   -2.4430 C.3    99  GLN99       0.0905
     59  CD        -4.3420    7.4520   -3.7560 C.2    99  GLN99       0.2608
     60  OE1       -5.5120    7.8440   -3.8000 O.2    99  GLN99      -0.2717
     61  NE2       -3.6500    7.1820   -4.8620 N.am   99  GLN99      -0.0878
     62  N        -14.8360    8.6670    4.8150 N.3   110  ARG110     -0.1245
     63  CA       -14.4940    7.2480    4.8950 C.3   110  ARG110      0.1563
     64  C        -14.2330    6.8090    6.3390 C.2   110  ARG110      0.2260
     65  O        -14.7140    5.7640    6.7550 O.2   110  ARG110     -0.2867
     66  CB       -13.2070    6.9670    4.0960 C.3   110  ARG110      0.0307
     67  CG       -13.4380    6.6670    2.6060 C.3   110  ARG110      0.0489
     68  CD       -12.1160    6.6590    1.8890 C.3   110  ARG110      0.2205
     69  NE       -11.5670    8.0050    1.6890 N.pl3 110  ARG110     -0.0865
     70  CZ       -10.3610    8.2490    1.1870 C.cat 110  ARG110      0.5346
     71  NH1       -9.5560    7.2470    0.8650 N.pl3 110  ARG110      0.1354
     72  NH2       -9.9480    9.4970    1.0140 N.pl3 110  ARG110      0.1354
     73  N        -17.3990    6.9770    8.6870 N.3   113  ASN113     -0.1225
     74  CA       -18.1950    5.7620    8.4780 C.3   113  ASN113      0.1785
     75  C        -17.6290    4.5640    9.3100 C.2   113  ASN113      0.2597
     76  O        -18.3830    3.8950   10.0030 O.2   113  ASN113     -0.2718
     77  CB       -18.3610    5.4570    6.9590 C.3   113  ASN113      0.1169
     78  CG       -19.3310    6.3790    6.2420 C.2   113  ASN113      0.2627
     79  OD1      -20.1470    7.0810    6.8640 O.2   113  ASN113     -0.2716
     80  ND2      -19.2940    6.3800    4.8930 N.am  113  ASN113     -0.0877
     81  N        -16.2960    4.3670    9.3070 N.am  114  ILE114     -0.1980
     82  CA       -15.6440    3.3050   10.0610 C.3   114  ILE114      0.1595
     83  C        -15.8500    3.5440   11.5510 C.2   114  ILE114      0.2287
     84  O        -16.2120    2.6030   12.2730 O.2   114  ILE114     -0.2864
     85  CB       -14.1410    3.1790    9.6570 C.3   114  ILE114      0.0276
     86  CG1      -14.0290    2.5800    8.2150 C.3   114  ILE114      0.0022
     87  CG2      -13.3320    2.3230   10.6500 C.3   114  ILE114      0.0022
     88  CD1      -12.6650    2.7980    7.5390 C.3   114  ILE114      0.0001
     89  N        -19.1340    2.5040   13.3500 N.3   117  PHE117     -0.1241
     90  CA       -19.1770    1.1270   13.7830 C.3   117  PHE117      0.1605
     91  C        -18.2040    0.8640   14.9770 C.2   117  PHE117      0.2264
     92  O        -18.5980    0.2090   15.9340 O.2   117  PHE117     -0.2867
     93  CB       -18.8510    0.1830   12.6190 C.3   117  PHE117      0.0534
     94  CG       -18.7610   -1.2590   13.0720 C.ar  117  PHE117     -0.0203
     95  CD1      -19.8990   -2.0670   13.1090 C.ar  117  PHE117     -0.0042
     96  CD2      -17.5470   -1.7990   13.5090 C.ar  117  PHE117     -0.0042
     97  CE1      -19.8210   -3.3930   13.5600 C.ar  117  PHE117     -0.0003
     98  CE2      -17.4670   -3.1310   13.9460 C.ar  117  PHE117     -0.0003
     99  CZ       -18.6060   -3.9110   13.9890 C.ar  117  PHE117     -0.0000
    100  N          4.6350    4.7000    3.5500 N.3   245  TYR245     -0.1241
    101  CA         3.8100    4.9760    4.7130 C.3   245  TYR245      0.1605
    102  C          4.7510    5.3610    5.8550 C.2   245  TYR245      0.2264
    103  O          5.9650    5.2900    5.7120 O.2   245  TYR245     -0.2867
    104  CB         3.0530    3.6840    5.1320 C.3   245  TYR245      0.0534
    105  CG         3.9810    2.5200    5.4900 C.ar  245  TYR245     -0.0201
    106  CD1        4.4720    2.3570    6.7920 C.ar  245  TYR245     -0.0009
    107  CD2        4.3600    1.5880    4.5280 C.ar  245  TYR245     -0.0009
    108  CE1        5.3230    1.2930    7.1170 C.ar  245  TYR245      0.0417
    109  CE2        5.2280    0.5470    4.8280 C.ar  245  TYR245      0.0417
    110  CZ         5.7100    0.3980    6.1240 C.ar  245  TYR245      0.1957
    111  OH         6.5680   -0.6440    6.3650 O.3   245  TYR245     -0.2866
@<TRIPOS>BOND
     1    61    59   am
     2    60    59    2
     3    59    58    1
     4    58    57    1
     5    57    54    1
     6    55    54    1
     7    55    56    2
     8    54    53    1
     9    71    70    1
    10    72    70    1
    11    70    69    2
    12    69    68    1
    13    68    67    1
    14    45    44    2
    15    67    66    1
    16    52    50    1
    17   100   101    1
    18    44    43    1
    19    66    63    1
    20    41    38    1
    21    50    49    2
    22    50    51    1
    23   107   109   ar
    24   107   105   ar
    25   101   104    1
    26   101   102    1
    27    49    48    1
    28    42    43    1
    29    42    39   am
    30    62    63    1
    31   109   110   ar
    32    43    46    1
    33    80    78   am
    34    63    64    1
    35    46    47    1
    36   104   105    1
    37    38    39    1
    38    38    37    1
    39   105   106   ar
    40    39    40    2
    41   103   102    2
    42    48    47    1
    43   110   111    1
    44   110   108   ar
    45    78    79    2
    46    78    77    1
    47    64    65    2
    48    37    35   am
    49   106   108   ar
    50    77    74    1
    51    36    35    2
    52    35    34    1
    53    88    86    1
    54    86    85    1
    55    74    73    1
    56    74    75    1
    57    28    29    1
    58    28    25    1
    59    34    33    1
    60    30    31    1
    61    30    29    1
    62    23    21    1
    63    32    31    1
    64    20    19    2
    65     9     6    1
    66    24    25    1
    67    81    75   am
    68    81    82    1
    69    75    76    2
    70    25    26    1
    71    19    18    1
    72    21    18    1
    73    21    22    1
    74    85    82    1
    75    85    87    1
    76     5     6    1
    77     5     3   am
    78     2     3    1
    79     2     1    1
    80    82    83    1
    81     6     7    1
    82    18    17    1
    83     3     4    2
    84    26    27    2
    85    16    14    1
    86     7    10   am
    87     7     8    2
    88    10    11    1
    89    83    84    2
    90    14    11    1
    91    14    15    1
    92    11    12    1
    93    93    94    1
    94    93    90    1
    95    94    95   ar
    96    94    96   ar
    97    95    97   ar
    98    89    90    1
    99    96    98   ar
   100    97    99   ar
   101    90    91    1
   102    12    13    2
   103    98    99   ar
   104    91    92    2
