@<TRIPOS>MOLECULE
tmp/4al9H00.pdb
 93 89 0 0 0
SMALL
GASTEIGER

@<TRIPOS>ATOM
      1  N        -10.7020   15.5370   18.9810 N.3    36  TYR36      -0.1227
      2  CA       -12.1130   15.6840   19.3060 C.3    36  TYR36       0.1736
      3  C        -12.3170   16.7210   20.4450 C.2    36  TYR36       0.2596
      4  O        -13.4370   16.9260   20.8740 O.2    36  TYR36      -0.2718
      5  CB       -12.6940   14.3230   19.6920 C.3    36  TYR36       0.0548
      6  CG       -12.0210   13.6310   20.8690 C.ar   36  TYR36      -0.0200
      7  CD1      -10.9000   12.7860   20.7050 C.ar   36  TYR36      -0.0009
      8  CD2      -12.4790   13.8450   22.1790 C.ar   36  TYR36      -0.0009
      9  CE1      -10.2890   12.2170   21.8160 C.ar   36  TYR36       0.0417
     10  CE2      -11.9240   13.2470   23.2530 C.ar   36  TYR36       0.0417
     11  CZ       -10.7880   12.4600   23.0930 C.ar   36  TYR36       0.1957
     12  OH       -10.2020   11.8910   24.1790 O.3    36  TYR36      -0.2866
     13  N        -11.2690   17.3950   20.9090 N.am   37  GLY37      -0.1943
     14  CA       -11.4480   18.4460   21.9200 C.3    37  GLY37       0.1998
     15  C        -10.1590   18.6650   22.7260 C.2    37  GLY37       0.2480
     16  O         -9.7220   19.7800   22.8650 O.2    37  GLY37      -0.2729
     17  N         -9.5350   17.5830   23.2280 N.am   38  PRO38      -0.2726
     18  CA        -8.3270   17.7740   24.0100 C.3    38  PRO38       0.1402
     19  C         -7.1760   18.3920   23.2130 C.2    38  PRO38       0.2269
     20  O         -7.2060   18.3870   21.9800 O.2    38  PRO38      -0.2865
     21  CB        -8.0090   16.3780   24.5280 C.3    38  PRO38       0.0296
     22  CG        -9.3630   15.6800   24.5420 C.3    38  PRO38       0.0237
     23  CD        -9.9960   16.2030   23.2750 C.3    38  PRO38       0.0939
     24  N        -10.7530    6.6610   25.5740 N.3    50  HIS50      -0.1227
     25  CA       -11.9200    7.4930   25.7750 C.3    50  HIS50       0.1737
     26  C        -13.2200    6.7020   25.7070 C.2    50  HIS50       0.2438
     27  O        -13.4270    5.9060   24.7920 O.2    50  HIS50      -0.2733
     28  CB       -11.8760    8.6270   24.7750 C.3    50  HIS50       0.0758
     29  CG       -12.8110    9.7600   25.1130 C.ar   50  HIS50       0.0818
     30  ND1      -12.5980   10.5710   26.1520 N.ar   50  HIS50      -0.2268
     31  CD2      -13.9470   10.2090   24.4790 C.ar   50  HIS50       0.1154
     32  CE1      -13.5970   11.4710   26.2300 C.ar   50  HIS50       0.1986
     33  NE2      -14.4140   11.2680   25.1830 N.ar   50  HIS50      -0.2212
     34  N        -14.1290    6.8870   26.6720 N.am   51  PRO51      -0.2729
     35  CA       -15.4030    6.1440   26.6180 C.3    51  PRO51       0.1401
     36  C        -16.2910    6.5500   25.4580 C.2    51  PRO51       0.2269
     37  O        -16.1380    7.6470   24.9470 O.2    51  PRO51      -0.2865
     38  CB       -16.0820    6.5180   27.9530 C.3    51  PRO51       0.0296
     39  CG       -15.0050    7.0190   28.8210 C.3    51  PRO51       0.0237
     40  CD       -14.0650    7.7530   27.8720 C.3    51  PRO51       0.0939
     41  N        -19.6270    7.8630   24.3140 N.3    53  GLN53      -0.1245
     42  CA       -20.6880    8.7120   24.8770 C.3    53  GLN53       0.1566
     43  C        -21.7920    9.0410   23.8830 C.2    53  GLN53       0.2260
     44  O        -22.4980   10.0690   24.0430 O.2    53  GLN53      -0.2867
     45  CB       -20.0730   10.0130   25.3810 C.3    53  GLN53       0.0367
     46  CG       -19.0670    9.7700   26.4900 C.3    53  GLN53       0.0905
     47  CD       -18.5110   11.0440   27.0800 C.2    53  GLN53       0.2608
     48  OE1      -18.4200   12.0900   26.4020 O.2    53  GLN53      -0.2717
     49  NE2      -18.1260   10.9680   28.3520 N.am   53  GLN53      -0.0878
     50  N        -21.2530    7.8920   20.2280 N.3    55  LEU55      -0.1245
     51  CA       -20.4630    8.0850   18.9780 C.3    55  LEU55       0.1561
     52  C        -21.2720    7.6870   17.7600 C.2    55  LEU55       0.2260
     53  O        -22.1400    6.8200   17.8300 O.2    55  LEU55      -0.2867
     54  CB       -19.1830    7.2530   19.0560 C.3    55  LEU55       0.0270
     55  CG       -18.1210    7.7050   20.0740 C.3    55  LEU55       0.0019
     56  CD1      -17.0680    6.6270   20.2770 C.3    55  LEU55       0.0001
     57  CD2      -17.5100    9.0400   19.6740 C.3    55  LEU55       0.0001
     58  N        -13.4790    6.9810   19.7670 N.3    62  CYS62      -0.1235
     59  CA       -13.6610    8.4230   19.5030 C.3    62  CYS62       0.1677
     60  C        -12.4120    8.9780   18.8120 C.2    62  CYS62       0.2270
     61  O        -11.2910    8.7230   19.2460 O.2    62  CYS62      -0.2867
     62  CB       -13.8960    9.1060   20.8330 C.3    62  CYS62       0.0956
     63  SG       -14.2380   10.8520   20.7120 S.3    62  CYS62      -0.0801
     64  N        -17.1690   11.1550   16.1710 N.3   100  ASP100     -0.1225
     65  CA       -17.4050   11.9350   17.4260 C.3   100  ASP100      0.1805
     66  C        -18.8830   11.8730   17.7330 C.2   100  ASP100      0.2597
     67  O        -19.6860   11.2690   16.9960 O.2   100  ASP100     -0.2718
     68  CB       -16.9260   13.3920   17.2440 C.3   100  ASP100      0.1424
     69  CG       -16.6010   14.1190   18.5970 C.2   100  ASP100      0.3668
     70  OD1      -16.8140   13.5220   19.6940 O.co2 100  ASP100     -0.2456
     71  OD2      -16.0650   15.2510   18.5280 O.co2 100  ASP100     -0.2456
     72  N        -19.2930   12.4790   18.8490 N.am  101  VAL101     -0.1980
     73  CA       -20.7100   12.5430   19.2170 C.3   101  VAL101      0.1595
     74  C        -21.3910   13.6720   18.4420 C.2   101  VAL101      0.2287
     75  O        -20.8750   14.7690   18.4160 O.2   101  VAL101     -0.2864
     76  CB       -20.8340   12.7250   20.7540 C.3   101  VAL101      0.0276
     77  CG1      -22.2780   12.9720   21.1740 C.3   101  VAL101      0.0022
     78  CG2      -20.2770   11.4780   21.4510 C.3   101  VAL101      0.0022
     79  N        -21.2200   17.6400   18.9240 N.3   104  THR104     -0.1218
     80  CA       -20.0060   17.9970   19.6810 C.3   104  THR104      0.1862
     81  C        -18.7950   18.1470   18.7900 C.2   104  THR104      0.2287
     82  O        -17.6550   18.1410   19.2780 O.2   104  THR104     -0.2866
     83  CB       -19.6660   16.9800   20.7870 C.3   104  THR104      0.1770
     84  OG1      -19.1050   15.8160   20.1570 O.3   104  THR104     -0.2211
     85  CG2      -20.8710   16.6110   21.5610 C.3   104  THR104      0.0375
     86  N        -15.5640   21.7390   18.7150 N.3   107  ASN107     -0.1240
     87  CA       -14.2410   21.9160   19.2910 C.3   107  ASN107      0.1653
     88  C        -13.2030   20.9500   18.7130 C.2   107  ASN107      0.2266
     89  O        -12.1380   20.7770   19.3090 O.2   107  ASN107     -0.2867
     90  CB       -14.2600   21.7390   20.8310 C.3   107  ASN107      0.1155
     91  CG       -14.6440   20.3250   21.2560 C.2   107  ASN107      0.2627
     92  OD1      -15.1630   19.5350   20.4330 O.2   107  ASN107     -0.2716
     93  ND2      -14.4450   19.9930   22.5720 N.am  107  ASN107     -0.0877
@<TRIPOS>BOND
     1    64    65    1
     2    67    66    2
     3    68    65    1
     4    68    69    1
     5    65    66    1
     6    66    72   am
     7    52    53    2
     8    52    51    1
     9    75    74    2
    10    74    73    1
    11    71    69   ar
    12    69    70   ar
    13    88    87    1
    14    88    89    2
    15    86    87    1
    16    81    82    2
    17    81    80    1
    18    60    61    2
    19    60    59    1
    20    72    73    1
    21    79    80    1
    22    51    54    1
    23    51    50    1
    24     1     2    1
    25    54    55    1
    26    73    76    1
    27    87    90    1
    28     2     5    1
    29     2     3    1
    30    59    58    1
    31    59    62    1
    32    57    55    1
    33    80    83    1
    34     5     6    1
    35    55    56    1
    36    84    83    1
    37    92    91    2
    38     3     4    2
    39     3    13   am
    40     7     6   ar
    41     7     9   ar
    42    63    62    1
    43    76    77    1
    44    76    78    1
    45    83    85    1
    46    90    91    1
    47     6     8   ar
    48    13    14    1
    49    91    93   am
    50     9    11   ar
    51    14    15    1
    52    20    19    2
    53     8    10   ar
    54    15    16    2
    55    15    17   am
    56    11    10   ar
    57    11    12    1
    58    19    18    1
    59    17    23    1
    60    17    18    1
    61    23    22    1
    62    43    44    2
    63    43    42    1
    64    18    21    1
    65    41    42    1
    66    31    29   ar
    67    31    33   ar
    68    21    22    1
    69    28    29    1
    70    28    25    1
    71    27    26    2
    72    42    45    1
    73    37    36    2
    74    29    30   ar
    75    33    32   ar
    76    45    46    1
    77    36    35    1
    78    24    25    1
    79    26    25    1
    80    26    34   am
    81    30    32   ar
    82    48    47    2
    83    46    47    1
    84    35    34    1
    85    35    38    1
    86    34    40    1
    87    47    49   am
    88    40    39    1
    89    38    39    1
