@<TRIPOS>MOLECULE
tmp/4albB00.pdb
 183 173 0 0 0
SMALL
GASTEIGER

@<TRIPOS>ATOM
      1  N         41.9770   -2.3940    0.3950 N.3    10  TYR10      -0.1241
      2  CA        40.6320   -2.9320    0.4700 C.3    10  TYR10       0.1605
      3  C         40.6190   -4.2370    1.2160 C.2    10  TYR10       0.2264
      4  O         41.6790   -4.8390    1.4570 O.2    10  TYR10      -0.2867
      5  CB        40.0580   -3.1330   -0.9230 C.3    10  TYR10       0.0534
      6  CG        41.0140   -3.7620   -1.8970 C.ar   10  TYR10      -0.0201
      7  CD1       42.0330   -3.0130   -2.4830 C.ar   10  TYR10      -0.0009
      8  CD2       40.8930   -5.0890   -2.2570 C.ar   10  TYR10      -0.0009
      9  CE1       42.9070   -3.5740   -3.3970 C.ar   10  TYR10       0.0417
     10  CE2       41.7560   -5.6560   -3.1740 C.ar   10  TYR10       0.0417
     11  CZ        42.7610   -4.8950   -3.7400 C.ar   10  TYR10       0.1957
     12  OH        43.6340   -5.4600   -4.6400 O.3    10  TYR10      -0.2866
     13  N         38.6280   -7.9520    1.3530 N.3    12  TYR12      -0.1241
     14  CA        37.7180   -8.9100    0.7300 C.3    12  TYR12       0.1605
     15  C         36.7930   -9.4760    1.7680 C.2    12  TYR12       0.2264
     16  O         37.1590   -9.5820    2.9310 O.2    12  TYR12      -0.2867
     17  CB        38.4810  -10.0640    0.0680 C.3    12  TYR12       0.0534
     18  CG        39.2700   -9.6790   -1.1760 C.ar   12  TYR12      -0.0201
     19  CD1       38.6620   -9.6570   -2.4390 C.ar   12  TYR12      -0.0009
     20  CD2       40.6060   -9.3750   -1.0980 C.ar   12  TYR12      -0.0009
     21  CE1       39.3810   -9.3250   -3.5730 C.ar   12  TYR12       0.0417
     22  CE2       41.3270   -9.0450   -2.2200 C.ar   12  TYR12       0.0417
     23  CZ        40.7200   -9.0150   -3.4560 C.ar   12  TYR12       0.1957
     24  OH        41.4760   -8.6730   -4.5660 O.3    12  TYR12      -0.2866
     25  N         40.3950  -11.0010    3.7280 N.3    16  TRP16      -0.1241
     26  CA        41.7430  -10.7240    3.2690 C.3    16  TRP16       0.1605
     27  C         41.8690   -9.2510    3.0640 C.2    16  TRP16       0.2264
     28  O         40.9010   -8.6040    2.6590 O.2    16  TRP16      -0.2867
     29  CB        42.0210  -11.4570    1.9760 C.3    16  TRP16       0.0550
     30  CG        42.0590  -12.9560    2.1140 C.ar   16  TRP16       0.0003
     31  CD1       41.5800  -13.7360    3.1620 C.ar   16  TRP16       0.0946
     32  CD2       42.5930  -13.9180    1.1510 C.ar   16  TRP16       0.0152
     33  NE1       41.7890  -15.0670    2.9230 N.ar   16  TRP16      -0.2442
     34  CE2       42.3910  -15.2410    1.7380 C.ar   16  TRP16       0.0810
     35  CE3       43.2100  -13.8210   -0.0850 C.ar   16  TRP16       0.0012
     36  CZ2       42.7820  -16.3950    1.0920 C.ar   16  TRP16       0.0191
     37  CZ3       43.6030  -14.9990   -0.7230 C.ar   16  TRP16       0.0001
     38  CH2       43.3910  -16.2540   -0.1480 C.ar   16  TRP16       0.0015
     39  N         44.2330   -6.3880    1.1780 N.3    18  ALA18      -0.1231
     40  CA        45.2480   -6.2010    0.1540 C.3    18  ALA18       0.1694
     41  C         45.3610   -4.7320   -0.2280 C.2    18  ALA18       0.2592
     42  O         44.4560   -3.9420    0.0020 O.2    18  ALA18      -0.2718
     43  CB        44.9160   -7.0240   -1.0680 C.3    18  ALA18       0.0304
     44  N         46.4970   -4.3940   -0.8160 N.am   19  GLU19      -0.1966
     45  CA        46.8670   -3.0310   -1.1080 C.3    19  GLU19       0.1733
     46  C         47.4580   -3.0450   -2.5050 C.2    19  GLU19       0.2616
     47  O         48.3740   -3.8350   -2.7720 O.2    19  GLU19      -0.2715
     48  CB        47.9110   -2.5600   -0.0720 C.3    19  GLU19       0.0429
     49  CG        48.4670   -1.1470   -0.2630 C.3    19  GLU19       0.1163
     50  CD        49.7680   -0.8780    0.5070 C.2    19  GLU19       0.3649
     51  OE1       50.1200   -1.6630    1.4290 O.co2  19  GLU19      -0.2457
     52  OE2       50.4560    0.1280    0.1640 O.co2  19  GLU19      -0.2457
     53  N         46.9620   -2.1770   -3.3880 N.am   20  ILE20      -0.1977
     54  CA        47.4730   -2.0760   -4.7680 C.3    20  ILE20       0.1596
     55  C         47.8760   -0.6550   -5.1050 C.2    20  ILE20       0.2287
     56  O         47.2760    0.2740   -4.5780 O.2    20  ILE20      -0.2864
     57  CB        46.3920   -2.5250   -5.7720 C.3    20  ILE20       0.0276
     58  CG1       46.9930   -2.7620   -7.1700 C.3    20  ILE20       0.0022
     59  CG2       45.2520   -1.5200   -5.7950 C.3    20  ILE20       0.0022
     60  CD1       46.2590   -3.8410   -7.9460 C.3    20  ILE20       0.0001
     61  N         52.0250   -4.2900   -5.4670 N.3    30  TYR30      -0.1241
     62  CA        51.0140   -4.6380   -4.4470 C.3    30  TYR30       0.1605
     63  C         51.5640   -5.3140   -3.1910 C.2    30  TYR30       0.2264
     64  O         52.6630   -5.8650   -3.2040 O.2    30  TYR30      -0.2867
     65  CB        49.8520   -5.4640   -5.0490 C.3    30  TYR30       0.0534
     66  CG        50.1450   -6.9200   -5.4020 C.ar   30  TYR30      -0.0201
     67  CD1       50.0540   -7.9150   -4.4490 C.ar   30  TYR30      -0.0009
     68  CD2       50.4560   -7.2950   -6.7080 C.ar   30  TYR30      -0.0009
     69  CE1       50.3090   -9.2370   -4.7690 C.ar   30  TYR30       0.0417
     70  CE2       50.6940   -8.6230   -7.0450 C.ar   30  TYR30       0.0417
     71  CZ        50.6190   -9.5960   -6.0750 C.ar   30  TYR30       0.1957
     72  OH        50.8510  -10.9180   -6.4060 O.3    30  TYR30      -0.2866
     73  N         50.1560   -7.7620    0.2480 N.3    32  ILE32      -0.1245
     74  CA        49.0960   -8.5040    0.9030 C.3    32  ILE32       0.1561
     75  C         49.3140   -8.4510    2.4040 C.2    32  ILE32       0.2260
     76  O         50.3990   -8.7780    2.8890 O.2    32  ILE32      -0.2867
     77  CB        49.0590   -9.9720    0.4710 C.3    32  ILE32       0.0252
     78  CG1       48.7240  -10.0790   -1.0230 C.3    32  ILE32       0.0019
     79  CG2       48.0960  -10.7530    1.3700 C.3    32  ILE32       0.0019
     80  CD1       47.7480   -9.0350   -1.5130 C.3    32  ILE32       0.0001
     81  N         47.9180  -15.6650    2.4330 N.3    37  VAL37      -0.1245
     82  CA        49.2230  -15.3260    1.8760 C.3    37  VAL37       0.1561
     83  C         49.7170  -13.9430    2.3200 C.2    37  VAL37       0.2260
     84  O         50.5700  -13.3300    1.6600 O.2    37  VAL37      -0.2867
     85  CB        49.1990  -15.5080    0.3390 C.3    37  VAL37       0.0252
     86  CG1       48.7520  -14.2480   -0.3570 C.3    37  VAL37       0.0019
     87  CG2       50.5480  -15.9210   -0.1910 C.3    37  VAL37       0.0019
     88  N         53.1180  -11.4120    1.4120 N.3    40  ARG40      -0.1245
     89  CA        53.5510  -11.3150    0.0160 C.3    40  ARG40       0.1563
     90  C         53.4860   -9.8750   -0.5000 C.2    40  ARG40       0.2260
     91  O         52.5160   -9.1690   -0.2500 O.2    40  ARG40      -0.2867
     92  CB        52.6780  -12.2120   -0.8640 C.3    40  ARG40       0.0307
     93  CG        53.0830  -12.2600   -2.3330 C.3    40  ARG40       0.0489
     94  CD        52.3830  -13.4160   -3.0260 C.3    40  ARG40       0.2205
     95  NE        52.2450  -13.2050   -4.4640 N.pl3  40  ARG40      -0.0865
     96  CZ        53.1230  -13.5970   -5.3840 C.cat  40  ARG40       0.5346
     97  NH1       54.2730  -14.1580   -5.0180 N.pl3  40  ARG40       0.1354
     98  NH2       52.8640  -13.3760   -6.6740 N.pl3  40  ARG40       0.1354
     99  N         46.0420   -9.8330  -14.6720 N.3    61  TRP61      -0.1241
    100  CA        47.3810  -10.3170  -15.0340 C.3    61  TRP61       0.1605
    101  C         47.6720  -11.7350  -14.5820 C.2    61  TRP61       0.2264
    102  O         46.8690  -12.3710  -13.8910 O.2    61  TRP61      -0.2867
    103  CB        48.4400   -9.3990  -14.4580 C.3    61  TRP61       0.0550
    104  CG        48.5500   -9.5660  -12.9790 C.ar   61  TRP61       0.0003
    105  CD1       49.4380  -10.3680  -12.2830 C.ar   61  TRP61       0.0946
    106  CD2       47.7290   -8.9330  -11.9640 C.ar   61  TRP61       0.0152
    107  NE1       49.2350  -10.2610  -10.9390 N.ar   61  TRP61      -0.2442
    108  CE2       48.2230   -9.4180  -10.6840 C.ar   61  TRP61       0.0810
    109  CE3       46.6760   -8.0290  -11.9820 C.ar   61  TRP61       0.0012
    110  CZ2       47.6750   -9.0090   -9.4890 C.ar   61  TRP61       0.0191
    111  CZ3       46.1270   -7.6160  -10.7650 C.ar   61  TRP61       0.0001
    112  CH2       46.6210   -8.0910   -9.5530 C.ar   61  TRP61       0.0015
    113  N         50.9320  -14.3530  -12.9650 N.3    63  GLU63      -0.1245
    114  CA        52.0370  -14.2530  -12.0580 C.3    63  GLU63       0.1567
    115  C         53.0700  -15.2830  -12.4180 C.2    63  GLU63       0.2260
    116  O         52.7650  -16.3080  -13.0180 O.2    63  GLU63      -0.2867
    117  CB        51.5330  -14.5280  -10.6380 C.3    63  GLU63       0.0388
    118  CG        50.3850  -13.6220  -10.1870 C.3    63  GLU63       0.1160
    119  CD        50.5110  -13.1280   -8.7520 C.2    63  GLU63       0.3649
    120  OE1       50.5770  -13.9850   -7.8380 O.co2  63  GLU63      -0.2457
    121  OE2       50.5410  -11.9000   -8.5220 O.co2  63  GLU63      -0.2457
    122  N         54.0060  -17.2780  -10.4370 N.3    65  THR65      -0.1218
    123  CA        53.5970  -18.4200   -9.6410 C.3    65  THR65       0.1862
    124  C         52.6400  -19.2740  -10.4390 C.2    65  THR65       0.2287
    125  O         52.5420  -20.4590  -10.1800 O.2    65  THR65      -0.2866
    126  CB        52.9690  -18.0190   -8.2740 C.3    65  THR65       0.1770
    127  OG1       51.8190  -17.1700   -8.4680 O.3    65  THR65      -0.2211
    128  CG2       54.0280  -17.3150   -7.3550 C.3    65  THR65       0.0375
    129  N         49.5520  -18.0690  -10.9140 N.3    67  THR67      -0.1218
    130  CA        48.3110  -17.4770  -10.4500 C.3    67  THR67       0.1862
    131  C         47.8490  -16.5040  -11.5200 C.2    67  THR67       0.2287
    132  O         48.6580  -15.8190  -12.1090 O.2    67  THR67      -0.2866
    133  CB        48.4990  -16.7740   -9.0850 C.3    67  THR67       0.1770
    134  OG1       48.8480  -17.7470   -8.1050 O.3    67  THR67      -0.2211
    135  CG2       47.2440  -16.1220   -8.6240 C.3    67  THR67       0.0375
    136  N         44.9270  -13.4640  -12.1660 N.3    69  VAL69      -0.1245
    137  CA        44.1580  -12.4980  -11.3960 C.3    69  VAL69       0.1561
    138  C         43.3490  -11.5970  -12.3340 C.2    69  VAL69       0.2260
    139  O         43.8770  -11.1380  -13.3410 O.2    69  VAL69      -0.2867
    140  CB        45.1210  -11.5700  -10.6000 C.3    69  VAL69       0.0252
    141  CG1       44.3510  -10.7380   -9.5840 C.3    69  VAL69       0.0019
    142  CG2       46.2490  -12.3460   -9.9350 C.3    69  VAL69       0.0019
    143  N         40.9730   -8.2020  -11.5180 N.3    71  LEU71      -0.1245
    144  CA        40.3380   -7.2960  -10.5930 C.3    71  LEU71       0.1561
    145  C         39.4610   -6.2920  -11.3150 C.2    71  LEU71       0.2260
    146  O         39.8390   -5.7880  -12.3680 O.2    71  LEU71      -0.2867
    147  CB        41.3950   -6.5560   -9.7790 C.3    71  LEU71       0.0270
    148  CG        42.3550   -7.4850   -9.0490 C.3    71  LEU71       0.0019
    149  CD1       43.1980   -6.6010   -8.1540 C.3    71  LEU71       0.0001
    150  CD2       41.6410   -8.5630   -8.2400 C.3    71  LEU71       0.0001
    151  N         40.7260  -14.6800   -8.1640 N.3    84  ILE84      -0.1245
    152  CA        42.0940  -15.1550   -8.1780 C.3    84  ILE84       0.1561
    153  C         42.0990  -16.6550   -8.4670 C.2    84  ILE84       0.2260
    154  O         41.4180  -17.4180   -7.7810 O.2    84  ILE84      -0.2867
    155  CB        42.7880  -14.8790   -6.8460 C.3    84  ILE84       0.0252
    156  CG1       42.6580  -13.3900   -6.5100 C.3    84  ILE84       0.0019
    157  CG2       44.2500  -15.2870   -6.9120 C.3    84  ILE84       0.0019
    158  CD1       42.9980  -12.9740   -5.0860 C.3    84  ILE84       0.0001
    159  N         44.2520  -19.7060   -8.2750 N.3    86  PHE86      -0.1241
    160  CA        45.4530  -20.2290   -7.6350 C.3    86  PHE86       0.1605
    161  C         45.7190  -21.6250   -8.1050 C.2    86  PHE86       0.2264
    162  O         44.8440  -22.4640   -8.0730 O.2    86  PHE86      -0.2867
    163  CB        45.2610  -20.3310   -6.1350 C.3    86  PHE86       0.0534
    164  CG        45.2770  -19.0170   -5.4230 C.ar   86  PHE86      -0.0203
    165  CD1       46.4790  -18.3870   -5.1780 C.ar   86  PHE86      -0.0042
    166  CD2       44.1000  -18.4300   -4.9690 C.ar   86  PHE86      -0.0042
    167  CE1       46.5130  -17.1910   -4.5130 C.ar   86  PHE86      -0.0003
    168  CE2       44.1280  -17.2230   -4.3090 C.ar   86  PHE86      -0.0003
    169  CZ        45.3360  -16.6030   -4.0750 C.ar   86  PHE86      -0.0000
    170  N         49.8070  -23.4500   -4.6450 N.3    90  VAL90      -0.1245
    171  CA        49.8110  -22.2100   -3.8640 C.3    90  VAL90       0.1561
    172  C         48.8220  -22.3110   -2.6830 C.2    90  VAL90       0.2260
    173  O         49.0610  -21.7260   -1.6270 O.2    90  VAL90      -0.2867
    174  CB        49.5370  -20.9310   -4.7220 C.3    90  VAL90       0.0252
    175  CG1       49.2490  -19.7220   -3.8340 C.3    90  VAL90       0.0019
    176  CG2       50.7210  -20.6550   -5.6540 C.3    90  VAL90       0.0019
    177  N         55.1020  -18.5170   -1.6630 N.3    97  THR97      -0.1218
    178  CA        54.8310  -17.2570   -2.3330 C.3    97  THR97       0.1862
    179  C         55.0390  -16.0560   -1.4280 C.2    97  THR97       0.2287
    180  O         55.0340  -14.9250   -1.9210 O.2    97  THR97      -0.2866
    181  CB        53.4010  -17.1860   -2.9350 C.3    97  THR97       0.1770
    182  OG1       52.4550  -16.8430   -1.9230 O.3    97  THR97      -0.2211
    183  CG2       52.9990  -18.5330   -3.6030 C.3    97  THR97       0.0375
@<TRIPOS>BOND
     1   100    99    1
     2   100   101    1
     3   100   103    1
     4   101   102    2
     5   103   104    1
     6   139   138    2
     7   116   115    2
     8   104   105   ar
     9   104   106   ar
    10   113   114    1
    11   115   114    1
    12   146   145    2
    13   138   137    1
    14   105   107   ar
    15   136   137    1
    16   132   131    2
    17   114   117    1
    18   109   106   ar
    19   109   111   ar
    20   106   108   ar
    21   131   130    1
    22   143   144    1
    23   137   140    1
    24   145   144    1
    25   107   108   ar
    26   129   130    1
    27   111   112   ar
    28   108   110   ar
    29   117   118    1
    30   140   142    1
    31   140   141    1
    32   144   147    1
    33   130   133    1
    34   124   125    2
    35   124   123    1
    36   122   123    1
    37   118   119    1
    38   147   148    1
    39   123   126    1
    40   112   110   ar
    41   133   135    1
    42   133   134    1
    43   148   150    1
    44   148   149    1
    45   119   121   ar
    46   119   120   ar
    47   127   126    1
    48   153   152    1
    49   153   154    2
    50   159   160    1
    51   126   128    1
    52   152   151    1
    53   152   155    1
    54   161   162    2
    55   161   160    1
    56    60    58    1
    57   160   163    1
    58    58    57    1
    59    70    68   ar
    60    70    71   ar
    61   157   155    1
    62   155   156    1
    63    68    66   ar
    64    98    96    1
    65   156   158    1
    66    72    71    1
    67   163   164    1
    68    71    69   ar
    69    59    57    1
    70    57    54    1
    71   176   174    1
    72    61    62    1
    73   164   165   ar
    74   164   166   ar
    75    66    65    1
    76    66    67   ar
    77    96    97    1
    78    96    95    2
    79   165   167   ar
    80    55    54    1
    81    55    56    2
    82    65    62    1
    83   166   168   ar
    84    69    67   ar
    85    54    53    1
    86   174   171    1
    87   174   175    1
    88   170   171    1
    89    12    11    1
    90    24    23    1
    91   167   169   ar
    92    95    94    1
    93    62    63    1
    94   168   169   ar
    95   171   172    1
    96    11     9   ar
    97    11    10   ar
    98   183   181    1
    99    21    23   ar
   100    21    19   ar
   101    23    22   ar
   102     9     7   ar
   103    53    46   am
   104    64    63    2
   105    10     8   ar
   106    94    93    1
   107   181   178    1
   108   181   182    1
   109    47    46    2
   110   172   173    2
   111    46    45    1
   112     7     6   ar
   113    19    18   ar
   114    93    92    1
   115   178   177    1
   116   178   179    1
   117     8     6   ar
   118    22    20   ar
   119   180   179    2
   120     6     5    1
   121    80    78    1
   122    18    20   ar
   123    18    17    1
   124    45    44    1
   125    45    48    1
   126    43    40    1
   127    78    77    1
   128     5     2    1
   129    92    89    1
   130    44    41   am
   131    37    38   ar
   132    37    35   ar
   133    90    91    2
   134    90    89    1
   135    86    85    1
   136    49    48    1
   137    49    50    1
   138    41    42    2
   139    41    40    1
   140    87    85    1
   141    38    36   ar
   142    35    32   ar
   143    89    88    1
   144    17    14    1
   145    40    39    1
   146    52    50   ar
   147    73    74    1
   148    85    82    1
   149     1     2    1
   150     2     3    1
   151    77    74    1
   152    77    79    1
   153    50    51   ar
   154    14    13    1
   155    14    15    1
   156    74    75    1
   157    36    34   ar
   158    32    34   ar
   159    32    30   ar
   160     3     4    2
   161    84    83    2
   162    34    33   ar
   163    15    16    2
   164    82    83    1
   165    82    81    1
   166    29    30    1
   167    29    26    1
   168    30    31   ar
   169    75    76    2
   170    28    27    2
   171    33    31   ar
   172    27    26    1
   173    26    25    1
