@<TRIPOS>MOLECULE
tmp/4algA00.pdb
 149 146 0 0 0
SMALL
GASTEIGER

@<TRIPOS>ATOM
      1  N         16.5610   -7.3000   11.9840 N.3    26  TRP26      -0.1228
      2  CA        15.2930   -6.5780   11.7600 C.3    26  TRP26       0.1722
      3  C         14.7720   -5.7260   12.9090 C.2    26  TRP26       0.2437
      4  O         14.2720   -4.6200   12.6750 O.2    26  TRP26      -0.2733
      5  CB        14.2140   -7.5290   11.2150 C.3    26  TRP26       0.0563
      6  CG        13.8230   -8.6420   12.1500 C.ar   26  TRP26       0.0003
      7  CD1       14.4290   -9.8860   12.3060 C.ar   26  TRP26       0.0946
      8  CD2       12.7160   -8.6360   13.1040 C.ar   26  TRP26       0.0152
      9  NE1       13.7900  -10.6220   13.2710 N.ar   26  TRP26      -0.2442
     10  CE2       12.7480   -9.9320   13.7810 C.ar   26  TRP26       0.0810
     11  CE3       11.7320   -7.7190   13.4490 C.ar   26  TRP26       0.0012
     12  CZ2       11.8290  -10.2690   14.7600 C.ar   26  TRP26       0.0191
     13  CZ3       10.8110   -8.0690   14.4410 C.ar   26  TRP26       0.0001
     14  CH2       10.8580   -9.3190   15.0760 C.ar   26  TRP26       0.0015
     15  N         14.9130   -6.1780   14.1700 N.am   27  PRO27      -0.2718
     16  CA        14.4630   -5.2750   15.2370 C.3    27  PRO27       0.1535
     17  C         15.3330   -4.0330   15.4550 C.2    27  PRO27       0.2598
     18  O         14.8920   -3.1200   16.1390 O.2    27  PRO27      -0.2715
     19  CB        14.5200   -6.1460   16.4960 C.3    27  PRO27       0.0310
     20  CG        14.7780   -7.5360   16.0390 C.3    27  PRO27       0.0237
     21  CD        15.4840   -7.4130   14.7280 C.3    27  PRO27       0.0939
     22  N         16.5460   -4.0320   14.9000 N.am   28  PHE28      -0.1974
     23  CA        17.5080   -2.9350   15.0300 C.3    28  PHE28       0.1639
     24  C         17.5080   -1.9700   13.8300 C.2    28  PHE28       0.2290
     25  O         18.2530   -0.9870   13.8250 O.2    28  PHE28      -0.2864
     26  CB        18.9150   -3.5160   15.2210 C.3    28  PHE28       0.0560
     27  CG        19.0450   -4.4170   16.4250 C.ar   28  PHE28      -0.0200
     28  CD1       18.7310   -5.7670   16.3400 C.ar   28  PHE28      -0.0042
     29  CD2       19.4710   -3.9080   17.6430 C.ar   28  PHE28      -0.0042
     30  CE1       18.8380   -6.5980   17.4410 C.ar   28  PHE28      -0.0003
     31  CE2       19.5890   -4.7320   18.7490 C.ar   28  PHE28      -0.0003
     32  CZ        19.2590   -6.0800   18.6480 C.ar   28  PHE28      -0.0000
     33  N         15.2540    0.1110   12.7700 N.3    30  GLN30      -0.1231
     34  CA        14.4850    1.3390   12.9770 C.3    30  GLN30       0.1683
     35  C         14.4250    1.6550   14.4680 C.2    30  GLN30       0.2434
     36  O         14.6380    0.7700   15.2820 O.2    30  GLN30      -0.2733
     37  CB        13.0650    1.1980   12.4070 C.3    30  GLN30       0.0380
     38  CG        12.2240    0.0830   13.0120 C.3    30  GLN30       0.0905
     39  CD        12.7040   -1.3030   12.6130 C.2    30  GLN30       0.2608
     40  OE1       12.8810   -1.5970   11.4270 O.2    30  GLN30      -0.2717
     41  NE2       12.9340   -2.1580   13.6040 N.am   30  GLN30      -0.0878
     42  N         14.1230    2.9170   14.8290 N.am   31  PRO31      -0.2718
     43  CA        14.0870    3.2730   16.2510 C.3    31  PRO31       0.1535
     44  C         13.0930    2.4530   17.0660 C.2    31  PRO31       0.2598
     45  O         12.0670    2.0010   16.5440 O.2    31  PRO31      -0.2715
     46  CB        13.6710    4.7470   16.2400 C.3    31  PRO31       0.0310
     47  CG        14.0810    5.2480   14.8990 C.3    31  PRO31       0.0237
     48  CD        13.8680    4.0870   13.9720 C.3    31  PRO31       0.0939
     49  N         13.4150    2.2620   18.3430 N.am   32  VAL32      -0.1978
     50  CA        12.5380    1.5490   19.2600 C.3    32  VAL32       0.1596
     51  C         11.3140    2.4190   19.5380 C.2    32  VAL32       0.2287
     52  O         11.4390    3.5280   20.0600 O.2    32  VAL32      -0.2864
     53  CB        13.2630    1.2120   20.5880 C.3    32  VAL32       0.0276
     54  CG1       12.3030    0.6140   21.6080 C.3    32  VAL32       0.0022
     55  CG2       14.4290    0.2640   20.3240 C.3    32  VAL32       0.0022
     56  N          5.4450   -1.1190   21.5160 N.3    37  LEU37      -0.1245
     57  CA         6.0250   -2.3560   22.0400 C.3    37  LEU37       0.1561
     58  C          5.7040   -2.5760   23.5260 C.2    37  LEU37       0.2260
     59  O          6.0530   -3.6150   24.0860 O.2    37  LEU37      -0.2867
     60  CB         7.5470   -2.3800   21.8070 C.3    37  LEU37       0.0270
     61  CG         7.9740   -2.4700   20.3360 C.3    37  LEU37       0.0019
     62  CD1        9.4630   -2.1820   20.1460 C.3    37  LEU37       0.0001
     63  CD2        7.6140   -3.8320   19.7560 C.3    37  LEU37       0.0001
     64  N          6.7630   -0.8860   26.2770 N.3    39  LEU39      -0.1245
     65  CA         8.0090   -0.8620   27.0360 C.3    39  LEU39       0.1561
     66  C          7.9980    0.3210   28.0110 C.2    39  LEU39       0.2260
     67  O          8.2360    1.4710   27.6110 O.2    39  LEU39      -0.2867
     68  CB         9.2080   -0.7600   26.0840 C.3    39  LEU39       0.0270
     69  CG         9.3290   -1.8080   24.9760 C.3    39  LEU39       0.0019
     70  CD1       10.5520   -1.5280   24.1110 C.3    39  LEU39       0.0001
     71  CD2        9.3810   -3.2130   25.5460 C.3    39  LEU39       0.0001
     72  N         10.9700    3.5180   28.7930 N.3    42  TYR42      -0.1241
     73  CA        12.0810    3.3990   27.8490 C.3    42  TYR42       0.1605
     74  C         12.8700    4.7130   27.7280 C.2    42  TYR42       0.2264
     75  O         14.0960    4.7010   27.7210 O.2    42  TYR42      -0.2867
     76  CB        11.6010    2.9360   26.4670 C.3    42  TYR42       0.0534
     77  CG        12.7610    2.7070   25.5270 C.ar   42  TYR42      -0.0201
     78  CD1       13.4990    1.5300   25.5790 C.ar   42  TYR42      -0.0009
     79  CD2       13.1620    3.6890   24.6260 C.ar   42  TYR42      -0.0009
     80  CE1       14.5870    1.3240   24.7530 C.ar   42  TYR42       0.0417
     81  CE2       14.2500    3.4900   23.7910 C.ar   42  TYR42       0.0417
     82  CZ        14.9580    2.3010   23.8570 C.ar   42  TYR42       0.1957
     83  OH        16.0380    2.0800   23.0530 O.3    42  TYR42      -0.2866
     84  N         23.8720    2.0040   20.3390 N.3    77  MET77      -0.1245
     85  CA        22.7720    1.1110   19.9950 C.3    77  MET77       0.1570
     86  C         22.8190   -0.1890   20.8020 C.2    77  MET77       0.2261
     87  O         21.8070   -0.6090   21.3640 O.2    77  MET77      -0.2867
     88  CB        22.7900    0.7850   18.5000 C.3    77  MET77       0.0387
     89  CG        21.6760   -0.1600   18.0640 C.3    77  MET77       0.0595
     90  SD        21.7770   -0.6460   16.3350 S.3    77  MET77      -0.1393
     91  CE        23.2720   -1.6290   16.3880 C.3    77  MET77       0.0692
     92  N         22.5170    0.5390   24.7840 N.3    80  ASN80      -0.1225
     93  CA        21.0990    0.8420   25.0540 C.3    80  ASN80       0.1785
     94  C         20.2810   -0.4460   25.2440 C.2    80  ASN80       0.2597
     95  O         19.4530   -0.5410   26.1450 O.2    80  ASN80      -0.2718
     96  CB        20.4560    1.6340   23.8980 C.3    80  ASN80       0.1169
     97  CG        20.8720    3.1020   23.8530 C.2    80  ASN80       0.2627
     98  OD1       21.5400    3.6120   24.7440 O.2    80  ASN80      -0.2716
     99  ND2       20.4860    3.7820   22.7810 N.am   80  ASN80      -0.0877
    100  N         20.4920   -1.4080   24.3530 N.am   81  CYS81      -0.1970
    101  CA        19.7680   -2.6730   24.3790 C.3    81  CYS81       0.1712
    102  C         20.0930   -3.4310   25.6610 C.2    81  CYS81       0.2296
    103  O         19.1910   -3.9320   26.3330 O.2    81  CYS81      -0.2864
    104  CB        20.1180   -3.5050   23.1430 C.3    81  CYS81       0.0983
    105  SG        19.2220   -5.0510   22.9700 S.3    81  CYS81      -0.0798
    106  N         18.4520   -1.4590   28.8060 N.3    84  TYR84      -0.1227
    107  CA        16.9990   -1.5080   28.9780 C.3    84  TYR84       0.1736
    108  C         16.4790   -2.9190   29.3020 C.2    84  TYR84       0.2595
    109  O         15.5730   -3.0830   30.1320 O.2    84  TYR84      -0.2718
    110  CB        16.2550   -0.9400   27.7540 C.3    84  TYR84       0.0548
    111  CG        14.7820   -0.8960   28.0420 C.ar   84  TYR84      -0.0200
    112  CD1       14.2420    0.1150   28.8360 C.ar   84  TYR84      -0.0009
    113  CD2       13.9430   -1.9260   27.6310 C.ar   84  TYR84      -0.0009
    114  CE1       12.8970    0.1200   29.1680 C.ar   84  TYR84       0.0417
    115  CE2       12.5960   -1.9290   27.9620 C.ar   84  TYR84       0.0417
    116  CZ        12.0790   -0.8980   28.7250 C.ar   84  TYR84       0.1957
    117  OH        10.7470   -0.8870   29.0570 O.3    84  TYR84      -0.2866
    118  N         17.0780   -3.9240   28.6740 N.am   85  ASN85      -0.1974
    119  CA        16.5780   -5.2910   28.7180 C.3    85  ASN85       0.1688
    120  C         17.3420   -6.1440   29.7280 C.2    85  ASN85       0.2292
    121  O         18.3010   -5.6710   30.3350 O.2    85  ASN85      -0.2864
    122  CB        16.6430   -5.8960   27.3090 C.3    85  ASN85       0.1181
    123  CG        15.8390   -5.0920   26.2950 C.2    85  ASN85       0.2629
    124  OD1       14.6060   -5.1620   26.2660 O.2    85  ASN85      -0.2716
    125  ND2       16.5320   -4.3240   25.4620 N.am   85  ASN85      -0.0877
    126  N         15.8480  -12.4420   24.6790 N.3    90  ASP90      -0.1225
    127  CA        16.0900  -12.7070   23.2540 C.3    90  ASP90       0.1805
    128  C         16.7600  -11.5310   22.5520 C.2    90  ASP90       0.2597
    129  O         17.7440  -11.7160   21.8400 O.2    90  ASP90      -0.2718
    130  CB        14.7800  -13.0380   22.5190 C.3    90  ASP90       0.1424
    131  CG        14.2770  -14.4580   22.7950 C.2    90  ASP90       0.3668
    132  OD1       15.0710  -15.3000   23.2590 O.co2  90  ASP90      -0.2456
    133  OD2       13.0800  -14.7270   22.5340 O.co2  90  ASP90      -0.2456
    134  N         16.2390  -10.3230   22.7530 N.am   91  ILE91      -0.1980
    135  CA        16.8030   -9.1480   22.0820 C.3    91  ILE91       0.1595
    136  C         18.2770   -8.8880   22.4590 C.2    91  ILE91       0.2287
    137  O         19.0700   -8.4620   21.6150 O.2    91  ILE91      -0.2864
    138  CB        15.9340   -7.8870   22.3030 C.3    91  ILE91       0.0276
    139  CG1       16.2670   -6.8260   21.2600 C.3    91  ILE91       0.0022
    140  CG2       16.0870   -7.3560   23.7260 C.3    91  ILE91       0.0022
    141  CD1       15.8600   -7.2080   19.8380 C.3    91  ILE91       0.0001
    142  N         20.4390  -11.4720   20.6760 N.3    94  MET94      -0.1245
    143  CA        20.4980  -11.0470   19.2810 C.3    94  MET94       0.1570
    144  C         21.5010   -9.9000   19.1120 C.2    94  MET94       0.2261
    145  O         22.3450   -9.9400   18.2170 O.2    94  MET94      -0.2867
    146  CB        19.1040  -10.6330   18.7800 C.3    94  MET94       0.0387
    147  CG        18.1100  -11.7870   18.6710 C.3    94  MET94       0.0595
    148  SD        16.4020  -11.2930   18.3620 S.3    94  MET94      -0.1393
    149  CE        16.4210  -11.0990   16.5770 C.3    94  MET94       0.0692
@<TRIPOS>BOND
     1     5     2    1
     2     5     6    1
     3    40    39    2
     4     2     1    1
     5     2     3    1
     6     6     7   ar
     7     6     8   ar
     8     7     9   ar
     9    37    34    1
    10    37    38    1
    11    39    38    1
    12    39    41   am
    13     4     3    2
    14    33    34    1
    15     3    15   am
    16    34    35    1
    17     8    11   ar
    18     8    10   ar
    19     9    10   ar
    20    11    13   ar
    21    10    12   ar
    22    25    24    2
    23    24    23    1
    24    48    42    1
    25    48    47    1
    26    15    21    1
    27    15    16    1
    28    13    14   ar
    29    35    42   am
    30    35    36    2
    31    21    20    1
    32    12    14   ar
    33    42    43    1
    34    47    46    1
    35    22    23    1
    36    22    17   am
    37    23    26    1
    38    26    27    1
    39    16    17    1
    40    16    19    1
    41    17    18    2
    42    20    19    1
    43    46    43    1
    44    43    44    1
    45    90    91    1
    46    90    89    1
    47    28    27   ar
    48    28    30   ar
    49    27    29   ar
    50    45    44    2
    51   149   148    1
    52    44    49   am
    53    30    32   ar
    54    29    31   ar
    55    89    88    1
    56   145   144    2
    57    49    50    1
    58   148   147    1
    59    88    85    1
    60    32    31   ar
    61   147   146    1
    62   146   143    1
    63   144   143    1
    64    50    51    1
    65    50    53    1
    66   143   142    1
    67    51    52    2
    68    63    61    1
    69   141   139    1
    70    85    84    1
    71    85    86    1
    72    62    61    1
    73    55    53    1
    74    61    60    1
    75    53    54    1
    76    86    87    2
    77   139   138    1
    78    56    57    1
    79   137   136    2
    80    60    57    1
    81   129   128    2
    82    57    58    1
    83   135   138    1
    84   135   136    1
    85   135   134    1
    86   138   140    1
    87   130   131    1
    88   130   127    1
    89   133   131   ar
    90   128   134   am
    91   128   127    1
    92    99    97   am
    93   131   132   ar
    94   105   104    1
    95    83    82    1
    96   104   101    1
    97   127   126    1
    98    58    59    2
    99    81    82   ar
   100    81    79   ar
   101    97    96    1
   102    97    98    2
   103    82    80   ar
   104    96    93    1
   105    70    69    1
   106   100   101    1
   107   100    94   am
   108   101   102    1
   109    79    77   ar
   110    80    78   ar
   111    92    93    1
   112    69    71    1
   113    69    68    1
   114    93    94    1
   115    94    95    2
   116   125   123   am
   117    77    78   ar
   118    77    76    1
   119   102   103    2
   120    68    65    1
   121   124   123    2
   122    64    65    1
   123   123   122    1
   124    76    73    1
   125    65    66    1
   126   122   119    1
   127    67    66    2
   128   113   115   ar
   129   113   111   ar
   130    75    74    2
   131    74    73    1
   132   110   111    1
   133   110   107    1
   134    73    72    1
   135   115   116   ar
   136   111   112   ar
   137   118   119    1
   138   118   108   am
   139   119   120    1
   140   116   117    1
   141   116   114   ar
   142   106   107    1
   143   112   114   ar
   144   107   108    1
   145   108   109    2
   146   120   121    2
