@<TRIPOS>MOLECULE
tmp/4alhA00.pdb
 118 115 0 0 0
SMALL
GASTEIGER

@<TRIPOS>ATOM
      1  N         12.4690   14.6730   -4.6580 N.3    23  TRP23      -0.1228
      2  CA        11.8530   14.0540   -5.8390 C.3    23  TRP23       0.1722
      3  C         12.6630   12.9590   -6.5350 C.2    23  TRP23       0.2437
      4  O         12.0910   11.9450   -6.9160 O.2    23  TRP23      -0.2733
      5  CB        11.3220   15.1060   -6.8270 C.3    23  TRP23       0.0563
      6  CG        12.3860   15.9140   -7.5180 C.ar   23  TRP23       0.0003
      7  CD1       12.9030   17.1500   -7.1350 C.ar   23  TRP23       0.0946
      8  CD2       13.1030   15.5590   -8.7440 C.ar   23  TRP23       0.0152
      9  NE1       13.8700   17.5660   -8.0180 N.ar   23  TRP23      -0.2442
     10  CE2       14.0350   16.6540   -9.0050 C.ar   23  TRP23       0.0810
     11  CE3       13.0770   14.4740   -9.6100 C.ar   23  TRP23       0.0012
     12  CZ2       14.8890   16.6440  -10.0950 C.ar   23  TRP23       0.0191
     13  CZ3       13.9380   14.4800  -10.7110 C.ar   23  TRP23       0.0001
     14  CH2       14.8190   15.5410  -10.9480 C.ar   23  TRP23       0.0015
     15  N         14.0000   13.1120   -6.6800 N.am   24  PRO24      -0.2718
     16  CA        14.7370   12.0080   -7.3310 C.3    24  PRO24       0.1535
     17  C         14.7800   10.7030   -6.5230 C.2    24  PRO24       0.2598
     18  O         15.0650    9.6430   -7.0830 O.2    24  PRO24      -0.2715
     19  CB        16.1640   12.5700   -7.4710 C.3    24  PRO24       0.0310
     20  CG        16.0120   14.0550   -7.3220 C.3    24  PRO24       0.0237
     21  CD        14.9140   14.2000   -6.3100 C.3    24  PRO24       0.0939
     22  N         14.5130   10.7960   -5.2230 N.am   25  PHE25      -0.1974
     23  CA        14.6000    9.6720   -4.3120 C.3    25  PHE25       0.1639
     24  C         13.2640    9.0250   -3.9750 C.2    25  PHE25       0.2290
     25  O         13.2520    8.0190   -3.2900 O.2    25  PHE25      -0.2864
     26  CB        15.2610   10.1280   -3.0150 C.3    25  PHE25       0.0560
     27  CG        16.6110   10.7310   -3.2210 C.ar   25  PHE25      -0.0200
     28  CD1       17.7470    9.9320   -3.2450 C.ar   25  PHE25      -0.0042
     29  CD2       16.7480   12.0960   -3.4270 C.ar   25  PHE25      -0.0042
     30  CE1       19.0000   10.4960   -3.4440 C.ar   25  PHE25      -0.0003
     31  CE2       17.9910   12.6580   -3.6220 C.ar   25  PHE25      -0.0003
     32  CZ        19.1190   11.8580   -3.6430 C.ar   25  PHE25      -0.0000
     33  N         11.1980    7.3360   -5.7760 N.3    27  GLN27      -0.1245
     34  CA        10.9320    6.0930   -6.5020 C.3    27  GLN27       0.1566
     35  C         12.2720    5.5060   -6.9380 C.2    27  GLN27       0.2260
     36  O         13.2650    6.2280   -6.9780 O.2    27  GLN27      -0.2867
     37  CB        10.0120    6.3440   -7.7120 C.3    27  GLN27       0.0367
     38  CG        10.5620    7.3100   -8.7580 C.3    27  GLN27       0.0905
     39  CD        10.6060    8.7500   -8.2680 C.2    27  GLN27       0.2608
     40  OE1        9.5840    9.3030   -7.8580 O.2    27  GLN27      -0.2717
     41  NE2       11.7980    9.3630   -8.2980 N.am   27  GLN27      -0.0878
     42  N         15.5490    4.3560   -8.8660 N.3    29  VAL29      -0.1245
     43  CA        16.2790    4.8380  -10.0280 C.3    29  VAL29       0.1561
     44  C         15.8620    4.0360  -11.2630 C.2    29  VAL29       0.2260
     45  O         15.9380    2.8080  -11.2710 O.2    29  VAL29      -0.2867
     46  CB        17.7990    4.6870   -9.8170 C.3    29  VAL29       0.0252
     47  CG1       18.5610    5.0840  -11.0760 C.3    29  VAL29       0.0019
     48  CG2       18.2430    5.5090   -8.6040 C.3    29  VAL29       0.0019
     49  N         16.8550    7.2250  -17.3420 N.3    34  LEU34      -0.1245
     50  CA        17.9840    8.1340  -17.1360 C.3    34  LEU34       0.1561
     51  C         19.1800    7.8620  -18.0580 C.2    34  LEU34       0.2260
     52  O         20.1670    8.6050  -18.0240 O.2    34  LEU34      -0.2867
     53  CB        18.4370    8.0870  -15.6740 C.3    34  LEU34       0.0270
     54  CG        17.3750    8.4370  -14.6260 C.3    34  LEU34       0.0019
     55  CD1       17.9150    8.2350  -13.2200 C.3    34  LEU34       0.0001
     56  CD2       16.8770    9.8600  -14.7980 C.3    34  LEU34       0.0001
     57  N         21.3150    5.1620  -18.0460 N.3    36  LEU36      -0.1245
     58  CA        22.4310    4.7290  -17.2050 C.3    36  LEU36       0.1561
     59  C         22.5940    3.2030  -17.2740 C.2    36  LEU36       0.2260
     60  O         22.2590    2.5030  -16.3230 O.2    36  LEU36      -0.2867
     61  CB        22.1850    5.1620  -15.7540 C.3    36  LEU36       0.0270
     62  CG        21.8320    6.6270  -15.4840 C.3    36  LEU36       0.0019
     63  CD1       21.4160    6.7950  -14.0270 C.3    36  LEU36       0.0001
     64  CD2       22.9690    7.5750  -15.8360 C.3    36  LEU36       0.0001
     65  N         24.1460    1.2830  -14.2600 N.3    39  TYR39      -0.1241
     66  CA        23.6730    1.5600  -12.9020 C.3    39  TYR39       0.1605
     67  C         23.5640    0.2790  -12.0690 C.2    39  TYR39       0.2264
     68  O         24.1070    0.1990  -10.9690 O.2    39  TYR39      -0.2867
     69  CB        22.3370    2.3280  -12.8840 C.3    39  TYR39       0.0534
     70  CG        21.9450    2.6820  -11.4700 C.ar   39  TYR39      -0.0201
     71  CD1       22.5260    3.7740  -10.8170 C.ar   39  TYR39      -0.0009
     72  CD2       21.0400    1.8940  -10.7550 C.ar   39  TYR39      -0.0009
     73  CE1       22.1990    4.0850   -9.5040 C.ar   39  TYR39       0.0417
     74  CE2       20.7120    2.1970   -9.4390 C.ar   39  TYR39       0.0417
     75  CZ        21.2940    3.2930   -8.8190 C.ar   39  TYR39       0.1957
     76  OH        20.9720    3.5930   -7.5100 O.3    39  TYR39      -0.2866
     77  N         24.3710    4.4910   -2.0550 N.3    77  ASN77      -0.1225
     78  CA        24.2750    4.1610   -3.4790 C.3    77  ASN77       0.1785
     79  C         24.5130    5.3960   -4.3250 C.2    77  ASN77       0.2597
     80  O         25.2270    5.3370   -5.3170 O.2    77  ASN77      -0.2718
     81  CB        22.8970    3.6050   -3.8410 C.3    77  ASN77       0.1169
     82  CG        22.6650    2.2040   -3.3270 C.2    77  ASN77       0.2627
     83  OD1       23.5940    1.5160   -2.8730 O.2    77  ASN77      -0.2716
     84  ND2       21.4070    1.7590   -3.4060 N.am   77  ASN77      -0.0877
     85  N         23.9040    6.5140   -3.9210 N.am   78  CYS78      -0.1970
     86  CA        24.0090    7.7650   -4.6540 C.3    78  CYS78       0.1712
     87  C         25.4510    8.2950   -4.6830 C.2    78  CYS78       0.2296
     88  O         25.9430    8.7440   -5.7380 O.2    78  CYS78      -0.2864
     89  CB        23.0340    8.7980   -4.0530 C.3    78  CYS78       0.0983
     90  SG        23.0480   10.4070   -4.8600 S.3    78  CYS78      -0.0798
     91  N         27.7000    5.7170   -6.9360 N.3    81  TYR81      -0.1227
     92  CA        27.4480    5.7080   -8.3690 C.3    81  TYR81       0.1736
     93  C         27.8240    7.0090   -9.0750 C.2    81  TYR81       0.2595
     94  O         28.3930    6.9850  -10.1620 O.2    81  TYR81      -0.2718
     95  CB        25.9810    5.3820   -8.7010 C.3    81  TYR81       0.0548
     96  CG        25.7840    5.3920  -10.1960 C.ar   81  TYR81      -0.0200
     97  CD1       26.2930    4.3650  -10.9790 C.ar   81  TYR81      -0.0009
     98  CD2       25.1830    6.4710  -10.8390 C.ar   81  TYR81      -0.0009
     99  CE1       26.1750    4.3870  -12.3540 C.ar   81  TYR81       0.0417
    100  CE2       25.0500    6.4950  -12.2210 C.ar   81  TYR81       0.0417
    101  CZ        25.5520    5.4470  -12.9730 C.ar   81  TYR81       0.1957
    102  OH        25.4460    5.4530  -14.3460 O.3    81  TYR81      -0.2866
    103  N         27.4700    8.1440   -8.4800 N.am   82  ASN82      -0.1974
    104  CA        27.5670    9.4250   -9.1790 C.3    82  ASN82       0.1688
    105  C         28.9550   10.0580   -9.0770 C.2    82  ASN82       0.2292
    106  O         29.7800    9.6470   -8.2630 O.2    82  ASN82      -0.2864
    107  CB        26.4730   10.3700   -8.6670 C.3    82  ASN82       0.1181
    108  CG        25.0860    9.8740   -9.0150 C.2    82  ASN82       0.2629
    109  OD1       24.6650    9.9680  -10.1680 O.2    82  ASN82      -0.2716
    110  ND2       24.3790    9.3050   -8.0320 N.am   82  ASN82      -0.0877
    111  N         23.1110   15.7640   -7.7620 N.3    88  ILE88      -0.1245
    112  CA        22.3760   14.7520   -6.9860 C.3    88  ILE88       0.1561
    113  C         23.1070   14.4290   -5.6760 C.2    88  ILE88       0.2260
    114  O         22.4740   14.1150   -4.6630 O.2    88  ILE88      -0.2867
    115  CB        22.1050   13.4670   -7.8170 C.3    88  ILE88       0.0252
    116  CG1       21.0970   12.5330   -7.1200 C.3    88  ILE88       0.0019
    117  CG2       23.4050   12.7160   -8.1230 C.3    88  ILE88       0.0019
    118  CD1       19.6740   13.0730   -7.0770 C.3    88  ILE88       0.0001
@<TRIPOS>BOND
     1    51    52    2
     2    51    50    1
     3    57    58    1
     4    49    50    1
     5    59    58    1
     6    59    60    2
     7    58    61    1
     8    50    53    1
     9    64    62    1
    10    61    62    1
    11    53    54    1
    12    62    63    1
    13    56    54    1
    14    54    55    1
    15   102   101    1
    16    65    66    1
    17   101    99   ar
    18   101   100   ar
    19    66    69    1
    20    66    67    1
    21    69    70    1
    22    99    97   ar
    23   100    98   ar
    24    67    68    2
    25    70    71   ar
    26    70    72   ar
    27    45    44    2
    28    44    43    1
    29    47    46    1
    30    97    96   ar
    31    14    13   ar
    32    14    12   ar
    33    98    96   ar
    34    71    73   ar
    35    72    74   ar
    36    13    11   ar
    37    96    95    1
    38   109   108    2
    39    94    93    2
    40    12    10   ar
    41    43    46    1
    42    43    42    1
    43    46    48    1
    44    11     8   ar
    45    73    75   ar
    46    74    75   ar
    47   104   105    1
    48   104   107    1
    49   104   103    1
    50   105   106    2
    51    93   103   am
    52    93    92    1
    53   108   107    1
    54   108   110   am
    55    10     8   ar
    56    10     9   ar
    57    75    76    1
    58    38    39    1
    59    38    37    1
    60     8     6   ar
    61    95    92    1
    62    92    91    1
    63    41    39   am
    64    39    40    2
    65   117   115    1
    66     9     7   ar
    67   115   116    1
    68   115   112    1
    69   111   112    1
    70    37    34    1
    71     6     7   ar
    72     6     5    1
    73    19    16    1
    74    19    20    1
    75    16    15    1
    76    16    17    1
    77    20    21    1
    78   116   118    1
    79    18    17    2
    80   112   113    1
    81    36    35    2
    82    35    34    1
    83     4     3    2
    84     5     2    1
    85    15     3   am
    86    15    21    1
    87     3     2    1
    88    17    22   am
    89    34    33    1
    90     2     1    1
    91    88    87    2
    92   113   114    2
    93    80    79    2
    94    22    23    1
    95    90    89    1
    96    87    86    1
    97    86    89    1
    98    86    85    1
    99    79    85   am
   100    79    78    1
   101    23    24    1
   102    23    26    1
   103    24    25    2
   104    81    78    1
   105    81    82    1
   106    32    31   ar
   107    32    30   ar
   108    31    29   ar
   109    78    77    1
   110    30    28   ar
   111    29    27   ar
   112    84    82   am
   113    82    83    2
   114    28    27   ar
   115    27    26    1
