@<TRIPOS>MOLECULE
tmp/4aljE03.pdb
 129 122 0 0 0
SMALL
GASTEIGER

@<TRIPOS>ATOM
      1  N        -20.3970   19.2670   18.2210 N.3    94  ALA94      -0.1231
      2  CA       -19.2660   18.8940   19.0560 C.3    94  ALA94       0.1694
      3  C        -18.2230   19.9450   18.8090 C.2    94  ALA94       0.2592
      4  O        -18.2390   20.5670   17.7550 O.2    94  ALA94      -0.2718
      5  CB       -18.7420   17.5180   18.6750 C.3    94  ALA94       0.0304
      6  N        -17.2600   20.0750   19.7080 N.am   95  PHE95      -0.1962
      7  CA       -16.1490   20.9690   19.4460 C.3    95  PHE95       0.1771
      8  C        -14.9580   20.5330   20.2930 C.2    95  PHE95       0.2619
      9  O        -15.1280   20.1740   21.4400 O.2    95  PHE95      -0.2715
     10  CB       -16.5310   22.4110   19.8410 C.3    95  PHE95       0.0574
     11  CG       -15.4540   23.3930   19.5170 C.ar   95  PHE95      -0.0200
     12  CD1      -15.3110   23.8600   18.2060 C.ar   95  PHE95      -0.0042
     13  CD2      -14.5030   23.7460   20.4780 C.ar   95  PHE95      -0.0042
     14  CE1      -14.2150   24.6340   17.8450 C.ar   95  PHE95      -0.0003
     15  CE2      -13.4250   24.5490   20.1290 C.ar   95  PHE95      -0.0003
     16  CZ       -13.2990   25.0200   18.8140 C.ar   95  PHE95      -0.0000
     17  N        -13.7440   20.6860   19.8010 N.am   96  ALA96      -0.1977
     18  CA       -12.5650   20.6040   20.6840 C.3    96  ALA96       0.1597
     19  C        -11.5170   21.5120   20.0200 C.2    96  ALA96       0.2287
     20  O        -11.6000   21.7300   18.8160 O.2    96  ALA96      -0.2864
     21  CB       -12.0790   19.1570   20.7400 C.3    96  ALA96       0.0319
     22  N         -6.8690   17.0130   19.0860 N.3   101  LEU101     -0.1245
     23  CA        -7.2830   15.9630   18.1450 C.3   101  LEU101      0.1561
     24  C         -6.1140   15.3770   17.3640 C.2   101  LEU101      0.2260
     25  O         -6.2760   14.9400   16.2190 O.2   101  LEU101     -0.2867
     26  CB        -8.3380   16.5050   17.1840 C.3   101  LEU101      0.0270
     27  CG        -9.4590   17.2660   17.8810 C.3   101  LEU101      0.0019
     28  CD1      -10.2870   17.9930   16.8410 C.3   101  LEU101      0.0001
     29  CD2      -10.2910   16.2750   18.6770 C.3   101  LEU101      0.0001
     30  N        -19.2810    8.9160   17.8840 N.3   146  TYR146     -0.1241
     31  CA       -18.2960    8.2530   17.0420 C.3   146  TYR146      0.1605
     32  C        -17.6270    7.1060   17.7990 C.2   146  TYR146      0.2264
     33  O        -17.4480    7.1370   19.0280 O.2   146  TYR146     -0.2867
     34  CB       -17.2950    9.2810   16.4990 C.3   146  TYR146      0.0534
     35  CG       -16.2170    8.7160   15.6060 C.ar  146  TYR146     -0.0201
     36  CD1      -16.4950    8.0600   14.4020 C.ar  146  TYR146     -0.0009
     37  CD2      -14.9160    8.6800   16.0600 C.ar  146  TYR146     -0.0009
     38  CE1      -15.4520    7.4670   13.6140 C.ar  146  TYR146      0.0417
     39  CE2      -13.9100    8.1890   15.2830 C.ar  146  TYR146      0.0417
     40  CZ       -14.1520    7.5250   14.0990 C.ar  146  TYR146      0.1957
     41  OH       -13.0420    6.9380   13.4520 O.3   146  TYR146     -0.2866
     42  N         -8.0190   10.8840   17.9740 N.3   156  TYR156     -0.1241
     43  CA        -9.2870   11.3940   18.4500 C.3   156  TYR156      0.1605
     44  C         -9.2510   11.9300   19.8860 C.2   156  TYR156      0.2264
     45  O         -9.9250   12.9070   20.1700 O.2   156  TYR156     -0.2867
     46  CB       -10.3580   10.3370   18.3350 C.3   156  TYR156      0.0534
     47  CG       -11.7670   10.8630   18.2460 C.ar  156  TYR156     -0.0201
     48  CD1      -12.1410   11.7780   17.2790 C.ar  156  TYR156     -0.0009
     49  CD2      -12.7480   10.3580   19.0810 C.ar  156  TYR156     -0.0009
     50  CE1      -13.4680   12.1360   17.1240 C.ar  156  TYR156      0.0417
     51  CE2      -14.0640   10.7170   18.9510 C.ar  156  TYR156      0.0417
     52  CZ       -14.4150   11.6250   18.0090 C.ar  156  TYR156      0.1957
     53  OH       -15.7390   11.9420   17.9190 O.3   156  TYR156     -0.2866
     54  N        -11.7610   14.1690   22.2260 N.3   159  MET159     -0.1245
     55  CA       -13.1270   14.0180   21.6900 C.3   159  MET159      0.1570
     56  C        -13.6790   12.6260   21.9970 C.2   159  MET159      0.2261
     57  O        -14.9020   12.4300   22.1260 O.2   159  MET159     -0.2867
     58  CB       -13.1700   14.3100   20.1800 C.3   159  MET159      0.0387
     59  CG       -14.5910   14.5030   19.5720 C.3   159  MET159      0.0595
     60  SD       -15.7520   15.4460   20.6080 S.3   159  MET159     -0.1393
     61  CE       -14.9550   17.0270   20.6500 C.3   159  MET159      0.0692
     62  N        -17.1010   11.8650   23.5900 N.3   163  LYS163     -0.1245
     63  CA       -18.1550   10.9480   23.1120 C.3   163  LYS163      0.1561
     64  C        -18.4760    9.8630   24.1200 C.2   163  LYS163      0.2260
     65  O        -19.6010    9.4170   24.0990 O.2   163  LYS163     -0.2867
     66  CB       -17.8290   10.2680   21.7620 C.3   163  LYS163      0.0271
     67  CG       -17.5590   11.2480   20.6410 C.3   163  LYS163      0.0035
     68  CD       -18.6780   12.3010   20.5450 C.3   163  LYS163      0.0206
     69  CE       -18.5670   13.0210   19.1970 C.3   163  LYS163      0.1093
     70  NZ       -19.7970   13.7560   18.7980 N.3   163  LYS163     -0.1314
     71  N        -16.5910    7.7020    9.5600 N.3   191  PRO191     -0.2102
     72  CA       -15.9380    8.9450    9.0780 C.3   191  PRO191      0.1504
     73  C        -16.5580    9.5440    7.7980 C.2   191  PRO191      0.2575
     74  O        -16.8140    8.8340    6.8210 O.2   191  PRO191     -0.2718
     75  CB       -14.4790    8.5390    8.8130 C.3   191  PRO191      0.0282
     76  CG       -14.4620    6.9870    8.8590 C.3   191  PRO191      0.0208
     77  CD       -15.7630    6.4900    9.4060 C.3   191  PRO191      0.0893
     78  N        -16.7440   10.8560    7.7910 N.am  192  ILE192     -0.1980
     79  CA       -17.2920   11.5610    6.6520 C.3   192  ILE192      0.1595
     80  C        -16.5500   12.8960    6.5250 C.2   192  ILE192      0.2287
     81  O        -16.3880   13.6010    7.5430 O.2   192  ILE192     -0.2864
     82  CB       -18.8170   11.8330    6.8790 C.3   192  ILE192      0.0276
     83  CG1      -19.5810   10.5140    6.9610 C.3   192  ILE192      0.0022
     84  CG2      -19.3770   12.7120    5.7690 C.3   192  ILE192      0.0022
     85  CD1      -20.9420   10.6010    7.5420 C.3   192  ILE192      0.0001
     86  N        -16.1760   16.4070    6.5130 N.3   194  THR194     -0.1218
     87  CA       -16.9080   17.5990    6.9180 C.3   194  THR194      0.1862
     88  C        -15.8820   18.6290    7.3710 C.2   194  THR194      0.2287
     89  O        -14.7190   18.2880    7.5900 O.2   194  THR194     -0.2866
     90  CB       -17.8360   17.3020    8.1440 C.3   194  THR194      0.1770
     91  OG1      -17.0230   17.0020    9.2750 O.3   194  THR194     -0.2211
     92  CG2      -18.7940   16.1120    7.9100 C.3   194  THR194      0.0375
     93  N        -15.4410   19.8740   10.4340 N.3   196  SER196     -0.1202
     94  CA       -14.8800   19.3640   11.6820 C.3   196  SER196      0.2020
     95  C        -13.9150   18.2070   11.5150 C.2   196  SER196      0.2618
     96  O        -12.9800   18.0570   12.2970 O.2   196  SER196     -0.2717
     97  CB       -15.9950   18.9350   12.6510 C.3   196  SER196      0.2103
     98  OG       -16.7040   20.1000   13.0610 O.3   196  SER196     -0.2182
     99  N        -14.1700   17.3590   10.5290 N.am  197  ALA197     -0.1979
    100  CA       -13.2440   16.2750   10.3160 C.3   197  ALA197      0.1597
    101  C        -11.8360   16.7800    9.9880 C.2   197  ALA197      0.2287
    102  O        -10.8750   16.0320   10.1950 O.2   197  ALA197     -0.2864
    103  CB       -13.7820   15.2860    9.2400 C.3   197  ALA197      0.0319
    104  N         -9.3220   16.2590   12.9340 N.3   200  VAL200     -0.1245
    105  CA        -8.9660   14.9440   13.4190 C.3   200  VAL200      0.1561
    106  C         -7.6780   14.4960   12.7190 C.2   200  VAL200      0.2260
    107  O         -7.6990   14.2500   11.5210 O.2   200  VAL200     -0.2867
    108  CB       -10.1350   13.9530   13.1920 C.3   200  VAL200      0.0252
    109  CG1       -9.7130   12.5430   13.4980 C.3   200  VAL200      0.0019
    110  CG2      -11.3130   14.3230   14.0550 C.3   200  VAL200      0.0019
    111  N         -7.0670   11.8390    9.4310 N.3   203  PHE203     -0.1241
    112  CA        -8.4390   11.5340    8.9850 C.3   203  PHE203      0.1605
    113  C         -8.4650   10.7420    7.6710 C.2   203  PHE203      0.2264
    114  O         -9.2720    9.8430    7.5040 O.2   203  PHE203     -0.2867
    115  CB        -9.2760   12.8200    8.8420 C.3   203  PHE203      0.0534
    116  CG       -10.7210   12.5650    8.5330 C.ar  203  PHE203     -0.0203
    117  CD1      -11.5930   12.1430    9.5160 C.ar  203  PHE203     -0.0042
    118  CD2      -11.1820   12.6420    7.2440 C.ar  203  PHE203     -0.0042
    119  CE1      -12.9430   11.9120    9.2240 C.ar  203  PHE203     -0.0003
    120  CE2      -12.5100   12.3570    6.9530 C.ar  203  PHE203     -0.0003
    121  CZ       -13.3680   11.9890    7.9360 C.ar  203  PHE203     -0.0000
    122  N         -8.1160    7.1700    8.3020 N.3   206  ILE206     -0.1245
    123  CA        -9.3240    6.5720    8.8700 C.3   206  ILE206      0.1561
    124  C        -10.2890    6.1950    7.7470 C.2   206  ILE206      0.2260
    125  O        -10.7860    5.0820    7.7100 O.2   206  ILE206     -0.2867
    126  CB       -10.0170    7.5090    9.8520 C.3   206  ILE206      0.0252
    127  CG1       -9.0580    7.8770   10.9960 C.3   206  ILE206      0.0019
    128  CG2      -11.2960    6.8830   10.4020 C.3   206  ILE206      0.0019
    129  CD1       -9.6370    8.8830   11.9380 C.3   206  ILE206      0.0001
@<TRIPOS>BOND
     1    84    82    1
     2    86    87    1
     3    80    79    1
     4    80    81    2
     5    79    82    1
     6    79    78    1
     7    74    73    2
     8    82    83    1
     9    87    88    1
    10    87    90    1
    11   120   118   ar
    12   120   121   ar
    13    83    85    1
    14   118   116   ar
    15    88    89    2
    16   114   113    2
    17   113   112    1
    18   125   124    2
    19   124   123    1
    20    78    73   am
    21    73    72    1
    22    92    90    1
    23   121   119   ar
    24    90    91    1
    25   122   123    1
    26   116   115    1
    27   116   117   ar
    28    75    76    1
    29    75    72    1
    30   115   112    1
    31    76    77    1
    32   123   126    1
    33   112   111    1
    34    72    71    1
    35   119   117   ar
    36   103   100    1
    37    77    71    1
    38   126   128    1
    39   126   127    1
    40   101   102    2
    41   101   100    1
    42   100    99    1
    43    93    94    1
    44    99    95   am
    45   127   129    1
    46    95    94    1
    47    95    96    2
    48   107   106    2
    49    94    97    1
    50    97    98    1
    51   106   105    1
    52   104   105    1
    53   108   105    1
    54   108   109    1
    55   108   110    1
    56    41    40    1
    57    38    40   ar
    58    38    36   ar
    59    40    39   ar
    60    36    35   ar
    61    39    37   ar
    62    35    37   ar
    63    35    34    1
    64    25    24    2
    65    34    31    1
    66    28    27    1
    67    31    32    1
    68    31    30    1
    69    50    48   ar
    70    50    52   ar
    71    26    27    1
    72    26    23    1
    73    48    47   ar
    74    24    23    1
    75     4     3    2
    76    32    33    2
    77    14    12   ar
    78    14    16   ar
    79    27    29    1
    80    53    52    1
    81    42    43    1
    82    52    51   ar
    83    23    22    1
    84    12    11   ar
    85     1     2    1
    86    47    46    1
    87    47    49   ar
    88    46    43    1
    89    43    44    1
    90     5     2    1
    91    70    69    1
    92     3     2    1
    93     3     6   am
    94    16    15   ar
    95    20    19    2
    96    51    49   ar
    97    69    68    1
    98     7     6    1
    99     7    10    1
   100     7     8    1
   101    11    10    1
   102    11    13   ar
   103    59    58    1
   104    59    60    1
   105    17     8   am
   106    17    18    1
   107    44    45    2
   108    19    18    1
   109    15    13   ar
   110    58    55    1
   111     8     9    2
   112    68    67    1
   113    60    61    1
   114    67    66    1
   115    18    21    1
   116    55    56    1
   117    55    54    1
   118    66    63    1
   119    56    57    2
   120    63    62    1
   121    63    64    1
   122    65    64    2
