@<TRIPOS>MOLECULE
tmp/4aljE01.pdb
 90 83 0 0 0
SMALL
GASTEIGER

@<TRIPOS>ATOM
      1  N        -45.0910   16.2740   11.3670 N.3     6  LYS6       -0.1245
      2  CA       -44.0140   16.3080   12.3600 C.3     6  LYS6        0.1561
      3  C        -43.1350   17.5470   12.2280 C.2     6  LYS6        0.2260
      4  O        -42.8360   18.0020   11.1250 O.2     6  LYS6       -0.2867
      5  CB       -43.1150   15.0680   12.2820 C.3     6  LYS6        0.0271
      6  CG       -43.8820   13.7610   12.2860 C.3     6  LYS6        0.0035
      7  CD       -44.4920   13.4210   13.6300 C.3     6  LYS6        0.0206
      8  CE       -45.0440   12.0070   13.5590 C.3     6  LYS6        0.1093
      9  NZ       -46.2720   11.8460   14.3710 N.3     6  LYS6       -0.1314
     10  N        -39.3040   18.8310   13.6320 N.3     8  TYR8       -0.1241
     11  CA       -38.0360   18.4410   14.2310 C.3     8  TYR8        0.1605
     12  C        -37.0750   19.6200   14.2900 C.2     8  TYR8        0.2264
     13  O        -37.0320   20.4240   13.3640 O.2     8  TYR8       -0.2867
     14  CB       -37.4120   17.3220   13.4220 C.3     8  TYR8        0.0534
     15  CG       -38.2490   16.0730   13.4920 C.ar    8  TYR8       -0.0201
     16  CD1      -38.4470   15.4280   14.7070 C.ar    8  TYR8       -0.0009
     17  CD2      -38.8450   15.5400   12.3510 C.ar    8  TYR8       -0.0009
     18  CE1      -39.1880   14.2590   14.7830 C.ar    8  TYR8        0.0417
     19  CE2      -39.5620   14.3590   12.4160 C.ar    8  TYR8        0.0417
     20  CZ       -39.7620   13.7390   13.6470 C.ar    8  TYR8        0.1957
     21  OH       -40.5450   12.6020   13.7590 O.3     8  TYR8       -0.2866
     22  N        -41.6740   17.2840   17.5540 N.3    87  ASP87      -0.1239
     23  CA       -41.6370   15.8510   17.7490 C.3    87  ASP87       0.1674
     24  C        -40.2600   15.3170   18.0840 C.2    87  ASP87       0.2266
     25  O        -40.1580   14.1710   18.5060 O.2    87  ASP87      -0.2867
     26  CB       -42.2200   15.1410   16.5330 C.3    87  ASP87       0.1410
     27  CG       -43.6550   15.5510   16.3150 C.2    87  ASP87       0.3668
     28  OD1      -44.5080   15.1270   17.1220 O.co2  87  ASP87      -0.2456
     29  OD2      -43.8820   16.5000   15.5430 O.co2  87  ASP87      -0.2456
     30  N        -44.6390   13.3290   24.1910 N.3   138  GLY138     -0.1210
     31  CA       -43.5940   12.4110   23.7880 C.3   138  GLY138      0.1956
     32  C        -42.7470   12.8680   22.6190 C.2   138  GLY138      0.2612
     33  O        -43.1180   13.7690   21.8780 O.2   138  GLY138     -0.2717
     34  N        -41.5710   12.2810   22.4780 N.am  139  GLY139     -0.1942
     35  CA       -40.8400   12.5700   21.2790 C.3   139  GLY139      0.2014
     36  C        -39.5400   11.8430   21.2410 C.2   139  GLY139      0.2639
     37  O        -39.3590   10.8170   21.9210 O.2   139  GLY139     -0.2714
     38  N        -38.6340   12.3590   20.4170 N.am  140  SER140     -0.1949
     39  CA       -37.4130   11.5960   20.1110 C.3   140  SER140      0.1924
     40  C        -36.2140   12.5290   20.0120 C.2   140  SER140      0.2314
     41  O        -36.2810   13.5450   19.3170 O.2   140  SER140     -0.2863
     42  CB       -37.5910   10.7810   18.8250 C.3   140  SER140      0.2116
     43  OG       -36.4970    9.8960   18.5740 O.3   140  SER140     -0.2180
     44  N        -42.3400    9.5330   27.8050 N.3   181  ASN181     -0.1240
     45  CA       -42.4390    9.0620   26.4310 C.3   181  ASN181      0.1653
     46  C        -41.5070    9.7800   25.4640 C.2   181  ASN181      0.2266
     47  O        -41.9150   10.0670   24.3440 O.2   181  ASN181     -0.2867
     48  CB       -43.8900    9.0680   25.8950 C.3   181  ASN181      0.1155
     49  CG       -44.0540    8.2120   24.6310 C.2   181  ASN181      0.2627
     50  OD1      -43.3220    7.2420   24.4230 O.2   181  ASN181     -0.2716
     51  ND2      -44.9840    8.5960   23.7570 N.am  181  ASN181     -0.0877
     52  N        -37.7340    9.3800   23.8080 N.3   183  ARG183     -0.1245
     53  CA       -36.7060    8.4030   23.5450 C.3   183  ARG183      0.1563
     54  C        -35.4540    9.2130   23.2510 C.2   183  ARG183      0.2260
     55  O        -35.5430   10.3320   22.7490 O.2   183  ARG183     -0.2867
     56  CB       -37.1160    7.4910   22.3730 C.3   183  ARG183      0.0307
     57  CG       -38.4160    6.7440   22.6860 C.3   183  ARG183      0.0489
     58  CD       -38.8410    5.6850   21.6660 C.3   183  ARG183      0.2205
     59  NE       -39.2100    6.2860   20.3870 N.pl3 183  ARG183     -0.0865
     60  CZ       -38.3930    6.4090   19.3410 C.cat 183  ARG183      0.5346
     61  NH1      -37.1270    5.9680   19.3810 N.pl3 183  ARG183      0.1354
     62  NH2      -38.8580    6.9330   18.2220 N.pl3 183  ARG183      0.1354
     63  N        -36.1070    9.0480   14.7620 N.3   233  LEU233     -0.1231
     64  CA       -36.9410   10.2200   15.0590 C.3   233  LEU233      0.1693
     65  C        -38.4360    9.9610   14.8030 C.2   233  LEU233      0.2593
     66  O        -39.2940   10.7400   15.2340 O.2   233  LEU233     -0.2718
     67  CB       -36.4870   11.3990   14.1980 C.3   233  LEU233      0.0284
     68  CG       -35.1620   12.0850   14.5650 C.3   233  LEU233      0.0019
     69  CD1      -34.7710   13.0930   13.4980 C.3   233  LEU233      0.0001
     70  CD2      -35.2860   12.7600   15.9000 C.3   233  LEU233      0.0001
     71  N        -38.7520    8.8740   14.1030 N.am  234  SER234     -0.1938
     72  CA       -40.1420    8.4990   13.8180 C.3   234  SER234      0.2055
     73  C        -40.6910    7.3710   14.7090 C.2   234  SER234      0.2643
     74  O        -39.9940    6.7880   15.5510 O.2   234  SER234     -0.2714
     75  CB       -40.2430    8.0550   12.3610 C.3   234  SER234      0.2130
     76  OG       -39.6880    6.7510   12.1730 O.3   234  SER234     -0.2179
     77  N        -41.9460    7.0050   14.4810 N.am  235  ASP235     -0.1971
     78  CA       -42.5740    5.9220   15.2480 C.3   235  ASP235      0.1709
     79  C        -42.0970    4.5280   14.7890 C.2   235  ASP235      0.2293
     80  O        -42.4150    3.5080   15.4150 O.2   235  ASP235     -0.2864
     81  CB       -44.1140    6.0490   15.1520 C.3   235  ASP235      0.1436
     82  CG       -44.8470    4.7640   15.5680 C.2   235  ASP235      0.3671
     83  OD1      -45.1350    4.6120   16.7850 O.co2 235  ASP235     -0.2456
     84  OD2      -45.1490    3.9110   14.6810 O.co2 235  ASP235     -0.2456
     85  N        -40.2920    2.9430   17.8160 N.3   238  SER238     -0.1217
     86  CA       -40.9930    3.3270   19.0480 C.3   238  SER238      0.1889
     87  C        -40.5560    2.6200   20.3330 C.2   238  SER238      0.2288
     88  O        -40.8790    3.0810   21.4280 O.2   238  SER238     -0.2866
     89  CB       -42.5120    3.1960   18.8770 C.3   238  SER238      0.2089
     90  OG       -42.8770    1.8650   18.5430 O.3   238  SER238     -0.2183
@<TRIPOS>BOND
     1     4     3    2
     2     1     2    1
     3    76    75    1
     4     3     2    1
     5     5     6    1
     6     5     2    1
     7     6     7    1
     8    17    19   ar
     9    17    15   ar
    10    75    72    1
    11    19    20   ar
    12    13    12    2
    13    14    15    1
    14    14    11    1
    15    15    16   ar
    16    69    68    1
    17     8     7    1
    18     8     9    1
    19    10    11    1
    20    20    21    1
    21    20    18   ar
    22    72    71    1
    23    72    73    1
    24    71    65   am
    25    67    68    1
    26    67    64    1
    27    11    12    1
    28    77    73   am
    29    77    78    1
    30    68    70    1
    31    84    82   ar
    32    16    18   ar
    33    73    74    2
    34    63    64    1
    35    79    78    1
    36    79    80    2
    37    65    64    1
    38    65    66    2
    39    81    78    1
    40    81    82    1
    41    29    27   ar
    42    82    83   ar
    43    27    26    1
    44    27    28   ar
    45    26    23    1
    46    22    23    1
    47    23    24    1
    48    85    86    1
    49    24    25    2
    50    62    60    1
    51    90    89    1
    52    43    42    1
    53    42    39    1
    54    89    86    1
    55    86    87    1
    56    41    40    2
    57    60    61    1
    58    60    59    2
    59    40    39    1
    60    39    38    1
    61    87    88    2
    62    59    58    1
    63    38    36   am
    64    36    35    1
    65    36    37    2
    66    35    34    1
    67    58    57    1
    68    33    32    2
    69    56    57    1
    70    56    53    1
    71    34    32   am
    72    32    31    1
    73    55    54    2
    74    54    53    1
    75    53    52    1
    76    51    49   am
    77    31    30    1
    78    47    46    2
    79    50    49    2
    80    49    48    1
    81    46    45    1
    82    48    45    1
    83    45    44    1
