@<TRIPOS>MOLECULE
tmp/4allA00.pdb
 155 147 0 0 0
SMALL
GASTEIGER

@<TRIPOS>ATOM
      1  N          9.8620  -23.5730  -19.7690 N.3    20  ILE20      -0.1245
      2  CA         9.7990  -24.9560  -19.2790 C.3    20  ILE20       0.1561
      3  C         11.0240  -25.7750  -19.7690 C.2    20  ILE20       0.2260
      4  O         11.6570  -26.4820  -19.0010 O.2    20  ILE20      -0.2867
      5  CB         8.4370  -25.6490  -19.6600 C.3    20  ILE20       0.0252
      6  CG1        7.3030  -25.1970  -18.7420 C.3    20  ILE20       0.0019
      7  CG2        8.5420  -27.1080  -19.5330 C.3    20  ILE20       0.0019
      8  CD1        5.9170  -25.5460  -19.2420 C.3    20  ILE20       0.0001
      9  N          9.0530  -28.3700  -26.9920 N.3    93  SER93      -0.1202
     10  CA         8.4050  -27.4320  -26.0830 C.3    93  SER93       0.2020
     11  C          7.9040  -26.1520  -26.8000 C.2    93  SER93       0.2619
     12  O          8.3080  -25.0300  -26.4930 O.2    93  SER93      -0.2717
     13  CB         9.3210  -27.1080  -24.9040 C.3    93  SER93       0.2103
     14  OG         8.5630  -26.5130  -23.8620 O.3    93  SER93      -0.2182
     15  N          7.0310  -26.3490  -27.7780 N.am   94  ILE94      -0.1965
     16  CA         6.7500  -25.3180  -28.7310 C.3    94  ILE94       0.1727
     17  C          5.2660  -25.3030  -28.9590 C.2    94  ILE94       0.2616
     18  O          4.6490  -26.3570  -29.1490 O.2    94  ILE94      -0.2715
     19  CB         7.5190  -25.5110  -30.0690 C.3    94  ILE94       0.0290
     20  CG1        9.0240  -25.2730  -29.8660 C.3    94  ILE94       0.0022
     21  CG2        7.0000  -24.5690  -31.1180 C.3    94  ILE94       0.0023
     22  CD1        9.9470  -25.8660  -30.9460 C.3    94  ILE94       0.0001
     23  N          4.7110  -24.0810  -28.9160 N.am   95  ALA95      -0.1963
     24  CA         3.3260  -23.8210  -29.2340 C.3    95  ALA95       0.1728
     25  C          3.1870  -22.3350  -29.5120 C.2    95  ALA95       0.2616
     26  O          4.0230  -21.5470  -29.1060 O.2    95  ALA95      -0.2715
     27  CB         2.3980  -24.2610  -28.0750 C.3    95  ALA95       0.0334
     28  N          2.1320  -21.9600  -30.2180 N.am   96  PHE96      -0.1960
     29  CA         1.8400  -20.5870  -30.5030 C.3    96  PHE96       0.1771
     30  C          0.4170  -20.4700  -31.0400 C.2    96  PHE96       0.2619
     31  O         -0.1070  -21.4190  -31.6350 O.2    96  PHE96      -0.2715
     32  CB         2.8170  -20.0340  -31.5190 C.3    96  PHE96       0.0574
     33  CG         2.8280  -18.5330  -31.5720 C.ar   96  PHE96      -0.0200
     34  CD1        3.6400  -17.8000  -30.7100 C.ar   96  PHE96      -0.0042
     35  CD2        2.0330  -17.8520  -32.4790 C.ar   96  PHE96      -0.0042
     36  CE1        3.6500  -16.4020  -30.7380 C.ar   96  PHE96      -0.0003
     37  CE2        2.0290  -16.4510  -32.5140 C.ar   96  PHE96      -0.0003
     38  CZ         2.8340  -15.7230  -31.6370 C.ar   96  PHE96      -0.0000
     39  N         -0.2020  -19.3120  -30.7930 N.am   97  ALA97      -0.1977
     40  CA        -1.4740  -18.9320  -31.3850 C.3    97  ALA97       0.1597
     41  C         -1.5370  -17.4030  -31.3960 C.2    97  ALA97       0.2287
     42  O         -0.7600  -16.7330  -30.7290 O.2    97  ALA97      -0.2864
     43  CB        -2.6380  -19.5090  -30.5980 C.3    97  ALA97       0.0319
     44  N         -6.6890  -16.3140  -28.2120 N.3   102  LEU102     -0.1245
     45  CA        -6.6260  -16.7660  -26.8150 C.3   102  LEU102      0.1561
     46  C         -7.5100  -15.9760  -25.8470 C.2   102  LEU102      0.2260
     47  O         -7.3050  -16.0450  -24.6320 O.2   102  LEU102     -0.2867
     48  CB        -5.1850  -16.7470  -26.3080 C.3   102  LEU102      0.0270
     49  CG        -4.3460  -17.7820  -27.0460 C.3   102  LEU102      0.0019
     50  CD1       -2.8820  -17.4200  -27.1790 C.3   102  LEU102      0.0001
     51  CD2       -4.5300  -19.2180  -26.4890 C.3   102  LEU102      0.0001
     52  N         -1.0510  -29.4140  -22.0570 N.3   147  TYR147     -0.1241
     53  CA        -1.7990  -28.8090  -20.9830 C.3   147  TYR147      0.1605
     54  C         -3.1840  -29.4370  -20.9130 C.2   147  TYR147      0.2264
     55  O         -3.7890  -29.8220  -21.9330 O.2   147  TYR147     -0.2867
     56  CB        -1.9230  -27.2790  -21.1980 C.3   147  TYR147      0.0534
     57  CG        -2.6620  -26.5640  -20.0940 C.ar  147  TYR147     -0.0201
     58  CD1       -2.3060  -26.7300  -18.7530 C.ar  147  TYR147     -0.0009
     59  CD2       -3.7280  -25.7460  -20.3800 C.ar  147  TYR147     -0.0009
     60  CE1       -3.0020  -26.1230  -17.7420 C.ar  147  TYR147      0.0417
     61  CE2       -4.4200  -25.1080  -19.3770 C.ar  147  TYR147      0.0417
     62  CZ        -4.0460  -25.3090  -18.0610 C.ar  147  TYR147      0.1957
     63  OH        -4.7350  -24.6850  -17.0550 O.3   147  TYR147     -0.2866
     64  N         -8.4720  -20.7620  -23.0690 N.3   157  TYR157     -0.1241
     65  CA        -7.4080  -21.3890  -23.7860 C.3   157  TYR157      0.1605
     66  C         -7.8260  -21.5180  -25.2520 C.2   157  TYR157      0.2264
     67  O         -6.9830  -21.5630  -26.1430 O.2   157  TYR157     -0.2867
     68  CB        -7.1800  -22.7580  -23.1250 C.3   157  TYR157      0.0534
     69  CG        -5.8230  -23.3490  -23.2890 C.ar  157  TYR157     -0.0201
     70  CD1       -4.6700  -22.6190  -23.0630 C.ar  157  TYR157     -0.0009
     71  CD2       -5.7050  -24.6650  -23.6120 C.ar  157  TYR157     -0.0009
     72  CE1       -3.4280  -23.2000  -23.2250 C.ar  157  TYR157      0.0417
     73  CE2       -4.5000  -25.2540  -23.7630 C.ar  157  TYR157      0.0417
     74  CZ        -3.3690  -24.5240  -23.5780 C.ar  157  TYR157      0.1957
     75  OH        -2.2020  -25.1880  -23.7470 O.3   157  TYR157     -0.2866
     76  N         -5.8660  -22.8780  -28.5150 N.3   160  MET160     -0.1245
     77  CA        -4.7300  -23.6460  -28.0590 C.3   160  MET160      0.1570
     78  C         -5.2260  -24.9580  -27.4980 C.2   160  MET160      0.2261
     79  O         -4.5480  -26.0110  -27.6030 O.2   160  MET160     -0.2867
     80  CB        -3.9890  -22.9220  -26.9720 C.3   160  MET160      0.0387
     81  CG        -2.6530  -23.4980  -26.6620 C.3   160  MET160      0.0595
     82  SD        -1.5890  -23.7580  -28.1260 S.3   160  MET160     -0.1393
     83  CE        -0.9410  -22.0790  -28.2350 C.3   160  MET160      0.0692
     84  N         -3.8550  -28.5070  -28.4930 N.3   164  LYS164     -0.1245
     85  CA        -3.3900  -29.5560  -27.5810 C.3   164  LYS164      0.1561
     86  C         -4.0920  -30.8750  -27.7770 C.2   164  LYS164      0.2260
     87  O         -3.4650  -31.9300  -27.6490 O.2   164  LYS164     -0.2867
     88  CB        -3.4680  -29.1350  -26.1200 C.3   164  LYS164      0.0271
     89  CG        -2.4880  -28.0070  -25.7850 C.3   164  LYS164      0.0035
     90  CD        -1.0340  -28.3750  -26.0700 C.3   164  LYS164      0.0206
     91  CE        -0.1780  -27.1510  -25.9410 C.3   164  LYS164      0.1093
     92  NZ         1.2830  -27.4080  -25.9720 N.3   164  LYS164     -0.1314
     93  N         -0.1450  -25.1590  -14.4920 N.3   192  PRO192     -0.2102
     94  CA         0.3100  -23.8320  -14.8690 C.3   192  PRO192      0.1504
     95  C          1.6440  -23.4560  -14.1800 C.2   192  PRO192      0.2575
     96  O          1.8490  -23.7830  -13.0180 O.2   192  PRO192     -0.2718
     97  CB        -0.8820  -22.9350  -14.4870 C.3   192  PRO192      0.0282
     98  CG        -1.5390  -23.6620  -13.4090 C.3   192  PRO192      0.0208
     99  CD        -1.4170  -25.1080  -13.7520 C.3   192  PRO192      0.0893
    100  N          2.5310  -22.8390  -14.9530 N.am  193  ILE193     -0.1980
    101  CA         3.8010  -22.3120  -14.5040 C.3   193  ILE193      0.1595
    102  C          3.9820  -20.8770  -15.0870 C.2   193  ILE193      0.2287
    103  O          3.6470  -20.6440  -16.2670 O.2   193  ILE193     -0.2864
    104  CB         4.9820  -23.1880  -15.0110 C.3   193  ILE193      0.0276
    105  CG1        4.9570  -24.5830  -14.3940 C.3   193  ILE193      0.0022
    106  CG2        6.3190  -22.5370  -14.6960 C.3   193  ILE193      0.0022
    107  CD1        5.6670  -25.5790  -15.2020 C.3   193  ILE193      0.0001
    108  N          5.6100  -18.3420  -17.0440 N.3   195  THR195     -0.1218
    109  CA         6.5660  -18.2550  -18.1480 C.3   195  THR195      0.1862
    110  C          6.1850  -17.1050  -19.0840 C.2   195  THR195      0.2287
    111  O          5.1570  -16.4460  -18.8880 O.2   195  THR195     -0.2866
    112  CB         6.5560  -19.5380  -18.9930 C.3   195  THR195      0.1770
    113  OG1        5.3070  -19.6400  -19.6940 O.3   195  THR195     -0.2211
    114  CG2        6.7620  -20.7830  -18.1220 C.3   195  THR195      0.0375
    115  N          5.2520  -17.2170  -22.2960 N.3   197  SER197     -0.1202
    116  CA         4.0340  -17.5080  -23.0500 C.3   197  SER197      0.2020
    117  C          2.7740  -17.5300  -22.1700 C.2   197  SER197      0.2618
    118  O          1.6700  -17.2560  -22.6520 O.2   197  SER197     -0.2717
    119  CB         4.1940  -18.8280  -23.7900 C.3   197  SER197      0.2103
    120  OG         4.8980  -18.7030  -25.0140 O.3   197  SER197     -0.2182
    121  N          2.9550  -17.8430  -20.8880 N.am  198  ALA198     -0.1979
    122  CA         1.8750  -17.8270  -19.9020 C.3   198  ALA198      0.1597
    123  C          1.0780  -16.5100  -19.8880 C.2   198  ALA198      0.2287
    124  O         -0.1280  -16.5040  -19.5990 O.2   198  ALA198     -0.2864
    125  CB         2.4230  -18.1150  -18.5140 C.3   198  ALA198      0.0319
    126  N          0.1640  -14.6260  -22.3410 N.3   200  GLY200     -0.1210
    127  CA        -0.8880  -14.6230  -23.3620 C.3   200  GLY200      0.1956
    128  C         -2.2150  -15.2320  -22.9120 C.2   200  GLY200      0.2611
    129  O         -3.2720  -14.8330  -23.3930 O.2   200  GLY200     -0.2717
    130  N         -2.1700  -16.1740  -21.9770 N.am  201  VAL201     -0.1979
    131  CA        -3.3790  -16.8410  -21.4930 C.3   201  VAL201      0.1595
    132  C         -4.1010  -16.0500  -20.4180 C.2   201  VAL201      0.2287
    133  O         -3.6120  -15.9190  -19.3010 O.2   201  VAL201     -0.2864
    134  CB        -3.0490  -18.2400  -20.9130 C.3   201  VAL201      0.0276
    135  CG1       -4.3070  -18.9340  -20.3740 C.3   201  VAL201      0.0022
    136  CG2       -2.3920  -19.1010  -21.9570 C.3   201  VAL201      0.0022
    137  N         -4.8790  -16.3540  -16.1180 N.3   204  PHE204     -0.1241
    138  CA        -3.7800  -17.1700  -15.6300 C.3   204  PHE204      0.1605
    139  C         -3.5780  -17.1480  -14.1010 C.2   204  PHE204      0.2264
    140  O         -3.2540  -18.1980  -13.5030 O.2   204  PHE204     -0.2867
    141  CB        -2.4910  -16.7990  -16.3570 C.3   204  PHE204      0.0534
    142  CG        -1.3310  -17.6740  -15.9940 C.ar  204  PHE204     -0.0203
    143  CD1       -1.1900  -18.9440  -16.5560 C.ar  204  PHE204     -0.0042
    144  CD2       -0.3740  -17.2420  -15.0850 C.ar  204  PHE204     -0.0042
    145  CE1       -0.1200  -19.7620  -16.2200 C.ar  204  PHE204     -0.0003
    146  CE2        0.7000  -18.0630  -14.7430 C.ar  204  PHE204     -0.0003
    147  CZ         0.8230  -19.3230  -15.3070 C.ar  204  PHE204     -0.0000
    148  N         -6.2290  -19.2240  -12.3360 N.3   207  ILE207     -0.1245
    149  CA        -5.8130  -20.5970  -12.6360 C.3   207  ILE207      0.1561
    150  C         -4.7990  -21.0430  -11.5860 C.2   207  ILE207      0.2260
    151  O         -5.0160  -22.0390  -10.8990 O.2   207  ILE207     -0.2867
    152  CB        -5.2220  -20.7410  -14.0770 C.3   207  ILE207      0.0252
    153  CG1       -6.3390  -20.7910  -15.1330 C.3   207  ILE207      0.0019
    154  CG2       -4.4190  -21.9950  -14.1930 C.3   207  ILE207      0.0019
    155  CD1       -5.8610  -20.9000  -16.6010 C.3   207  ILE207      0.0001
@<TRIPOS>BOND
     1    37    35   ar
     2    37    38   ar
     3    35    33   ar
     4    38    36   ar
     5    31    30    2
     6    33    32    1
     7    33    34   ar
     8    32    29    1
     9    41    40    1
    10    41    42    2
    11    40    39    1
    12    40    43    1
    13    21    19    1
    14    30    39   am
    15    30    29    1
    16    22    20    1
    17    36    34   ar
    18    29    28    1
    19    28    25   am
    20    19    20    1
    21    19    16    1
    22    25    24    1
    23    25    26    2
    24    24    23    1
    25    24    27    1
    26    18    17    2
    27    17    23   am
    28    17    16    1
    29    16    15    1
    30    76    77    1
    31    84    85    1
    32    83    82    1
    33    44    45    1
    34    82    81    1
    35    77    78    1
    36    77    80    1
    37    15    11   am
    38    86    87    2
    39    86    85    1
    40    79    78    2
    41    85    88    1
    42    50    49    1
    43    49    51    1
    44    49    48    1
    45     9    10    1
    46    80    81    1
    47    45    48    1
    48    45    46    1
    49    11    12    2
    50    11    10    1
    51    67    66    2
    52    88    89    1
    53    10    13    1
    54    90    91    1
    55    90    89    1
    56    92    91    1
    57    46    47    2
    58    66    65    1
    59   120   119    1
    60    13    14    1
    61   119   116    1
    62    65    68    1
    63    65    64    1
    64    73    71   ar
    65    73    74   ar
    66    75    74    1
    67    71    69   ar
    68    74    72   ar
    69   129   128    2
    70   127   128    1
    71   127   126    1
    72    69    68    1
    73    69    70   ar
    74    72    70   ar
    75   116   115    1
    76   116   117    1
    77   128   130   am
    78   118   117    2
    79   117   121   am
    80    52    53    1
    81   130   131    1
    82   136   134    1
    83    55    54    2
    84   131   134    1
    85   131   132    1
    86    56    53    1
    87    56    57    1
    88    53    54    1
    89   134   135    1
    90   121   122    1
    91   132   133    2
    92    59    57   ar
    93    59    61   ar
    94    57    58   ar
    95   122   123    1
    96   122   125    1
    97   123   124    2
    98     1     2    1
    99     3     2    1
   100     3     4    2
   101   113   112    1
   102     5     7    1
   103     5     2    1
   104     5     6    1
   105    61    62   ar
   106     8     6    1
   107   110   111    2
   108   110   109    1
   109   112   109    1
   110   112   114    1
   111    58    60   ar
   112   109   108    1
   113    62    60   ar
   114    62    63    1
   115   155   153    1
   116   143   145   ar
   117   143   142   ar
   118   141   142    1
   119   141   138    1
   120   103   102    2
   121   145   147   ar
   122   137   138    1
   123   142   144   ar
   124   138   139    1
   125   147   146   ar
   126   107   105    1
   127   153   152    1
   128   102   101    1
   129   144   146   ar
   130   104   106    1
   131   104   101    1
   132   104   105    1
   133   100   101    1
   134   100    95   am
   135    94    93    1
   136    94    97    1
   137    94    95    1
   138    93    99    1
   139    97    98    1
   140   154   152    1
   141    95    96    2
   142   139   140    2
   143   152   149    1
   144    99    98    1
   145   149   148    1
   146   149   150    1
   147   150   151    2
