@<TRIPOS>MOLECULE
tmp/4aloA01.pdb
 117 110 0 0 0
SMALL
GASTEIGER

@<TRIPOS>ATOM
      1  N         -7.0460    6.5740   -3.8730 N.3    43  ASN43      -0.1240
      2  CA        -6.5030    5.2230   -3.9730 C.3    43  ASN43       0.1653
      3  C         -7.5710    4.1460   -3.8020 C.2    43  ASN43       0.2266
      4  O         -8.0570    3.9220   -2.6940 O.2    43  ASN43      -0.2867
      5  CB        -5.3810    5.0410   -2.9390 C.3    43  ASN43       0.1155
      6  CG        -4.4730    3.8720   -3.2550 C.2    43  ASN43       0.2627
      7  OD1       -4.9330    2.7400   -3.4290 O.2    43  ASN43      -0.2716
      8  ND2       -3.1670    4.1370   -3.3080 N.am   43  ASN43      -0.0877
      9  N         -7.2640    0.9930   -3.8710 N.3    45  TYR45      -0.1241
     10  CA        -6.7730   -0.2750   -3.3130 C.3    45  TYR45       0.1605
     11  C         -6.5800   -0.2570   -1.8060 C.2    45  TYR45       0.2264
     12  O         -6.3590   -1.2950   -1.1970 O.2    45  TYR45      -0.2867
     13  CB        -5.4510   -0.6960   -3.9620 C.3    45  TYR45       0.0534
     14  CG        -5.4470   -0.5820   -5.4630 C.ar   45  TYR45      -0.0201
     15  CD1       -5.9210   -1.6130   -6.2650 C.ar   45  TYR45      -0.0009
     16  CD2       -4.9700    0.5610   -6.0770 C.ar   45  TYR45      -0.0009
     17  CE1       -5.9170   -1.4960   -7.6430 C.ar   45  TYR45       0.0417
     18  CE2       -4.9640    0.6850   -7.4360 C.ar   45  TYR45       0.0417
     19  CZ        -5.4340   -0.3410   -8.2200 C.ar   45  TYR45       0.1957
     20  OH        -5.4110   -0.1840   -9.5880 O.3    45  TYR45      -0.2866
     21  N         -3.0630   -5.5250    7.3670 N.3    79  ARG79      -0.1245
     22  CA        -2.6640   -6.0230    6.0600 C.3    79  ARG79       0.1563
     23  C         -1.1730   -6.2200    5.9990 C.2    79  ARG79       0.2260
     24  O         -0.4100   -5.3260    6.3560 O.2    79  ARG79      -0.2867
     25  CB        -3.1020   -5.0850    4.9370 C.3    79  ARG79       0.0307
     26  CG        -4.5850   -5.0820    4.7150 C.3    79  ARG79       0.0489
     27  CD        -4.8890   -5.3390    3.2690 C.3    79  ARG79       0.2205
     28  NE        -4.8990   -4.1060    2.4950 N.pl3  79  ARG79      -0.0865
     29  CZ        -4.9370   -4.0630    1.1680 C.cat  79  ARG79       0.5346
     30  NH1       -4.9560   -5.1890    0.4610 N.pl3  79  ARG79       0.1354
     31  NH2       -4.9560   -2.8910    0.5520 N.pl3  79  ARG79       0.1354
     32  N          6.0220   -2.7400   -4.4610 N.3    95  ILE95      -0.1245
     33  CA         5.2480   -2.8710   -3.2420 C.3    95  ILE95       0.1561
     34  C          4.0570   -3.7630   -3.5370 C.2    95  ILE95       0.2260
     35  O          3.3120   -3.5380   -4.4860 O.2    95  ILE95      -0.2867
     36  CB         4.8110   -1.5130   -2.6550 C.3    95  ILE95       0.0252
     37  CG1        4.4720   -1.6850   -1.1680 C.3    95  ILE95       0.0019
     38  CG2        3.6600   -0.9060   -3.4640 C.3    95  ILE95       0.0019
     39  CD1        3.9790   -0.4330   -0.5040 C.3    95  ILE95       0.0001
     40  N          0.9600   -6.3100   -1.7070 N.3    97  TYR97      -0.1241
     41  CA         0.1420   -6.5260   -0.5080 C.3    97  TYR97       0.1605
     42  C         -0.8210   -7.6870   -0.7330 C.2    97  TYR97       0.2264
     43  O         -1.1740   -7.9690   -1.8750 O.2    97  TYR97      -0.2867
     44  CB        -0.6330   -5.2510   -0.1430 C.3    97  TYR97       0.0534
     45  CG         0.0500   -4.3540    0.8800 C.ar   97  TYR97      -0.0201
     46  CD1        1.0810   -3.4970    0.5110 C.ar   97  TYR97      -0.0009
     47  CD2       -0.3520   -4.3540    2.2150 C.ar   97  TYR97      -0.0009
     48  CE1        1.7050   -2.6740    1.4480 C.ar   97  TYR97       0.0417
     49  CE2        0.2680   -3.5370    3.1580 C.ar   97  TYR97       0.0417
     50  CZ         1.2930   -2.6950    2.7670 C.ar   97  TYR97       0.1957
     51  OH         1.9190   -1.8720    3.6880 O.3    97  TYR97      -0.2866
     52  N         -4.1490   -7.9580   -3.0020 N.3   100  SER100     -0.1202
     53  CA        -3.8300   -6.8450   -3.8710 C.3   100  SER100      0.2020
     54  C         -2.7390   -7.3020   -4.8410 C.2   100  SER100      0.2618
     55  O         -2.3760   -8.4910   -4.8710 O.2   100  SER100     -0.2717
     56  CB        -3.3630   -5.6530   -3.0310 C.3   100  SER100      0.2103
     57  OG        -3.1150   -4.5000   -3.8290 O.3   100  SER100     -0.2182
     58  N         -2.1900   -6.3680   -5.6100 N.am  101  PHE101     -0.1975
     59  CA        -1.1670   -6.7120   -6.5860 C.3   101  PHE101      0.1639
     60  C          0.1870   -6.1180   -6.1970 C.2   101  PHE101      0.2290
     61  O          0.3680   -5.6450   -5.0760 O.2   101  PHE101     -0.2864
     62  CB        -1.6020   -6.2120   -7.9640 C.3   101  PHE101      0.0560
     63  CG        -1.6840   -4.7220   -8.0570 C.ar  101  PHE101     -0.0200
     64  CD1       -2.5460   -4.0130   -7.2350 C.ar  101  PHE101     -0.0042
     65  CD2       -0.8900   -4.0250   -8.9570 C.ar  101  PHE101     -0.0042
     66  CE1       -2.6250   -2.6390   -7.3020 C.ar  101  PHE101     -0.0003
     67  CE2       -0.9600   -2.6450   -9.0330 C.ar  101  PHE101     -0.0003
     68  CZ        -1.8350   -1.9490   -8.2000 C.ar  101  PHE101     -0.0000
     69  N          2.9660   -3.1950   -7.3180 N.3   103  ALA103     -0.1245
     70  CA         3.1270   -1.9810   -8.1150 C.3   103  ALA103      0.1562
     71  C          4.5310   -1.3940   -7.9850 C.2   103  ALA103      0.2260
     72  O          5.2170   -1.6140   -6.9950 O.2   103  ALA103     -0.2867
     73  CB         2.0840   -0.9380   -7.7120 C.3   103  ALA103      0.0290
     74  N          7.1490    1.1740   -6.8650 N.3   105  LEU105     -0.1245
     75  CA         7.1820    2.2040   -5.8570 C.3   105  LEU105      0.1561
     76  C          8.5430    2.8660   -5.8800 C.2   105  LEU105      0.2260
     77  O          9.5730    2.1980   -5.8550 O.2   105  LEU105     -0.2867
     78  CB         6.9120    1.6440   -4.4640 C.3   105  LEU105      0.0270
     79  CG         6.7040    2.7610   -3.4340 C.3   105  LEU105      0.0019
     80  CD1        5.2640    3.2280   -3.4740 C.3   105  LEU105      0.0001
     81  CD2        7.0820    2.3080   -2.0370 C.3   105  LEU105      0.0001
     82  N          3.9490    5.8540   -7.0040 N.3   120  SER120     -0.1217
     83  CA         3.6760    4.6610   -7.7890 C.3   120  SER120      0.1889
     84  C          2.9830    5.0780   -9.0880 C.2   120  SER120      0.2288
     85  O          2.0600    5.8800   -9.0700 O.2   120  SER120     -0.2866
     86  CB         2.8000    3.6970   -6.9920 C.3   120  SER120      0.2089
     87  OG         2.5930    2.4840   -7.6940 O.3   120  SER120     -0.2183
     88  N          1.6730    3.7370  -13.1710 N.3   122  ILE122     -0.1245
     89  CA         1.3750    2.6420  -14.0790 C.3   122  ILE122      0.1561
     90  C          0.9400    3.2080  -15.4290 C.2   122  ILE122      0.2260
     91  O          0.0100    4.0040  -15.4980 O.2   122  ILE122     -0.2867
     92  CB         0.2410    1.7690  -13.4950 C.3   122  ILE122      0.0252
     93  CG1        0.6440    1.2350  -12.1150 C.3   122  ILE122      0.0019
     94  CG2       -0.1390    0.6360  -14.4580 C.3   122  ILE122      0.0019
     95  CD1       -0.5060    0.6860  -11.2880 C.3   122  ILE122      0.0001
     96  N         -0.2470    7.0480   -7.9120 N.3   132  PHE132     -0.1241
     97  CA        -0.7070    6.9980   -6.5430 C.3   132  PHE132      0.1605
     98  C          0.4270    7.4590   -5.6630 C.2   132  PHE132      0.2264
     99  O          1.5450    6.9420   -5.7400 O.2   132  PHE132     -0.2867
    100  CB        -1.1820    5.5890   -6.1970 C.3   132  PHE132      0.0534
    101  CG        -2.2570    5.1020   -7.1100 C.ar  132  PHE132     -0.0203
    102  CD1       -3.5860    5.4130   -6.8570 C.ar  132  PHE132     -0.0042
    103  CD2       -1.9420    4.3910   -8.2570 C.ar  132  PHE132     -0.0042
    104  CE1       -4.5810    4.9990   -7.7210 C.ar  132  PHE132     -0.0003
    105  CE2       -2.9370    3.9640   -9.1220 C.ar  132  PHE132     -0.0003
    106  CZ        -4.2550    4.2690   -8.8570 C.ar  132  PHE132     -0.0000
    107  N          1.9150    9.2210   -1.7980 N.3   134  PHE134     -0.1241
    108  CA         1.7950    9.1490   -0.3620 C.3   134  PHE134      0.1605
    109  C          2.8140   10.0570    0.2600 C.2   134  PHE134      0.2264
    110  O          3.9310   10.1870   -0.2340 O.2   134  PHE134     -0.2867
    111  CB         2.0820    7.7450    0.1610 C.3   134  PHE134      0.0534
    112  CG         1.3050    6.6780   -0.5060 C.ar  134  PHE134     -0.0203
    113  CD1        1.7500    6.1300   -1.6920 C.ar  134  PHE134     -0.0042
    114  CD2        0.1410    6.1960    0.0620 C.ar  134  PHE134     -0.0042
    115  CE1        1.0400    5.1240   -2.3210 C.ar  134  PHE134     -0.0003
    116  CE2       -0.5840    5.1890   -0.5670 C.ar  134  PHE134     -0.0003
    117  CZ        -0.1260    4.6530   -1.7570 C.ar  134  PHE134     -0.0000
@<TRIPOS>BOND
     1    91    90    2
     2    90    89    1
     3    94    92    1
     4    89    92    1
     5    89    88    1
     6    92    93    1
     7    93    95    1
     8    20    19    1
     9   105   106   ar
    10   105   103   ar
    11    84    85    2
    12    84    83    1
    13    67    65   ar
    14    67    68   ar
    15    65    63   ar
    16   106   104   ar
    17   103   101   ar
    18    19    17   ar
    19    19    18   ar
    20    68    66   ar
    21    70    71    1
    22    70    73    1
    23    70    69    1
    24    63    62    1
    25    63    64   ar
    26    71    72    2
    27    62    59    1
    28    96    97    1
    29    83    82    1
    30    83    86    1
    31   104   102   ar
    32    87    86    1
    33    17    15   ar
    34    18    16   ar
    35    66    64   ar
    36   101   102   ar
    37   101   100    1
    38    74    75    1
    39    59    60    1
    40    59    58    1
    41    97   100    1
    42    97    98    1
    43    15    14   ar
    44    60    61    2
    45    16    14   ar
    46    76    75    1
    47    76    77    2
    48    75    78    1
    49    99    98    2
    50    58    54   am
    51    14    13    1
    52    55    54    2
    53    54    53    1
    54    35    34    2
    55    78    79    1
    56    32    33    1
    57     2     1    1
    58     2     3    1
    59     2     5    1
    60    13    10    1
    61    53    56    1
    62    53    52    1
    63     9    10    1
    64    57    56    1
    65     3     4    2
    66    34    33    1
    67    80    79    1
    68    38    36    1
    69    79    81    1
    70     7     6    2
    71    10    11    1
    72     8     6   am
    73     6     5    1
    74    33    36    1
    75    36    37    1
    76   115   117   ar
    77   115   113   ar
    78    43    42    2
    79    11    12    2
    80   107   108    1
    81   117   116   ar
    82    40    41    1
    83   113   112   ar
    84    37    39    1
    85    42    41    1
    86   116   114   ar
    87    41    44    1
    88   112   114   ar
    89   112   111    1
    90   108   111    1
    91   108   109    1
    92   110   109    2
    93    44    45    1
    94    30    29    1
    95    46    45   ar
    96    46    48   ar
    97    31    29    1
    98    45    47   ar
    99    29    28    2
   100    48    50   ar
   101    47    49   ar
   102    28    27    1
   103    50    49   ar
   104    50    51    1
   105    27    26    1
   106    26    25    1
   107    25    22    1
   108    23    22    1
   109    23    24    2
   110    22    21    1
