@<TRIPOS>MOLECULE
tmp/4aloA00.pdb
 148 138 0 0 0
SMALL
GASTEIGER

@<TRIPOS>ATOM
      1  N          0.8210    7.1400    7.7190 N.3    37  GLN37      -0.1245
      2  CA         0.3650    7.7410    6.4850 C.3    37  GLN37       0.1566
      3  C         -0.2570    9.0890    6.7840 C.2    37  GLN37       0.2260
      4  O         -1.3510    9.1790    7.3160 O.2    37  GLN37      -0.2867
      5  CB        -0.6310    6.8290    5.7700 C.3    37  GLN37       0.0367
      6  CG        -1.0170    7.2970    4.3810 C.3    37  GLN37       0.0905
      7  CD        -2.0160    6.3730    3.7250 C.2    37  GLN37       0.2608
      8  OE1       -1.6460    5.3540    3.1480 O.2    37  GLN37      -0.2717
      9  NE2       -3.2950    6.7210    3.8120 N.am   37  GLN37      -0.0878
     10  N         -7.0460    6.5740   -3.8730 N.3    43  ASN43      -0.1240
     11  CA        -6.5030    5.2230   -3.9730 C.3    43  ASN43       0.1653
     12  C         -7.5710    4.1460   -3.8020 C.2    43  ASN43       0.2266
     13  O         -8.0570    3.9220   -2.6940 O.2    43  ASN43      -0.2867
     14  CB        -5.3810    5.0410   -2.9390 C.3    43  ASN43       0.1155
     15  CG        -4.4730    3.8720   -3.2550 C.2    43  ASN43       0.2627
     16  OD1       -4.9330    2.7400   -3.4290 O.2    43  ASN43      -0.2716
     17  ND2       -3.1670    4.1370   -3.3080 N.am   43  ASN43      -0.0877
     18  N         -7.2640    0.9930   -3.8710 N.3    45  TYR45      -0.1227
     19  CA        -6.7730   -0.2750   -3.3130 C.3    45  TYR45       0.1736
     20  C         -6.5800   -0.2570   -1.8060 C.2    45  TYR45       0.2595
     21  O         -6.3590   -1.2950   -1.1970 O.2    45  TYR45      -0.2718
     22  CB        -5.4510   -0.6960   -3.9620 C.3    45  TYR45       0.0548
     23  CG        -5.4470   -0.5820   -5.4630 C.ar   45  TYR45      -0.0200
     24  CD1       -5.9210   -1.6130   -6.2650 C.ar   45  TYR45      -0.0009
     25  CD2       -4.9700    0.5610   -6.0770 C.ar   45  TYR45      -0.0009
     26  CE1       -5.9170   -1.4960   -7.6430 C.ar   45  TYR45       0.0417
     27  CE2       -4.9640    0.6850   -7.4360 C.ar   45  TYR45       0.0417
     28  CZ        -5.4340   -0.3410   -8.2200 C.ar   45  TYR45       0.1957
     29  OH        -5.4110   -0.1840   -9.5880 O.3    45  TYR45      -0.2866
     30  N         -6.6410    0.9230   -1.2120 N.am   46  GLN46      -0.1979
     31  CA        -6.4000    1.0600    0.2070 C.3    46  GLN46       0.1601
     32  C         -7.6080    0.6190    1.0200 C.2    46  GLN46       0.2287
     33  O         -8.6920    1.1840    0.8830 O.2    46  GLN46      -0.2864
     34  CB        -6.0630    2.5070    0.5310 C.3    46  GLN46       0.0394
     35  CG        -6.2280    2.8330    1.9900 C.3    46  GLN46       0.0908
     36  CD        -5.1270    3.7200    2.5080 C.2    46  GLN46       0.2608
     37  OE1       -5.3220    4.9230    2.6880 O.2    46  GLN46      -0.2717
     38  NE2       -3.9570    3.1290    2.7560 N.am   46  GLN46      -0.0878
     39  N         -7.3970    0.3070    4.5020 N.3    48  ILE48      -0.1245
     40  CA        -7.2840    0.9190    5.8160 C.3    48  ILE48       0.1561
     41  C         -7.5290    2.4100    5.7010 C.2    48  ILE48       0.2260
     42  O         -6.7290    3.1370    5.1070 O.2    48  ILE48      -0.2867
     43  CB        -5.9030    0.6620    6.4330 C.3    48  ILE48       0.0252
     44  CG1       -5.6310   -0.8490    6.4720 C.3    48  ILE48       0.0019
     45  CG2       -5.8250    1.3040    7.8100 C.3    48  ILE48       0.0019
     46  CD1       -4.2530   -1.2250    6.9650 C.3    48  ILE48       0.0001
     47  N         -3.6160    4.9680    9.7900 N.3    52  VAL52      -0.1245
     48  CA        -2.7370    4.1310    8.9730 C.3    52  VAL52       0.1561
     49  C         -1.2920    4.1620    9.4540 C.2    52  VAL52       0.2260
     50  O         -0.6050    5.1900    9.3920 O.2    52  VAL52      -0.2867
     51  CB        -2.8030    4.4890    7.4740 C.3    52  VAL52       0.0252
     52  CG1       -1.9610    3.5150    6.6770 C.3    52  VAL52       0.0019
     53  CG2       -4.2440    4.4700    6.9760 C.3    52  VAL52       0.0019
     54  N          2.3110    1.9730    9.3580 N.3    54  ASN54      -0.1240
     55  CA         3.0080    0.9470    8.5840 C.3    54  ASN54       0.1653
     56  C          4.2900    0.4550    9.2510 C.2    54  ASN54       0.2266
     57  O          5.2460    1.2100    9.3790 O.2    54  ASN54      -0.2867
     58  CB         3.3170    1.4630    7.1720 C.3    54  ASN54       0.1155
     59  CG         2.0720    1.8930    6.4170 C.2    54  ASN54       0.2627
     60  OD1        1.1350    1.1120    6.2330 O.2    54  ASN54      -0.2716
     61  ND2        2.0640    3.1390    5.9600 N.am   54  ASN54      -0.0877
     62  N          7.6350   -1.5070    9.1210 N.3    56  TYR56      -0.1241
     63  CA         8.6180   -2.0020    8.1660 C.3    56  TYR56       0.1605
     64  C          9.7740   -2.7090    8.8770 C.2    56  TYR56       0.2264
     65  O         10.3910   -2.1440    9.7830 O.2    56  TYR56      -0.2867
     66  CB         9.1760   -0.8320    7.3320 C.3    56  TYR56       0.0534
     67  CG         8.2840   -0.3720    6.1910 C.ar   56  TYR56      -0.0201
     68  CD1        7.1640    0.4170    6.4280 C.ar   56  TYR56      -0.0009
     69  CD2        8.5670   -0.7280    4.8740 C.ar   56  TYR56      -0.0009
     70  CE1        6.3520    0.8350    5.3870 C.ar   56  TYR56       0.0417
     71  CE2        7.7660   -0.3190    3.8350 C.ar   56  TYR56       0.0417
     72  CZ         6.6570    0.4640    4.0940 C.ar   56  TYR56       0.1957
     73  OH         5.8440    0.8660    3.0540 O.3    56  TYR56      -0.2866
     74  N          0.7610   -3.4640    8.1150 N.3    67  SER67      -0.1217
     75  CA         0.0070   -2.2290    8.0800 C.3    67  SER67       0.1889
     76  C         -1.2570   -2.3950    8.8940 C.2    67  SER67       0.2288
     77  O         -1.9450   -3.4090    8.7770 O.2    67  SER67      -0.2866
     78  CB        -0.3080   -1.8310    6.6320 C.3    67  SER67       0.2089
     79  OG         0.8860   -1.4490    5.9560 O.3    67  SER67      -0.2183
     80  N         -3.0630   -5.5250    7.3670 N.3    79  ARG79      -0.1245
     81  CA        -2.6640   -6.0230    6.0600 C.3    79  ARG79       0.1563
     82  C         -1.1730   -6.2200    5.9990 C.2    79  ARG79       0.2260
     83  O         -0.4100   -5.3260    6.3560 O.2    79  ARG79      -0.2867
     84  CB        -3.1020   -5.0850    4.9370 C.3    79  ARG79       0.0307
     85  CG        -4.5850   -5.0820    4.7150 C.3    79  ARG79       0.0489
     86  CD        -4.8890   -5.3390    3.2690 C.3    79  ARG79       0.2205
     87  NE        -4.8990   -4.1060    2.4950 N.pl3  79  ARG79      -0.0865
     88  CZ        -4.9370   -4.0630    1.1680 C.cat  79  ARG79       0.5346
     89  NH1       -4.9560   -5.1890    0.4610 N.pl3  79  ARG79       0.1354
     90  NH2       -4.9560   -2.8910    0.5520 N.pl3  79  ARG79       0.1354
     91  N          6.0220   -2.7400   -4.4610 N.3    95  ILE95      -0.1245
     92  CA         5.2480   -2.8710   -3.2420 C.3    95  ILE95       0.1561
     93  C          4.0570   -3.7630   -3.5370 C.2    95  ILE95       0.2260
     94  O          3.3120   -3.5380   -4.4860 O.2    95  ILE95      -0.2867
     95  CB         4.8110   -1.5130   -2.6550 C.3    95  ILE95       0.0252
     96  CG1        4.4720   -1.6850   -1.1680 C.3    95  ILE95       0.0019
     97  CG2        3.6600   -0.9060   -3.4640 C.3    95  ILE95       0.0019
     98  CD1        3.9790   -0.4330   -0.5040 C.3    95  ILE95       0.0001
     99  N          0.9600   -6.3100   -1.7070 N.3    97  TYR97      -0.1241
    100  CA         0.1420   -6.5260   -0.5080 C.3    97  TYR97       0.1605
    101  C         -0.8210   -7.6870   -0.7330 C.2    97  TYR97       0.2264
    102  O         -1.1740   -7.9690   -1.8750 O.2    97  TYR97      -0.2867
    103  CB        -0.6330   -5.2510   -0.1430 C.3    97  TYR97       0.0534
    104  CG         0.0500   -4.3540    0.8800 C.ar   97  TYR97      -0.0201
    105  CD1        1.0810   -3.4970    0.5110 C.ar   97  TYR97      -0.0009
    106  CD2       -0.3520   -4.3540    2.2150 C.ar   97  TYR97      -0.0009
    107  CE1        1.7050   -2.6740    1.4480 C.ar   97  TYR97       0.0417
    108  CE2        0.2680   -3.5370    3.1580 C.ar   97  TYR97       0.0417
    109  CZ         1.2930   -2.6950    2.7670 C.ar   97  TYR97       0.1957
    110  OH         1.9190   -1.8720    3.6880 O.3    97  TYR97      -0.2866
    111  N          7.1490    1.1740   -6.8650 N.3   105  LEU105     -0.1245
    112  CA         7.1820    2.2040   -5.8570 C.3   105  LEU105      0.1561
    113  C          8.5430    2.8660   -5.8800 C.2   105  LEU105      0.2260
    114  O          9.5730    2.1980   -5.8550 O.2   105  LEU105     -0.2867
    115  CB         6.9120    1.6440   -4.4640 C.3   105  LEU105      0.0270
    116  CG         6.7040    2.7610   -3.4340 C.3   105  LEU105      0.0019
    117  CD1        5.2640    3.2280   -3.4740 C.3   105  LEU105      0.0001
    118  CD2        7.0820    2.3080   -2.0370 C.3   105  LEU105      0.0001
    119  N          6.3540    9.1430   -1.4250 N.3   118  LEU118     -0.1245
    120  CA         6.2990    7.9200   -2.2280 C.3   118  LEU118      0.1561
    121  C          5.5080    8.1050   -3.5260 C.2   118  LEU118      0.2260
    122  O          4.5420    8.8580   -3.5730 O.2   118  LEU118     -0.2867
    123  CB         5.6820    6.7730   -1.4240 C.3   118  LEU118      0.0270
    124  CG         6.1770    6.4560   -0.0090 C.3   118  LEU118      0.0019
    125  CD1        5.5790    5.1450    0.4570 C.3   118  LEU118      0.0001
    126  CD2        7.6910    6.3940    0.0730 C.3   118  LEU118      0.0001
    127  N          1.9150    9.2210   -1.7980 N.3   134  PHE134     -0.1241
    128  CA         1.7950    9.1490   -0.3620 C.3   134  PHE134      0.1605
    129  C          2.8140   10.0570    0.2600 C.2   134  PHE134      0.2264
    130  O          3.9310   10.1870   -0.2340 O.2   134  PHE134     -0.2867
    131  CB         2.0820    7.7450    0.1610 C.3   134  PHE134      0.0534
    132  CG         1.3050    6.6780   -0.5060 C.ar  134  PHE134     -0.0203
    133  CD1        1.7500    6.1300   -1.6920 C.ar  134  PHE134     -0.0042
    134  CD2        0.1410    6.1960    0.0620 C.ar  134  PHE134     -0.0042
    135  CE1        1.0400    5.1240   -2.3210 C.ar  134  PHE134     -0.0003
    136  CE2       -0.5840    5.1890   -0.5670 C.ar  134  PHE134     -0.0003
    137  CZ        -0.1260    4.6530   -1.7570 C.ar  134  PHE134     -0.0000
    138  N          4.5330   10.0150    3.8950 N.3   136  PHE136     -0.1241
    139  CA         4.7350    9.2320    5.1150 C.3   136  PHE136      0.1605
    140  C          5.3750   10.1050    6.1790 C.2   136  PHE136      0.2264
    141  O          6.1960   10.9710    5.8760 O.2   136  PHE136     -0.2867
    142  CB         5.6890    8.0680    4.8450 C.3   136  PHE136      0.0534
    143  CG         5.0230    6.8060    4.3780 C.ar  136  PHE136     -0.0203
    144  CD1        3.6890    6.7900    3.9960 C.ar  136  PHE136     -0.0042
    145  CD2        5.7640    5.6280    4.2840 C.ar  136  PHE136     -0.0042
    146  CE1        3.0880    5.5940    3.5530 C.ar  136  PHE136     -0.0003
    147  CE2        5.1840    4.4500    3.8380 C.ar  136  PHE136     -0.0003
    148  CZ         3.8390    4.4300    3.4780 C.ar  136  PHE136     -0.0000
@<TRIPOS>BOND
     1    29    28    1
     2    28    26   ar
     3    28    27   ar
     4    26    24   ar
     5    27    25   ar
     6   111   112    1
     7    24    23   ar
     8    25    23   ar
     9   113   112    1
    10   113   114    2
    11   112   115    1
    12    23    22    1
    13    94    93    2
    14   115   116    1
    15    91    92    1
    16    11    10    1
    17    11    12    1
    18    11    14    1
    19    22    19    1
    20    18    19    1
    21    12    13    2
    22   122   121    2
    23    93    92    1
    24   121   120    1
    25   117   116    1
    26    97    95    1
    27   116   118    1
    28    16    15    2
    29    19    20    1
    30    17    15   am
    31    15    14    1
    32    92    95    1
    33    95    96    1
    34   135   137   ar
    35   135   133   ar
    36   120   119    1
    37   120   123    1
    38   102   101    2
    39    20    30   am
    40    20    21    2
    41   127   128    1
    42   137   136   ar
    43    99   100    1
    44   133   132   ar
    45   123   124    1
    46    30    31    1
    47    96    98    1
    48   101   100    1
    49   136   134   ar
    50   100   103    1
    51   132   134   ar
    52   132   131    1
    53   128   131    1
    54   128   129    1
    55   130   129    2
    56   103   104    1
    57   124   126    1
    58   124   125    1
    59    31    34    1
    60    31    32    1
    61    89    88    1
    62   105   104   ar
    63   105   107   ar
    64    34    35    1
    65    90    88    1
    66   104   106   ar
    67    33    32    2
    68    88    87    2
    69   107   109   ar
    70    35    36    1
    71   106   108   ar
    72    87    86    1
    73    36    37    2
    74    36    38   am
    75   109   108   ar
    76   109   110    1
    77    73    72    1
    78     8     7    2
    79    86    85    1
    80   148   146   ar
    81   148   147   ar
    82   146   144   ar
    83     7     9   am
    84     7     6    1
    85    71    72   ar
    86    71    69   ar
    87   147   145   ar
    88   138   139    1
    89   144   143   ar
    90    72    70   ar
    91   145   143   ar
    92   143   142    1
    93     6     5    1
    94    39    40    1
    95    85    84    1
    96   142   139    1
    97    69    67   ar
    98    84    81    1
    99    42    41    2
   100   139   140    1
   101    70    68   ar
   102    41    40    1
   103     5     2    1
   104    40    43    1
   105   141   140    2
   106    79    78    1
   107    61    59   am
   108    82    81    1
   109    82    83    2
   110    81    80    1
   111    67    68   ar
   112    67    66    1
   113    60    59    2
   114    59    58    1
   115    43    44    1
   116    43    45    1
   117    44    46    1
   118     2     3    1
   119     2     1    1
   120    78    75    1
   121    52    51    1
   122     3     4    2
   123    53    51    1
   124    58    55    1
   125    66    63    1
   126    51    48    1
   127    75    74    1
   128    75    76    1
   129    63    64    1
   130    63    62    1
   131    55    56    1
   132    55    54    1
   133    77    76    2
   134    64    65    2
   135    48    49    1
   136    48    47    1
   137    56    57    2
   138    50    49    2
