@<TRIPOS>MOLECULE
tmp/4aluA00.pdb
 163 151 0 0 0
SMALL
GASTEIGER

@<TRIPOS>ATOM
      1  N         16.8900   38.5800   -5.4670 N.3    12  LEU12      -0.1231
      2  CA        18.2890   38.2880   -5.8680 C.3    12  LEU12       0.1693
      3  C         18.4980   36.9250   -6.5010 C.2    12  LEU12       0.2593
      4  O         19.4440   36.7380   -7.2060 O.2    12  LEU12      -0.2718
      5  CB        19.2600   38.4600   -4.7240 C.3    12  LEU12       0.0284
      6  CG        19.2570   39.8290   -4.0520 C.3    12  LEU12       0.0019
      7  CD1       20.1170   39.8430   -2.7620 C.3    12  LEU12       0.0001
      8  CD2       19.7100   40.8950   -5.0050 C.3    12  LEU12       0.0001
      9  N         17.6430   35.9600   -6.2730 N.am   13  GLY13      -0.1942
     10  CA        17.8590   34.6940   -6.9160 C.3    13  GLY13       0.2014
     11  C         16.9150   33.6920   -6.3390 C.2    13  GLY13       0.2640
     12  O         16.2020   33.9750   -5.3640 O.2    13  GLY13      -0.2714
     13  N         16.9250   32.5130   -6.9310 N.am   14  SER14      -0.1935
     14  CA        15.9640   31.5120   -6.6090 C.3    14  SER14       0.2058
     15  C         16.4630   30.1240   -7.0290 C.2    14  SER14       0.2682
     16  O         17.2960   30.0160   -7.9070 O.2    14  SER14      -0.2710
     17  CB        14.6660   31.8760   -7.3190 C.3    14  SER14       0.2130
     18  OG        14.0110   30.7430   -7.8530 O.3    14  SER14      -0.2179
     19  N         15.9550   29.0610   -6.4100 N.am   15  GLY15      -0.1729
     20  CA        16.2740   27.7220   -6.8970 C.2    15  GLY15       0.1340
     21  C         15.8130   26.5450   -6.0530 C.2    15  GLY15       0.2521
     22  O         14.6470   26.5080   -5.5600 O.2    15  GLY15      -0.2816
     23  N         17.4870   26.4470   -3.5800 N.3    17  SER17      -0.1217
     24  CA        17.6850   27.3660   -2.4450 C.3    17  SER17       0.1889
     25  C         16.3470   27.8520   -1.8230 C.2    17  SER17       0.2288
     26  O         16.2730   28.0490   -0.6000 O.2    17  SER17      -0.2866
     27  CB        18.5160   28.5860   -2.9210 C.3    17  SER17       0.2089
     28  OG        19.6230   28.8190   -2.0620 O.3    17  SER17      -0.2183
     29  N         14.1130   31.2260   -2.3650 N.3    19  SER19      -0.1202
     30  CA        14.1640   32.5520   -3.0040 C.3    19  SER19       0.2020
     31  C         14.7530   33.5560   -2.0740 C.2    19  SER19       0.2618
     32  O         14.3520   33.6310   -0.9140 O.2    19  SER19      -0.2717
     33  CB        12.7680   33.0140   -3.3990 C.3    19  SER19       0.2103
     34  OG        12.1510   32.0220   -4.1910 O.3    19  SER19      -0.2182
     35  N         15.6940   34.3410   -2.5790 N.am   20  VAL20      -0.1979
     36  CA        16.3970   35.2980   -1.7280 C.3    20  VAL20       0.1595
     37  C         16.1580   36.7180   -2.2110 C.2    20  VAL20       0.2287
     38  O         16.3410   37.0150   -3.4190 O.2    20  VAL20      -0.2864
     39  CB        17.9160   34.9460   -1.6090 C.3    20  VAL20       0.0276
     40  CG1       18.6450   35.9040   -0.6670 C.3    20  VAL20       0.0022
     41  CG2       18.1090   33.4850   -1.2220 C.3    20  VAL20       0.0022
     42  N         19.6210   40.0590    3.5940 N.3    33  ALA33      -0.1245
     43  CA        19.0890   39.1660    2.5670 C.3    33  ALA33       0.1562
     44  C         18.0140   38.3230    3.2080 C.2    33  ALA33       0.2260
     45  O         18.2100   37.7590    4.2900 O.2    33  ALA33      -0.2867
     46  CB        20.1690   38.2900    1.9440 C.3    33  ALA33       0.0290
     47  N         15.8680   35.2000    2.8750 N.3    35  LYS35      -0.1245
     48  CA        15.6990   33.8860    2.2480 C.3    35  LYS35       0.1561
     49  C         14.4220   33.1720    2.7410 C.2    35  LYS35       0.2260
     50  O         14.2060   33.0360    3.9310 O.2    35  LYS35      -0.2867
     51  CB        16.8800   33.0180    2.6270 C.3    35  LYS35       0.0271
     52  CG        16.9760   31.7460    1.8830 C.3    35  LYS35       0.0035
     53  CD        18.2680   31.0730    2.2100 C.3    35  LYS35       0.0206
     54  CE        18.4260   29.8240    1.3480 C.3    35  LYS35       0.1093
     55  NZ        19.6850   29.0400    1.6100 N.3    35  LYS35      -0.1314
     56  N         19.3750   23.7790    8.1570 N.3    57  GLU57      -0.1245
     57  CA        20.0470   24.9620    7.6890 C.3    57  GLU57       0.1567
     58  C         20.2420   25.9930    8.8030 C.2    57  GLU57       0.2260
     59  O         21.3020   26.6430    8.8850 O.2    57  GLU57      -0.2867
     60  CB        19.2850   25.5680    6.5290 C.3    57  GLU57       0.0388
     61  CG        20.0480   26.6500    5.8250 C.3    57  GLU57       0.1160
     62  CD        19.3640   27.1600    4.5810 C.2    57  GLU57       0.3649
     63  OE1       18.2660   26.6550    4.2140 O.co2  57  GLU57      -0.2457
     64  OE2       19.9410   28.0900    3.9620 O.co2  57  GLU57      -0.2457
     65  N         28.5670   33.6230    5.9140 N.3    72  ILE72      -0.1245
     66  CA        27.4310   34.5100    6.1310 C.3    72  ILE72       0.1561
     67  C         26.8710   34.3640    7.5490 C.2    72  ILE72       0.2260
     68  O         26.7320   33.2360    8.0710 O.2    72  ILE72      -0.2867
     69  CB        26.3060   34.3380    5.1000 C.3    72  ILE72       0.0252
     70  CG1       25.5670   35.6520    4.8840 C.3    72  ILE72       0.0019
     71  CG2       25.4030   33.1700    5.4530 C.3    72  ILE72       0.0019
     72  CD1       26.2660   36.5440    3.8710 C.3    72  ILE72       0.0001
     73  N         19.7320   37.2390    6.5820 N.3    88  LEU88      -0.1231
     74  CA        21.1590   36.9970    6.5180 C.3    88  LEU88       0.1693
     75  C         21.8150   38.3040    6.2740 C.2    88  LEU88       0.2592
     76  O         21.1610   39.2230    5.7740 O.2    88  LEU88      -0.2718
     77  CB        21.4630   36.0470    5.3680 C.3    88  LEU88       0.0284
     78  CG        20.8090   34.7010    5.6800 C.3    88  LEU88       0.0019
     79  CD1       20.3010   34.0600    4.4460 C.3    88  LEU88       0.0001
     80  CD2       21.7290   33.7420    6.4840 C.3    88  LEU88       0.0001
     81  N         23.0960   38.4370    6.6120 N.am   89  GLU89      -0.1966
     82  CA        23.7750   39.6420    6.1680 C.3    89  GLU89       0.1733
     83  C         23.8380   39.6970    4.6640 C.2    89  GLU89       0.2616
     84  O         23.6120   38.6730    3.9790 O.2    89  GLU89      -0.2715
     85  CB        25.1840   39.7660    6.7110 C.3    89  GLU89       0.0429
     86  CG        25.7810   38.5580    7.2660 C.3    89  GLU89       0.1163
     87  CD        27.2780   38.7000    7.2810 C.2    89  GLU89       0.3649
     88  OE1       27.7120   39.8820    7.2110 O.co2  89  GLU89      -0.2457
     89  OE2       28.0150   37.6630    7.3350 O.co2  89  GLU89      -0.2457
     90  N         24.1560   40.8980    4.1620 N.am   90  ARG90      -0.1964
     91  CA        24.3260   41.1450    2.7540 C.3    90  ARG90       0.1717
     92  C         25.4360   42.1340    2.5950 C.2    90  ARG90       0.2495
     93  O         25.2340   43.3090    2.8730 O.2    90  ARG90      -0.2727
     94  CB        23.0290   41.7180    2.1390 C.3    90  ARG90       0.0348
     95  CG        23.1480   42.1010    0.6420 C.3    90  ARG90       0.0492
     96  CD        21.7790   42.2980   -0.0360 C.3    90  ARG90       0.2205
     97  NE        20.9660   43.3130    0.6400 N.pl3  90  ARG90      -0.0865
     98  CZ        21.0810   44.6360    0.4390 C.cat  90  ARG90       0.5346
     99  NH1       21.9850   45.1250   -0.4180 N.pl3  90  ARG90       0.1354
    100  NH2       20.2980   45.4630    1.1170 N.pl3  90  ARG90       0.1354
    101  N         26.6200   41.6870    2.1230 N.am   91  PRO91      -0.2504
    102  CA        27.6430   42.7080    1.7780 C.3    91  PRO91       0.1487
    103  C         27.1550   43.5360    0.6060 C.2    91  PRO91       0.2276
    104  O         26.3220   43.0940   -0.1850 O.2    91  PRO91      -0.2865
    105  CB        28.8780   41.8980    1.3700 C.3    91  PRO91       0.0556
    106  CG        28.4650   40.4530    1.2850 C.2    91  PRO91      -0.0078
    107  CD        27.0720   40.3000    1.8800 C.2    91  PRO91       0.0634
    108  N         28.4350   43.5990   -3.8980 N.3    94  VAL94      -0.1245
    109  CA        28.6840   42.1790   -3.7230 C.3    94  VAL94       0.1561
    110  C         28.5730   41.5100   -5.0700 C.2    94  VAL94       0.2260
    111  O         27.8320   41.9690   -5.9140 O.2    94  VAL94      -0.2867
    112  CB        27.6580   41.5750   -2.7220 C.3    94  VAL94       0.0252
    113  CG1       26.2300   41.6820   -3.2610 C.3    94  VAL94       0.0019
    114  CG2       27.9460   40.1710   -2.4510 C.3    94  VAL94       0.0019
    115  N         28.8110   37.1840   -6.6270 N.3    96  ASP96      -0.1239
    116  CA        29.1550   35.8070   -6.4150 C.3    96  ASP96       0.1674
    117  C         30.2380   35.2740   -7.3510 C.2    96  ASP96       0.2266
    118  O         30.4080   35.7180   -8.5080 O.2    96  ASP96      -0.2867
    119  CB        27.9280   34.9080   -6.2560 C.3    96  ASP96       0.1410
    120  CG        27.2510   34.5110   -7.5650 C.2    96  ASP96       0.3668
    121  OD1       27.8650   34.3930   -8.6600 O.co2  96  ASP96      -0.2456
    122  OD2       26.0400   34.2220   -7.4220 O.co2  96  ASP96      -0.2456
    123  N         29.1340   29.3200   -6.8630 N.3   139  GLU139     -0.1231
    124  CA        27.8670   30.0270   -6.6500 C.3   139  GLU139      0.1699
    125  C         27.5210   30.1730   -5.1970 C.2   139  GLU139      0.2592
    126  O         26.5820   30.8910   -4.8680 O.2   139  GLU139     -0.2718
    127  CB        26.6820   29.3560   -7.2970 C.3   139  GLU139      0.0402
    128  CG        27.0000   28.6340   -8.5600 C.3   139  GLU139      0.1161
    129  CD        25.8150   27.8560   -9.0750 C.2   139  GLU139      0.3649
    130  OE1       24.6810   28.3360   -8.8560 O.co2 139  GLU139     -0.2457
    131  OE2       26.0320   26.7730   -9.6540 O.co2 139  GLU139     -0.2457
    132  N         28.2340   29.4600   -4.3410 N.am  140  ASN140     -0.1974
    133  CA        28.0070   29.5260   -2.9210 C.3   140  ASN140      0.1688
    134  C         29.0520   30.3190   -2.2230 C.2   140  ASN140      0.2292
    135  O         29.2170   30.1970   -1.0070 O.2   140  ASN140     -0.2864
    136  CB        27.9250   28.1310   -2.3410 C.3   140  ASN140      0.1181
    137  CG        26.5880   27.5240   -2.5850 C.2   140  ASN140      0.2629
    138  OD1       25.6390   28.2750   -2.8100 O.2   140  ASN140     -0.2716
    139  ND2       26.4800   26.1850   -2.5720 N.am  140  ASN140     -0.0877
    140  N         30.3460   34.4150   -1.9630 N.3   142  LEU142     -0.1245
    141  CA        30.1260   35.8190   -2.2170 C.3   142  LEU142      0.1561
    142  C         31.3930   36.6300   -2.0290 C.2   142  LEU142      0.2260
    143  O         32.1690   36.4440   -1.0680 O.2   142  LEU142     -0.2867
    144  CB        29.0420   36.3820   -1.2890 C.3   142  LEU142      0.0270
    145  CG        27.6630   35.7260   -1.4520 C.3   142  LEU142      0.0019
    146  CD1       26.5880   36.5940   -0.7550 C.3   142  LEU142      0.0001
    147  CD2       27.3150   35.5000   -2.9190 C.3   142  LEU142      0.0001
    148  N         28.1390   30.8300    1.6070 N.3   153  ILE153     -0.1231
    149  CA        26.6920   30.8860    1.7990 C.3   153  ILE153      0.1692
    150  C         26.0270   29.5520    1.5530 C.2   153  ILE153      0.2592
    151  O         26.5830   28.6580    0.9080 O.2   153  ILE153     -0.2718
    152  CB        25.9930   31.9100    0.8540 C.3   153  ILE153      0.0266
    153  CG1       26.1610   31.5150   -0.6180 C.3   153  ILE153      0.0019
    154  CG2       26.5280   33.2950    1.0670 C.3   153  ILE153      0.0020
    155  CD1       25.4570   32.4460   -1.5980 C.3   153  ILE153      0.0001
    156  N         24.7920   29.4600    2.0230 N.am  154  ASP154     -0.1974
    157  CA        23.8700   28.3890    1.6890 C.3   154  ASP154      0.1709
    158  C         24.2220   27.0390    2.3170 C.2   154  ASP154      0.2293
    159  O         24.8990   26.1880    1.7070 O.2   154  ASP154     -0.2864
    160  CB        23.6360   28.2920    0.1890 C.3   154  ASP154      0.1436
    161  CG        22.5620   27.2830   -0.1690 C.2   154  ASP154      0.3671
    162  OD1       21.8870   26.6930    0.7040 O.co2 154  ASP154     -0.2456
    163  OD2       22.3930   27.0660   -1.3630 O.co2 154  ASP154     -0.2456
@<TRIPOS>BOND
     1   131   129   ar
     2   129   130   ar
     3   129   128    1
     4   121   120   ar
     5   128   127    1
     6   118   117    2
     7    16    15    2
     8    18    17    1
     9   120   122   ar
    10   120   119    1
    11   117   116    1
    12    17    14    1
    13   127   124    1
    14     4     3    2
    15    15    14    1
    16    15    19    1
    17    13    14    1
    18    13    11   am
    19    10    11    1
    20    10     9    1
    21    20    19    2
    22    20    21    1
    23   123   124    1
    24   124   125    1
    25   115   116    1
    26     3     9   am
    27     3     2    1
    28   116   119    1
    29    11    12    2
    30    21    22    2
    31   111   110    2
    32     2     1    1
    33     2     5    1
    34   125   126    2
    35   125   132   am
    36   110   109    1
    37     8     6    1
    38     5     6    1
    39   132   133    1
    40    34    33    1
    41     6     7    1
    42   108   109    1
    43   109   112    1
    44    23    24    1
    45    38    37    2
    46    33    30    1
    47   113   112    1
    48    30    29    1
    49    30    31    1
    50    27    24    1
    51    27    28    1
    52   133   136    1
    53   133   134    1
    54   147   145    1
    55   138   137    2
    56   112   114    1
    57   137   139   am
    58   137   136    1
    59    35    31   am
    60    35    36    1
    61    24    25    1
    62   134   135    2
    63   141   142    1
    64   141   140    1
    65   141   144    1
    66    37    36    1
    67    31    32    2
    68   142   143    2
    69    25    26    2
    70    36    39    1
    71    39    41    1
    72    39    40    1
    73   155   153    1
    74   145   144    1
    75   145   146    1
    76   163   161   ar
    77   153   152    1
    78    99    98    1
    79   104   103    2
    80   161   160    1
    81   161   162   ar
    82    96    97    1
    83    96    95    1
    84   160   157    1
    85    98    97    2
    86    98   100    1
    87   103   102    1
    88    95    94    1
    89   152   154    1
    90   152   149    1
    91   151   150    2
    92   106   105    1
    93   106   107    2
    94    54    55    1
    95    54    53    1
    96   105   102    1
    97   150   149    1
    98   150   156   am
    99   148   149    1
   100   157   156    1
   101   157   158    1
   102   159   158    2
   103   102   101    1
   104   107   101    1
   105    52    53    1
   106    52    51    1
   107    46    43    1
   108   101    92   am
   109    94    91    1
   110    48    51    1
   111    48    49    1
   112    48    47    1
   113    43    44    1
   114    43    42    1
   115    92    91    1
   116    92    93    2
   117    49    50    2
   118    91    90    1
   119    44    45    2
   120    72    70    1
   121    64    62   ar
   122    84    83    2
   123    90    83   am
   124    63    62   ar
   125    79    78    1
   126    62    61    1
   127    83    82    1
   128    70    69    1
   129    69    71    1
   130    69    66    1
   131    77    78    1
   132    77    74    1
   133    78    80    1
   134    76    75    2
   135    61    60    1
   136    65    66    1
   137    66    67    1
   138    82    81    1
   139    82    85    1
   140    75    74    1
   141    75    81   am
   142    74    73    1
   143    60    57    1
   144    85    86    1
   145    88    87   ar
   146    86    87    1
   147    87    89   ar
   148    67    68    2
   149    57    56    1
   150    57    58    1
   151    58    59    2
