@<TRIPOS>MOLECULE
tmp/4alvA00.pdb
 170 158 0 0 0
SMALL
GASTEIGER

@<TRIPOS>ATOM
      1  N        -16.5220   38.0510    4.3440 N.3    12  LEU12      -0.1231
      2  CA       -17.8990   37.8390    4.7410 C.3    12  LEU12       0.1693
      3  C        -18.0560   36.5470    5.4650 C.2    12  LEU12       0.2593
      4  O        -18.9080   36.4480    6.2990 O.2    12  LEU12      -0.2718
      5  CB       -18.8590   37.9530    3.5700 C.3    12  LEU12       0.0284
      6  CG       -18.8140   39.3720    2.9790 C.3    12  LEU12       0.0019
      7  CD1      -19.6410   39.5280    1.7070 C.3    12  LEU12       0.0001
      8  CD2      -19.2320   40.4100    4.0100 C.3    12  LEU12       0.0001
      9  N        -17.2310   35.5560    5.2190 N.am   13  GLY13      -0.1942
     10  CA       -17.4550   34.2870    5.8940 C.3    13  GLY13       0.2014
     11  C        -16.6930   33.2280    5.1830 C.2    13  GLY13       0.2639
     12  O        -16.1770   33.4550    4.0910 O.2    13  GLY13      -0.2714
     13  N        -16.5820   32.0760    5.8070 N.am   14  SER14      -0.1949
     14  CA       -15.7550   31.0350    5.2390 C.3    14  SER14       0.1924
     15  C        -16.2020   29.6900    5.7420 C.2    14  SER14       0.2314
     16  O        -17.1780   29.6010    6.4760 O.2    14  SER14      -0.2863
     17  CB       -14.2700   31.2500    5.5860 C.3    14  SER14       0.2116
     18  OG       -13.9560   30.8020    6.9060 O.3    14  SER14      -0.2180
     19  N        -16.9630   25.6630    2.2770 N.3    17  PHE17      -0.1241
     20  CA       -17.2150   26.3940    1.0150 C.3    17  PHE17       0.1605
     21  C        -16.0150   27.1850    0.5020 C.2    17  PHE17       0.2264
     22  O        -15.8720   27.3510   -0.6990 O.2    17  PHE17      -0.2867
     23  CB       -18.4460   27.3490    1.1020 C.3    17  PHE17       0.0534
     24  CG       -18.6860   27.9920    2.4820 C.ar   17  PHE17      -0.0203
     25  CD1      -19.2500   27.2350    3.5590 C.ar   17  PHE17      -0.0042
     26  CD2      -18.4260   29.3450    2.6860 C.ar   17  PHE17      -0.0042
     27  CE1      -19.4960   27.8090    4.8100 C.ar   17  PHE17      -0.0003
     28  CE2      -18.6890   29.9300    3.9410 C.ar   17  PHE17      -0.0003
     29  CZ       -19.2230   29.1520    4.9970 C.ar   17  PHE17      -0.0000
     30  N        -15.4230   34.1730    1.3450 N.3    20  VAL20      -0.1245
     31  CA       -16.1260   35.1670    0.5370 C.3    20  VAL20       0.1561
     32  C        -15.9760   36.5880    1.0720 C.2    20  VAL20       0.2260
     33  O        -16.0730   36.8180    2.2710 O.2    20  VAL20      -0.2867
     34  CB       -17.6260   34.7820    0.3880 C.3    20  VAL20       0.0252
     35  CG1      -18.3400   35.6630   -0.6220 C.3    20  VAL20       0.0019
     36  CG2      -17.8000   33.2860    0.1240 C.3    20  VAL20       0.0019
     37  N        -19.3030   40.0390   -4.8250 N.3    33  ALA33      -0.1245
     38  CA       -18.7230   39.1600   -3.8070 C.3    33  ALA33       0.1562
     39  C        -17.6310   38.3800   -4.4860 C.2    33  ALA33       0.2260
     40  O        -17.7690   37.9920   -5.6390 O.2    33  ALA33      -0.2867
     41  CB       -19.7580   38.2340   -3.2020 C.3    33  ALA33       0.0290
     42  N        -15.3840   35.1720   -4.1940 N.3    35  LYS35      -0.1245
     43  CA       -15.3890   33.9310   -3.4670 C.3    35  LYS35       0.1561
     44  C        -14.1800   33.1200   -3.8770 C.2    35  LYS35       0.2260
     45  O        -14.0220   32.7950   -5.0380 O.2    35  LYS35      -0.2867
     46  CB       -16.6540   33.1480   -3.7870 C.3    35  LYS35       0.0271
     47  CG       -16.6830   31.7700   -3.1540 C.3    35  LYS35       0.0035
     48  CD       -17.9370   31.0090   -3.5270 C.3    35  LYS35       0.0206
     49  CE       -18.1960   29.8570   -2.5310 C.3    35  LYS35       0.1093
     50  NZ       -19.4470   29.1040   -2.8010 N.3    35  LYS35      -0.1314
     51  N        -28.3860   33.7390   -7.1580 N.3    72  ILE72      -0.1245
     52  CA       -27.2680   34.6610   -7.3180 C.3    72  ILE72       0.1561
     53  C        -26.6910   34.6140   -8.7340 C.2    72  ILE72       0.2260
     54  O        -26.6490   33.5620   -9.3690 O.2    72  ILE72      -0.2867
     55  CB       -26.1230   34.4830   -6.2500 C.3    72  ILE72       0.0252
     56  CG1      -25.4690   35.8160   -5.8720 C.3    72  ILE72       0.0019
     57  CG2      -25.1780   33.3520   -6.6480 C.3    72  ILE72       0.0019
     58  CD1      -26.3160   36.6520   -4.9340 C.3    72  ILE72       0.0001
     59  N        -19.4570   37.3520   -7.8510 N.3    88  LEU88      -0.1231
     60  CA       -20.8760   37.1610   -7.7770 C.3    88  LEU88       0.1693
     61  C        -21.5150   38.4650   -7.5030 C.2    88  LEU88       0.2592
     62  O        -20.9020   39.3320   -6.9070 O.2    88  LEU88      -0.2718
     63  CB       -21.1900   36.2020   -6.6350 C.3    88  LEU88       0.0284
     64  CG       -20.7050   34.7760   -6.9170 C.3    88  LEU88       0.0019
     65  CD1      -20.5730   33.9750   -5.6560 C.3    88  LEU88       0.0001
     66  CD2      -21.6640   34.1360   -7.8620 C.3    88  LEU88       0.0001
     67  N        -22.7620   38.6190   -7.9150 N.am   89  GLU89      -0.1966
     68  CA       -23.4660   39.8390   -7.5420 C.3    89  GLU89       0.1733
     69  C        -23.6250   39.9140   -6.0350 C.2    89  GLU89       0.2616
     70  O        -23.7940   38.9180   -5.3610 O.2    89  GLU89      -0.2715
     71  CB       -24.8210   39.9690   -8.2510 C.3    89  GLU89       0.0429
     72  CG       -25.8240   38.8640   -7.9440 C.3    89  GLU89       0.1163
     73  CD       -27.3060   39.2470   -8.2530 C.2    89  GLU89       0.3649
     74  OE1      -27.8420   40.2330   -7.6520 O.co2  89  GLU89      -0.2457
     75  OE2      -27.9290   38.5480   -9.0920 O.co2  89  GLU89      -0.2457
     76  N        -23.5070   41.1100   -5.5050 N.am   90  ARG90      -0.1977
     77  CA       -23.9030   41.3670   -4.1300 C.3    90  ARG90       0.1597
     78  C        -25.0440   42.3740   -4.1410 C.2    90  ARG90       0.2287
     79  O        -24.9470   43.4170   -4.8010 O.2    90  ARG90      -0.2864
     80  CB       -22.7470   41.9160   -3.3010 C.3    90  ARG90       0.0334
     81  CG       -23.1290   42.2090   -1.8390 C.3    90  ARG90       0.0492
     82  CD       -21.8650   42.2970   -0.9200 C.3    90  ARG90       0.2205
     83  NE       -20.8370   43.1030   -1.5830 N.pl3  90  ARG90      -0.0865
     84  CZ       -20.7570   44.4260   -1.5090 C.cat  90  ARG90       0.5346
     85  NH1      -21.6030   45.1170   -0.7370 N.pl3  90  ARG90       0.1354
     86  NH2      -19.8080   45.0500   -2.2070 N.pl3  90  ARG90       0.1354
     87  N        -28.1070   43.5300    2.8020 N.3    94  VAL94      -0.1245
     88  CA       -28.3770   42.1050    2.6770 C.3    94  VAL94       0.1561
     89  C        -28.1920   41.3830    3.9960 C.2    94  VAL94       0.2260
     90  O        -27.3030   41.7070    4.7590 O.2    94  VAL94      -0.2867
     91  CB       -27.3890   41.4460    1.7030 C.3    94  VAL94       0.0252
     92  CG1      -26.0320   41.2130    2.3680 C.3    94  VAL94       0.0019
     93  CG2      -27.9520   40.1150    1.2040 C.3    94  VAL94       0.0019
     94  N        -28.5390   37.1260    5.6120 N.3    96  ASP96      -0.1239
     95  CA       -29.0030   35.7920    5.2830 C.3    96  ASP96       0.1674
     96  C        -30.0850   35.3070    6.2560 C.2    96  ASP96       0.2266
     97  O        -30.2080   35.8200    7.3670 O.2    96  ASP96      -0.2867
     98  CB       -27.8530   34.8080    5.0900 C.3    96  ASP96       0.1410
     99  CG       -27.1490   34.4670    6.3590 C.2    96  ASP96       0.3668
    100  OD1      -27.8600   34.3550    7.3910 O.co2  96  ASP96      -0.2456
    101  OD2      -25.8900   34.2870    6.2890 O.co2  96  ASP96      -0.2456
    102  N        -30.6840   32.7420    8.0490 N.3    98  PHE98      -0.1227
    103  CA       -30.2330   32.2930    9.3440 C.3    98  PHE98       0.1736
    104  C        -30.0720   33.4390   10.3210 C.2    98  PHE98       0.2595
    105  O        -30.5930   33.4090   11.4260 O.2    98  PHE98      -0.2718
    106  CB       -28.8890   31.6250    9.1630 C.3    98  PHE98       0.0547
    107  CG       -28.3320   31.1120   10.4030 C.ar   98  PHE98      -0.0202
    108  CD1      -27.6290   31.9560   11.2480 C.ar   98  PHE98      -0.0042
    109  CD2      -28.5120   29.7690   10.7520 C.ar   98  PHE98      -0.0042
    110  CE1      -27.0940   31.4660   12.4300 C.ar   98  PHE98      -0.0003
    111  CE2      -27.9820   29.2650   11.9080 C.ar   98  PHE98      -0.0003
    112  CZ       -27.2640   30.1130   12.7580 C.ar   98  PHE98      -0.0000
    113  N        -29.3130   34.4470    9.9170 N.am   99  ASP99      -0.1974
    114  CA       -29.1050   35.6220   10.7620 C.3    99  ASP99       0.1709
    115  C        -30.4190   36.3650   11.0530 C.2    99  ASP99       0.2293
    116  O        -30.7340   36.7170   12.1980 O.2    99  ASP99      -0.2864
    117  CB       -28.0740   36.5340   10.1120 C.3    99  ASP99       0.1436
    118  CG       -26.6850   35.9290   10.1370 C.2    99  ASP99       0.3671
    119  OD1      -26.3510   35.1550   11.0720 O.co2  99  ASP99      -0.2456
    120  OD2      -25.9320   36.2170    9.1940 O.co2  99  ASP99      -0.2456
    121  N        -30.7370   25.6950    2.6530 N.3   137  LYS137     -0.1245
    122  CA       -30.8760   25.8840    4.1050 C.3   137  LYS137      0.1561
    123  C        -30.7590   27.3690    4.3970 C.2   137  LYS137      0.2260
    124  O        -30.2240   28.0830    3.5830 O.2   137  LYS137     -0.2867
    125  CB       -29.8130   25.1070    4.8910 C.3   137  LYS137      0.0271
    126  CG       -28.4260   25.2910    4.3470 C.3   137  LYS137      0.0035
    127  CD       -27.3840   25.0570    5.3810 C.3   137  LYS137      0.0206
    128  CE       -26.0180   25.1940    4.7260 C.3   137  LYS137      0.1093
    129  NZ       -24.9450   24.5760    5.5230 N.3   137  LYS137     -0.1314
    130  N        -28.8630   29.5000    5.8030 N.3   139  GLU139     -0.1231
    131  CA       -27.5730   30.1800    5.5290 C.3   139  GLU139      0.1699
    132  C        -27.3390   30.4740    4.0720 C.2   139  GLU139      0.2592
    133  O        -26.6460   31.4020    3.7660 O.2   139  GLU139     -0.2718
    134  CB       -26.3730   29.3060    5.9130 C.3   139  GLU139      0.0402
    135  CG       -26.2210   28.9440    7.3870 C.3   139  GLU139      0.1161
    136  CD       -25.0940   27.9040    7.6340 C.2   139  GLU139      0.3649
    137  OE1      -24.0200   27.9850    6.9660 O.co2 139  GLU139     -0.2457
    138  OE2      -25.3050   27.0030    8.4860 O.co2 139  GLU139     -0.2457
    139  N        -27.8420   29.6170    3.1940 N.am  140  ASN140     -0.1974
    140  CA       -27.6300   29.7370    1.7520 C.3   140  ASN140      0.1688
    141  C        -28.7560   30.4840    1.0190 C.2   140  ASN140      0.2292
    142  O        -28.9000   30.3910   -0.1920 O.2   140  ASN140     -0.2864
    143  CB       -27.4390   28.3460    1.1350 C.3   140  ASN140      0.1181
    144  CG       -26.1110   27.6980    1.5430 C.2   140  ASN140      0.2629
    145  OD1      -25.1110   28.4160    1.7660 O.2   140  ASN140     -0.2716
    146  ND2      -26.0910   26.3270    1.6530 N.am  140  ASN140     -0.0877
    147  N        -30.0690   34.4520    0.7080 N.3   142  LEU142     -0.1245
    148  CA       -29.8180   35.8380    1.0570 C.3   142  LEU142      0.1561
    149  C        -31.1090   36.5850    0.9200 C.2   142  LEU142      0.2260
    150  O        -31.8610   36.3210   -0.0200 O.2   142  LEU142     -0.2867
    151  CB       -28.7740   36.4920    0.1170 C.3   142  LEU142      0.0270
    152  CG       -27.3370   35.9710    0.2220 C.3   142  LEU142      0.0019
    153  CD1      -26.3730   36.6570   -0.7170 C.3   142  LEU142      0.0001
    154  CD2      -26.8520   36.0750    1.6240 C.3   142  LEU142      0.0001
    155  N        -27.8110   30.8990   -2.7860 N.3   153  ILE153     -0.1231
    156  CA       -26.3330   30.9560   -2.9980 C.3   153  ILE153      0.1692
    157  C        -25.6470   29.6570   -2.6820 C.2   153  ILE153      0.2592
    158  O        -26.2230   28.8030   -2.0460 O.2   153  ILE153     -0.2718
    159  CB       -25.6330   32.0110   -2.1190 C.3   153  ILE153      0.0266
    160  CG1      -25.9660   31.7270   -0.6640 C.3   153  ILE153      0.0019
    161  CG2      -26.0180   33.4290   -2.5190 C.3   153  ILE153      0.0020
    162  CD1      -25.2200   32.5400    0.3360 C.3   153  ILE153      0.0001
    163  N        -24.3970   29.5330   -3.1190 N.am  154  ASP154     -0.1974
    164  CA       -23.5280   28.3930   -2.7780 C.3   154  ASP154      0.1709
    165  C        -23.9870   27.1090   -3.3970 C.2   154  ASP154      0.2293
    166  O        -24.6650   26.3180   -2.7540 O.2   154  ASP154     -0.2864
    167  CB       -23.4240   28.1770   -1.2700 C.3   154  ASP154      0.1436
    168  CG       -22.2410   27.2760   -0.8700 C.2   154  ASP154      0.3671
    169  OD1      -21.4300   26.8910   -1.7270 O.co2 154  ASP154     -0.2456
    170  OD2      -22.1050   26.9690    0.3360 O.co2 154  ASP154     -0.2456
@<TRIPOS>BOND
     1    54    53    2
     2    75    73   ar
     3    53    52    1
     4    73    72    1
     5    73    74   ar
     6    71    72    1
     7    71    68    1
     8    67    68    1
     9    67    61   am
    10    66    64    1
    11    59    60    1
    12    60    61    1
    13    60    63    1
    14    68    69    1
    15    61    62    2
    16    52    51    1
    17    52    55    1
    18    64    63    1
    19    64    65    1
    20    57    55    1
    21    55    56    1
    22    69    76   am
    23    69    70    2
    24    56    58    1
    25    40    39    2
    26    76    77    1
    27    45    44    2
    28    37    38    1
    29    79    78    2
    30    39    38    1
    31    42    43    1
    32    78    77    1
    33    77    80    1
    34    44    43    1
    35    38    41    1
    36    46    43    1
    37    46    47    1
    38    48    47    1
    39    48    49    1
    40   165   164    1
    41   165   166    2
    42    80    81    1
    43   163   164    1
    44   163   157   am
    45   156   155    1
    46   156   157    1
    47   156   159    1
    48    50    49    1
    49   164   167    1
    50   157   158    2
    51   161   159    1
    52    86    84    1
    53   159   160    1
    54    81    82    1
    55   169   168   ar
    56    83    84    2
    57    83    82    1
    58    84    85    1
    59   167   168    1
    60   168   170   ar
    61   153   152    1
    62    22    21    2
    63   160   162    1
    64    35    34    1
    65   142   141    2
    66   150   149    2
    67   151   152    1
    68   151   148    1
    69    36    34    1
    70   152   154    1
    71    34    31    1
    72    21    20    1
    73    31    32    1
    74    31    30    1
    75   147   148    1
    76   149   148    1
    77    20    23    1
    78    20    19    1
    79   141   140    1
    80    32    33    2
    81    23    24    1
    82   143   144    1
    83   143   140    1
    84    93    91    1
    85   144   146   am
    86   144   145    2
    87    91    92    1
    88    91    88    1
    89     7     6    1
    90   140   139    1
    91    24    26   ar
    92    24    25   ar
    93   121   122    1
    94    88    87    1
    95    88    89    1
    96    26    28   ar
    97     6     5    1
    98     6     8    1
    99   139   132   am
   100    25    27   ar
   101     5     2    1
   102   124   123    2
   103   133   132    2
   104    28    29   ar
   105    89    90    2
   106   132   131    1
   107    12    11    2
   108   122   123    1
   109   122   125    1
   110     1     2    1
   111   126   125    1
   112   126   127    1
   113   128   127    1
   114   128   129    1
   115     2     3    1
   116    27    29   ar
   117    98    95    1
   118    98    99    1
   119    11    13   am
   120    11    10    1
   121     9     3   am
   122     9    10    1
   123    14    17    1
   124    14    15    1
   125    14    13    1
   126    95    94    1
   127    95    96    1
   128     3     4    2
   129   131   130    1
   130   131   134    1
   131    17    18    1
   132    15    16    2
   133   134   135    1
   134    96    97    2
   135   101    99   ar
   136    99   100   ar
   137   137   136   ar
   138   135   136    1
   139   136   138   ar
   140   102   103    1
   141   106   103    1
   142   106   107    1
   143   120   118   ar
   144   103   104    1
   145   113   104   am
   146   113   114    1
   147   117   118    1
   148   117   114    1
   149   118   119   ar
   150   104   105    2
   151   107   109   ar
   152   107   108   ar
   153   109   111   ar
   154   114   115    1
   155   115   116    2
   156   108   110   ar
   157   111   112   ar
   158   110   112   ar
