@<TRIPOS>MOLECULE
tmp/4alwA00.pdb
 161 149 0 0 0
SMALL
GASTEIGER

@<TRIPOS>ATOM
      1  N         17.0890  -38.4440    5.5110 N.3    11  LEU11      -0.1231
      2  CA        18.5020  -38.1990    5.8910 C.3    11  LEU11       0.1693
      3  C         18.6810  -36.8530    6.5560 C.2    11  LEU11       0.2592
      4  O         19.5900  -36.6880    7.3290 O.2    11  LEU11      -0.2718
      5  CB        19.4020  -38.2780    4.6480 C.3    11  LEU11       0.0284
      6  CG        19.4500  -39.6660    3.9990 C.3    11  LEU11       0.0019
      7  CD1       20.1540  -39.6460    2.5970 C.3    11  LEU11       0.0001
      8  CD2       20.2120  -40.6460    4.8900 C.3    11  LEU11       0.0001
      9  N         17.8580  -35.8660    6.2720 N.am   12  GLY12      -0.1957
     10  CA        18.0410  -34.5330    6.8350 C.3    12  GLY12       0.1869
     11  C         16.9550  -33.6100    6.3210 C.2    12  GLY12       0.2309
     12  O         16.3070  -33.9320    5.2750 O.2    12  GLY12      -0.2863
     13  N         15.8680  -25.4750    3.3500 N.3    16  PHE16      -0.1241
     14  CA        15.7380  -25.7310    1.9420 C.3    16  PHE16       0.1605
     15  C         14.5610  -26.6660    1.6090 C.2    16  PHE16       0.2264
     16  O         14.0270  -26.5510    0.5020 O.2    16  PHE16      -0.2867
     17  CB        16.9890  -26.4030    1.4180 C.3    16  PHE16       0.0534
     18  CG        17.1570  -27.7900    1.9210 C.ar   16  PHE16      -0.0203
     19  CD1       17.7890  -28.0120    3.1440 C.ar   16  PHE16      -0.0042
     20  CD2       16.6400  -28.8800    1.1760 C.ar   16  PHE16      -0.0042
     21  CE1       17.9930  -29.3270    3.6270 C.ar   16  PHE16      -0.0003
     22  CE2       16.8140  -30.2230    1.6750 C.ar   16  PHE16      -0.0003
     23  CZ        17.4940  -30.4250    2.8820 C.ar   16  PHE16      -0.0000
     24  N         15.6460  -34.3810    2.5590 N.3    19  VAL19      -0.1245
     25  CA        16.2790  -35.3100    1.7310 C.3    19  VAL19       0.1561
     26  C         16.1820  -36.6680    2.3190 C.2    19  VAL19       0.2260
     27  O         16.2920  -36.8140    3.5770 O.2    19  VAL19      -0.2867
     28  CB        17.8480  -34.9460    1.5440 C.3    19  VAL19       0.0252
     29  CG1       18.3200  -35.3800    0.1580 C.3    19  VAL19       0.0019
     30  CG2       18.0050  -33.5650    1.6890 C.3    19  VAL19       0.0019
     31  N         19.8950  -40.1970   -3.5490 N.3    32  ALA32      -0.1245
     32  CA        19.3620  -39.3980   -2.4510 C.3    32  ALA32       0.1562
     33  C         18.2890  -38.6340   -3.1700 C.2    32  ALA32       0.2260
     34  O         18.4810  -38.2850   -4.3210 O.2    32  ALA32      -0.2867
     35  CB        20.4180  -38.3970   -1.8540 C.3    32  ALA32       0.0290
     36  N         16.1230  -35.3270   -3.0290 N.3    34  LYS34      -0.1245
     37  CA        16.0280  -34.0450   -2.3540 C.3    34  LYS34       0.1561
     38  C         14.8420  -33.2420   -2.8360 C.2    34  LYS34       0.2260
     39  O         14.7230  -32.8990   -4.0620 O.2    34  LYS34      -0.2867
     40  CB        17.3220  -33.2340   -2.6030 C.3    34  LYS34       0.0271
     41  CG        17.2380  -31.8460   -2.0250 C.3    34  LYS34       0.0035
     42  CD        18.6720  -31.1470   -2.2780 C.3    34  LYS34       0.0206
     43  CE        18.9180  -29.9680   -1.3220 C.3    34  LYS34       0.1093
     44  NZ        20.1470  -29.2370   -1.8400 N.3    34  LYS34      -0.1314
     45  N         19.8660  -23.9890   -8.3440 N.3    56  GLU56      -0.1245
     46  CA        20.5640  -25.1910   -7.9070 C.3    56  GLU56       0.1567
     47  C         20.6480  -26.2390   -9.0360 C.2    56  GLU56       0.2260
     48  O         21.6540  -26.9260   -9.2220 O.2    56  GLU56      -0.2867
     49  CB        19.7210  -25.7710   -6.7350 C.3    56  GLU56       0.0388
     50  CG        20.2740  -26.9820   -6.1680 C.3    56  GLU56       0.1160
     51  CD        19.6510  -27.4200   -4.8280 C.2    56  GLU56       0.3649
     52  OE1       18.7400  -26.7790   -4.2490 O.co2  56  GLU56      -0.2457
     53  OE2       20.1070  -28.4840   -4.3380 O.co2  56  GLU56      -0.2457
     54  N         29.0880  -33.7970   -6.3560 N.3    71  ILE71      -0.1245
     55  CA        27.9390  -34.7380   -6.4600 C.3    71  ILE71       0.1561
     56  C         27.3110  -34.6420   -7.8500 C.2    71  ILE71       0.2260
     57  O         27.3230  -33.5350   -8.4950 O.2    71  ILE71      -0.2867
     58  CB        26.7680  -34.5080   -5.4540 C.3    71  ILE71       0.0252
     59  CG1       25.9510  -35.8000   -5.1970 C.3    71  ILE71       0.0019
     60  CG2       25.9180  -33.2410   -5.8250 C.3    71  ILE71       0.0019
     61  CD1       26.8900  -36.8590   -4.4020 C.3    71  ILE71       0.0001
     62  N         19.9870  -37.5630   -6.7110 N.3    87  LEU87      -0.1231
     63  CA        21.3930  -37.3260   -6.6500 C.3    87  LEU87       0.1693
     64  C         22.0250  -38.6310   -6.3610 C.2    87  LEU87       0.2592
     65  O         21.4690  -39.4780   -5.6950 O.2    87  LEU87      -0.2718
     66  CB        21.7630  -36.3500   -5.5060 C.3    87  LEU87       0.0284
     67  CG        21.1640  -34.9950   -5.7120 C.3    87  LEU87       0.0019
     68  CD1       20.7140  -34.3120   -4.4300 C.3    87  LEU87       0.0001
     69  CD2       22.1330  -34.0710   -6.4920 C.3    87  LEU87       0.0001
     70  N         23.2670  -38.7400   -6.8000 N.am   88  GLU88      -0.1966
     71  CA        24.1880  -39.7980   -6.4570 C.3    88  GLU88       0.1733
     72  C         24.2170  -39.9870   -4.9640 C.2    88  GLU88       0.2616
     73  O         24.1800  -39.0230   -4.2140 O.2    88  GLU88      -0.2715
     74  CB        25.5490  -39.2210   -6.9160 C.3    88  GLU88       0.0429
     75  CG        26.6610  -40.0280   -6.6100 C.3    88  GLU88       0.1163
     76  CD        28.0020  -39.4540   -7.1630 C.2    88  GLU88       0.3649
     77  OE1       28.1680  -38.2380   -7.5100 O.co2  88  GLU88      -0.2457
     78  OE2       28.9130  -40.2730   -7.1670 O.co2  88  GLU88      -0.2457
     79  N         24.3770  -41.2200   -4.5130 N.am   89  ARG89      -0.1964
     80  CA        24.5440  -41.4730   -3.1060 C.3    89  ARG89       0.1714
     81  C         25.5960  -42.5080   -2.8770 C.2    89  ARG89       0.2458
     82  O         25.4280  -43.6780   -3.2070 O.2    89  ARG89      -0.2730
     83  CB        23.2960  -41.9130   -2.4080 C.3    89  ARG89       0.0347
     84  CG        23.5270  -42.4670   -1.0220 C.3    89  ARG89       0.0492
     85  CD        22.1110  -42.4700   -0.2110 C.3    89  ARG89       0.2205
     86  NE        21.1860  -43.5730   -0.6950 N.pl3  89  ARG89      -0.0865
     87  CZ        21.3490  -44.8910   -0.4440 C.cat  89  ARG89       0.5346
     88  NH1       22.3190  -45.3570    0.3630 N.pl3  89  ARG89       0.1354
     89  NH2       20.4700  -45.7710   -0.9240 N.pl3  89  ARG89       0.1354
     90  N         26.7270  -42.0710   -2.3340 N.am   90  PRO90      -0.2727
     91  CA        27.8530  -42.9920   -1.9610 C.3    90  PRO90       0.1402
     92  C         27.3810  -43.8740   -0.7720 C.2    90  PRO90       0.2269
     93  O         26.5200  -43.4870    0.0170 O.2    90  PRO90      -0.2865
     94  CB        28.9220  -42.0450   -1.4770 C.3    90  PRO90       0.0296
     95  CG        28.5020  -40.6510   -1.9260 C.3    90  PRO90       0.0237
     96  CD        27.0400  -40.6390   -2.0880 C.3    90  PRO90       0.0939
     97  N         28.5430  -43.7300    3.6120 N.3    93  VAL93      -0.1245
     98  CA        28.9140  -42.3160    3.4870 C.3    93  VAL93       0.1561
     99  C         28.7010  -41.6910    4.8540 C.2    93  VAL93       0.2260
    100  O         27.8680  -42.1640    5.6880 O.2    93  VAL93      -0.2867
    101  CB        28.0270  -41.6240    2.4110 C.3    93  VAL93       0.0252
    102  CG1       26.5870  -41.5810    2.8320 C.3    93  VAL93       0.0019
    103  CG2       28.4890  -40.2190    2.0020 C.3    93  VAL93       0.0019
    104  N         28.3420  -21.9660   -0.0990 N.3   134  ASP134     -0.1239
    105  CA        28.1040  -22.4930    1.2680 C.3   134  ASP134      0.1674
    106  C         29.0740  -23.6270    1.5790 C.2   134  ASP134      0.2266
    107  O         28.7110  -24.7150    2.0270 O.2   134  ASP134     -0.2867
    108  CB        26.6260  -22.9580    1.3440 C.3   134  ASP134      0.1410
    109  CG        26.1320  -23.1080    2.7870 C.2   134  ASP134      0.3668
    110  OD1       26.8050  -22.4720    3.6700 O.co2 134  ASP134     -0.2456
    111  OD2       25.0580  -23.7940    2.9700 O.co2 134  ASP134     -0.2456
    112  N         31.2250  -25.8680    3.6060 N.3   136  LYS136     -0.1245
    113  CA        31.2910  -26.0410    5.0340 C.3   136  LYS136      0.1561
    114  C         31.1880  -27.5500    5.2720 C.2   136  LYS136      0.2260
    115  O         30.8300  -28.3330    4.3400 O.2   136  LYS136     -0.2867
    116  CB        30.1280  -25.3080    5.7430 C.3   136  LYS136      0.0271
    117  CG        28.7510  -25.8350    5.3590 C.3   136  LYS136      0.0035
    118  CD        27.7880  -25.0860    6.2420 C.3   136  LYS136      0.0206
    119  CE        26.4040  -25.3780    5.9560 C.3   136  LYS136      0.1093
    120  NZ        25.7490  -24.7860    7.2580 N.3   136  LYS136     -0.1314
    121  N         29.1220  -29.5890    6.6840 N.3   138  GLU138     -0.1231
    122  CA        27.8650  -30.3120    6.4520 C.3   138  GLU138      0.1699
    123  C         27.5560  -30.4130    4.9500 C.2   138  GLU138      0.2592
    124  O         26.6970  -31.2220    4.5760 O.2   138  GLU138     -0.2718
    125  CB        26.6750  -29.5050    6.9170 C.3   138  GLU138      0.0402
    126  CG        26.5000  -29.2780    8.3220 C.3   138  GLU138      0.1161
    127  CD        25.3490  -28.2610    8.4530 C.2   138  GLU138      0.3649
    128  OE1       24.3150  -28.4780    7.7370 O.co2 138  GLU138     -0.2457
    129  OE2       25.5870  -27.2540    9.1900 O.co2 138  GLU138     -0.2457
    130  N         28.2390  -29.6390    4.1140 N.am  139  ASN139     -0.1974
    131  CA        28.0520  -29.7660    2.6630 C.3   139  ASN139      0.1688
    132  C         29.1930  -30.5490    1.9810 C.2   139  ASN139      0.2292
    133  O         29.4060  -30.4020    0.7710 O.2   139  ASN139     -0.2864
    134  CB        27.9210  -28.4130    2.0320 C.3   139  ASN139      0.1181
    135  CG        26.5750  -27.7920    2.2750 C.2   139  ASN139      0.2629
    136  OD1       25.6130  -28.5410    2.4650 O.2   139  ASN139     -0.2716
    137  ND2       26.4960  -26.4430    2.2980 N.am  139  ASN139     -0.0877
    138  N         30.4990  -34.6830    1.6640 N.3   141  LEU141     -0.1245
    139  CA        30.2440  -36.0790    2.0330 C.3   141  LEU141      0.1561
    140  C         31.5270  -36.8440    1.9270 C.2   141  LEU141      0.2260
    141  O         32.3440  -36.5520    1.0120 O.2   141  LEU141     -0.2867
    142  CB        29.1560  -36.6840    1.1100 C.3   141  LEU141      0.0270
    143  CG        27.7440  -36.1040    1.0850 C.3   141  LEU141      0.0019
    144  CD1       26.9480  -36.9630    0.0600 C.3   141  LEU141      0.0001
    145  CD2       27.2330  -36.1470    2.5420 C.3   141  LEU141      0.0001
    146  N         28.4370  -31.2050   -1.9620 N.3   152  ILE152     -0.1231
    147  CA        27.0150  -31.2960   -2.2370 C.3   152  ILE152      0.1692
    148  C         26.4150  -29.9070   -2.0460 C.2   152  ILE152      0.2592
    149  O         27.0330  -29.0070   -1.4960 O.2   152  ILE152     -0.2718
    150  CB        26.3010  -32.3560   -1.3090 C.3   152  ILE152      0.0266
    151  CG1       26.5340  -32.0880    0.1850 C.3   152  ILE152      0.0019
    152  CG2       26.8410  -33.8380   -1.5660 C.3   152  ILE152      0.0020
    153  CD1       25.4990  -32.7260    1.1420 C.3   152  ILE152      0.0001
    154  N         25.1420  -29.7680   -2.4200 N.am  153  ASP153     -0.1974
    155  CA        24.2790  -28.6510   -2.0260 C.3   153  ASP153      0.1709
    156  C         24.6070  -27.2960   -2.6690 C.2   153  ASP153      0.2293
    157  O         25.2110  -26.3650   -2.0370 O.2   153  ASP153     -0.2864
    158  CB        24.1400  -28.4970   -0.5060 C.3   153  ASP153      0.1436
    159  CG        23.1810  -27.3660   -0.1530 C.2   153  ASP153      0.3671
    160  OD1       22.3570  -26.9930   -1.0330 O.co2 153  ASP153     -0.2456
    161  OD2       23.2300  -26.8190    0.9720 O.co2 153  ASP153     -0.2456
@<TRIPOS>BOND
     1    48    47    2
     2    47    46    1
     3    57    56    2
     4    45    46    1
     5    46    49    1
     6    56    55    1
     7    77    76   ar
     8    78    76   ar
     9    76    75    1
    10    74    75    1
    11    74    71    1
    12    70    71    1
    13    70    64   am
    14    49    50    1
    15    62    63    1
    16    63    64    1
    17    63    66    1
    18    69    67    1
    19    55    54    1
    20    55    58    1
    21    71    72    1
    22    64    65    2
    23    50    51    1
    24    60    58    1
    25    67    66    1
    26    67    68    1
    27    58    59    1
    28    59    61    1
    29    72    79   am
    30    72    73    2
    31    51    53   ar
    32    51    52   ar
    33    79    80    1
    34    34    33    2
    35    39    38    2
    36    31    32    1
    37    82    81    2
    38    33    32    1
    39    80    81    1
    40    80    83    1
    41    36    37    1
    42    81    90   am
    43    38    37    1
    44   156   157    2
    45   156   155    1
    46    40    37    1
    47    40    41    1
    48    32    35    1
    49   154   148   am
    50   154   155    1
    51    83    84    1
    52    90    96    1
    53    90    91    1
    54    42    41    1
    55    42    43    1
    56   147   148    1
    57   147   146    1
    58   147   150    1
    59    96    95    1
    60   148   149    2
    61   155   158    1
    62    91    94    1
    63    91    92    1
    64    95    94    1
    65    44    43    1
    66   152   150    1
    67   150   151    1
    68   160   159   ar
    69    84    85    1
    70    89    87    1
    71    92    93    2
    72    86    87    2
    73    86    85    1
    74   158   159    1
    75    87    88    1
    76   159   161   ar
    77   104   105    1
    78   144   143    1
    79    29    28    1
    80   151   153    1
    81    16    15    2
    82   133   132    2
    83   141   140    2
    84   143   142    1
    85   143   145    1
    86   142   139    1
    87    20    22   ar
    88    20    18   ar
    89   105   108    1
    90   105   106    1
    91   108   109    1
    92    17    18    1
    93    17    14    1
    94    28    30    1
    95    28    25    1
    96   106   107    2
    97    15    14    1
    98   138   139    1
    99    22    23   ar
   100    25    26    1
   101    25    24    1
   102    18    19   ar
   103   140   139    1
   104    14    13    1
   105   132   131    1
   106   103   101    1
   107   134   135    1
   108   134   131    1
   109   135   137   am
   110   135   136    2
   111    26    27    2
   112   101   102    1
   113   101    98    1
   114     7     6    1
   115   131   130    1
   116   109   111   ar
   117   109   110   ar
   118    23    21   ar
   119    19    21   ar
   120    98    97    1
   121    98    99    1
   122   112   113    1
   123     6     5    1
   124     6     8    1
   125   130   123   am
   126   115   114    2
   127   124   123    2
   128     5     2    1
   129    99   100    2
   130   123   122    1
   131   113   114    1
   132   113   116    1
   133    12    11    2
   134   117   116    1
   135   117   118    1
   136     1     2    1
   137     2     3    1
   138   119   118    1
   139   119   120    1
   140     9     3   am
   141     9    10    1
   142    11    10    1
   143   122   121    1
   144   122   125    1
   145     3     4    2
   146   125   126    1
   147   128   127   ar
   148   126   127    1
   149   127   129   ar
