@<TRIPOS>MOLECULE
tmp/4alxF02.pdb
 96 94 0 0 0
SMALL
GASTEIGER

@<TRIPOS>ATOM
      1  N        -10.1270  -44.7140   -5.9300 N.3    34  LYS34      -0.1245
      2  CA       -10.4980  -45.6550   -4.8900 C.3    34  LYS34       0.1561
      3  C        -11.5520  -46.6010   -5.4450 C.2    34  LYS34       0.2260
      4  O        -12.7150  -46.2290   -5.5990 O.2    34  LYS34      -0.2867
      5  CB       -11.0740  -44.9250   -3.6830 C.3    34  LYS34       0.0271
      6  CG       -10.1880  -43.8220   -3.1400 C.3    34  LYS34       0.0035
      7  CD        -8.9060  -44.3530   -2.5100 C.3    34  LYS34       0.0206
      8  CE        -8.1510  -43.2130   -1.8400 C.3    34  LYS34       0.1093
      9  NZ        -7.0180  -43.7280   -1.0440 N.3    34  LYS34      -0.1314
     10  N        -14.2600  -44.0620   -6.5890 N.3    53  TRP53      -0.1241
     11  CA       -14.2790  -42.6930   -6.0820 C.3    53  TRP53       0.1605
     12  C        -13.0260  -41.9960   -6.5560 C.2    53  TRP53       0.2264
     13  O        -11.9300  -42.4380   -6.2210 O.2    53  TRP53      -0.2867
     14  CB       -14.2940  -42.7180   -4.5640 C.3    53  TRP53       0.0550
     15  CG       -15.5330  -43.3350   -4.0040 C.ar   53  TRP53       0.0003
     16  CD1      -16.6880  -43.6310   -4.6790 C.ar   53  TRP53       0.0946
     17  CD2      -15.7530  -43.7290   -2.6410 C.ar   53  TRP53       0.0152
     18  NE1      -17.6230  -44.1810   -3.8080 N.ar   53  TRP53      -0.2442
     19  CE2      -17.0670  -44.2480   -2.5560 C.ar   53  TRP53       0.0810
     20  CE3      -14.9640  -43.7020   -1.4860 C.ar   53  TRP53       0.0012
     21  CZ2      -17.5980  -44.7340   -1.3700 C.ar   53  TRP53       0.0191
     22  CZ3      -15.5060  -44.1670   -0.3030 C.ar   53  TRP53       0.0001
     23  CH2      -16.8050  -44.6780   -0.2570 C.ar   53  TRP53       0.0015
     24  N        -10.6660  -39.3910   -6.1240 N.3    55  GLN55      -0.1245
     25  CA       -10.1440  -38.3870   -5.2120 C.3    55  GLN55       0.1566
     26  C         -9.2940  -37.4040   -5.9880 C.2    55  GLN55       0.2260
     27  O         -8.2760  -37.7800   -6.5580 O.2    55  GLN55      -0.2867
     28  CB        -9.3050  -39.0530   -4.1270 C.3    55  GLN55       0.0367
     29  CG        -8.8070  -38.0980   -3.0560 C.3    55  GLN55       0.0905
     30  CD        -7.9650  -38.8070   -2.0220 C.2    55  GLN55       0.2608
     31  OE1       -8.4880  -39.4560   -1.1130 O.2    55  GLN55      -0.2717
     32  NE2       -6.6480  -38.7010   -2.1640 N.am   55  GLN55      -0.0878
     33  N        -20.6040  -31.7710   -5.4910 N.3   102  LEU102     -0.1231
     34  CA       -20.0930  -30.7770   -4.5670 C.3   102  LEU102      0.1693
     35  C        -18.6300  -31.0220   -4.2690 C.2   102  LEU102      0.2592
     36  O        -18.2010  -32.1700   -4.1310 O.2   102  LEU102     -0.2718
     37  CB       -20.8380  -30.8920   -3.2460 C.3   102  LEU102      0.0284
     38  CG       -22.3470  -30.6290   -3.2580 C.3   102  LEU102      0.0019
     39  CD1      -22.9050  -30.9010   -1.8720 C.3   102  LEU102      0.0001
     40  CD2      -22.6670  -29.1970   -3.6920 C.3   102  LEU102      0.0001
     41  N        -17.8610  -29.9480   -4.1440 N.am  103  ALA103     -0.1966
     42  CA       -16.4830  -30.0840   -3.7020 C.3   103  ALA103      0.1728
     43  C        -16.3720  -29.5250   -2.2910 C.2   103  ALA103      0.2616
     44  O        -17.2340  -28.7660   -1.8340 O.2   103  ALA103     -0.2715
     45  CB       -15.5380  -29.3580   -4.6440 C.3   103  ALA103      0.0334
     46  N        -15.3030  -29.9030   -1.6050 N.am  104  ARG104     -0.1977
     47  CA       -15.0460  -29.4080   -0.2740 C.3   104  ARG104      0.1597
     48  C        -13.8760  -28.4310   -0.3670 C.2   104  ARG104      0.2287
     49  O        -12.8010  -28.7940   -0.8500 O.2   104  ARG104     -0.2864
     50  CB       -14.7050  -30.5850    0.6350 C.3   104  ARG104      0.0334
     51  CG       -14.7400  -30.2640    2.0980 C.3   104  ARG104      0.0492
     52  CD       -16.1470  -29.9640    2.6020 C.3   104  ARG104      0.2205
     53  NE       -16.0710  -29.6680    4.0310 N.pl3 104  ARG104     -0.0865
     54  CZ       -17.0960  -29.2860    4.7850 C.cat 104  ARG104      0.5346
     55  NH1      -18.3100  -29.1400    4.2550 N.pl3 104  ARG104      0.1354
     56  NH2      -16.9060  -29.0400    6.0750 N.pl3 104  ARG104      0.1354
     57  N        -11.0330  -30.2640   -2.5080 N.3   112  LEU112     -0.1231
     58  CA       -11.1780  -31.6970   -2.6670 C.3   112  LEU112      0.1693
     59  C        -12.4970  -31.9830   -3.3680 C.2   112  LEU112      0.2592
     60  O        -13.5610  -31.6120   -2.8750 O.2   112  LEU112     -0.2718
     61  CB       -11.1520  -32.4040   -1.3120 C.3   112  LEU112      0.0284
     62  CG       -11.5980  -33.8720   -1.2800 C.3   112  LEU112      0.0019
     63  CD1      -10.6810  -34.7980   -2.0900 C.3   112  LEU112      0.0001
     64  CD2      -11.7220  -34.3730    0.1640 C.3   112  LEU112      0.0001
     65  N        -12.4080  -32.6330   -4.5190 N.am  113  TYR113     -0.1962
     66  CA       -13.5730  -33.0780   -5.2580 C.3   113  TYR113      0.1771
     67  C        -13.4570  -34.5950   -5.4320 C.2   113  TYR113      0.2619
     68  O        -12.4380  -35.0960   -5.9350 O.2   113  TYR113     -0.2715
     69  CB       -13.5930  -32.3900   -6.6230 C.3   113  TYR113      0.0574
     70  CG       -14.6240  -32.8800   -7.6010 C.ar  113  TYR113     -0.0198
     71  CD1      -15.9630  -32.9550   -7.2500 C.ar  113  TYR113     -0.0009
     72  CD2      -14.2660  -33.2180   -8.8980 C.ar  113  TYR113     -0.0009
     73  CE1      -16.9250  -33.4080   -8.1540 C.ar  113  TYR113      0.0417
     74  CE2      -15.2150  -33.6500   -9.8150 C.ar  113  TYR113      0.0417
     75  CZ       -16.5420  -33.7480   -9.4300 C.ar  113  TYR113      0.1957
     76  OH       -17.4970  -34.1800  -10.3230 O.3   113  TYR113     -0.2866
     77  N        -14.4990  -35.3220   -5.0340 N.am  114  MET114     -0.1977
     78  CA       -14.4500  -36.7780   -5.0550 C.3   114  MET114      0.1605
     79  C        -15.7640  -37.4110   -5.5040 C.2   114  MET114      0.2287
     80  O        -16.5310  -37.9140   -4.6790 O.2   114  MET114     -0.2864
     81  CB       -14.0780  -37.3170   -3.6760 C.3   114  MET114      0.0413
     82  CG       -13.6400  -38.8020   -3.6790 C.3   114  MET114      0.0598
     83  SD       -12.6690  -39.1280   -2.1930 S.3   114  MET114     -0.1393
     84  CE       -12.1360  -40.8120   -2.4460 C.3   114  MET114      0.0692
     85  N        -11.9370  -49.3290    0.2940 N.3   164  TYR164     -0.1241
     86  CA       -13.3990  -49.1800    0.3180 C.3   164  TYR164      0.1605
     87  C        -14.0580  -50.1710   -0.6290 C.2   164  TYR164      0.2264
     88  O        -15.2460  -50.0550   -0.9390 O.2   164  TYR164     -0.2867
     89  CB       -13.8090  -47.7550   -0.0820 C.3   164  TYR164      0.0534
     90  CG       -13.1830  -46.6800    0.7700 C.ar  164  TYR164     -0.0201
     91  CD1      -13.5020  -46.5560    2.1170 C.ar  164  TYR164     -0.0009
     92  CD2      -12.2740  -45.7850    0.2270 C.ar  164  TYR164     -0.0009
     93  CE1      -12.9160  -45.5650    2.9110 C.ar  164  TYR164      0.0417
     94  CE2      -11.6810  -44.7910    1.0060 C.ar  164  TYR164      0.0417
     95  CZ       -12.0050  -44.6860    2.3400 C.ar  164  TYR164      0.1957
     96  OH       -11.4160  -43.6930    3.0860 O.3   164  TYR164     -0.2866
@<TRIPOS>BOND
     1    76    75    1
     2    74    75   ar
     3    74    72   ar
     4    75    73   ar
     5    72    70   ar
     6    73    71   ar
     7    70    71   ar
     8    70    69    1
     9    69    66    1
    10    10    11    1
    11    27    26    2
    12    12    13    2
    13    12    11    1
    14    24    25    1
    15    11    14    1
    16    26    25    1
    17    68    67    2
    18     1     2    1
    19     4     3    2
    20    79    78    1
    21    79    80    2
    22    33    34    1
    23     3     2    1
    24    67    66    1
    25    67    77   am
    26    66    65    1
    27    25    28    1
    28    78    77    1
    29    78    81    1
    30     2     5    1
    31    16    15   ar
    32    16    18   ar
    33    45    42    1
    34    34    35    1
    35    34    37    1
    36    14    15    1
    37    65    59   am
    38    35    41   am
    39    35    36    2
    40    41    42    1
    41    28    29    1
    42    15    17   ar
    43    18    19   ar
    44    42    43    1
    45    40    38    1
    46     5     6    1
    47    82    81    1
    48    82    83    1
    49    59    60    2
    50    59    58    1
    51    38    37    1
    52    38    39    1
    53     6     7    1
    54    29    30    1
    55    58    57    1
    56    58    61    1
    57    17    19   ar
    58    17    20   ar
    59    19    21   ar
    60     7     8    1
    61    84    83    1
    62    43    44    2
    63    43    46   am
    64    32    30   am
    65    63    62    1
    66    30    31    2
    67     8     9    1
    68    46    47    1
    69    20    22   ar
    70    21    23   ar
    71    61    62    1
    72    62    64    1
    73    88    87    2
    74    49    48    2
    75    87    86    1
    76    48    47    1
    77    22    23   ar
    78    47    50    1
    79    89    86    1
    80    89    90    1
    81    92    90   ar
    82    92    94   ar
    83    85    86    1
    84    50    51    1
    85    90    91   ar
    86    94    95   ar
    87    51    52    1
    88    91    93   ar
    89    95    93   ar
    90    95    96    1
    91    52    53    1
    92    53    54    2
    93    55    54    1
    94    54    56    1
