@<TRIPOS>MOLECULE
tmp/4alxB02.pdb
 118 111 0 0 0
SMALL
GASTEIGER

@<TRIPOS>ATOM
      1  N        -35.8550   27.6820  -30.2210 N.3    52  PHE52      -0.1241
      2  CA       -35.9700   27.2630  -31.6140 C.3    52  PHE52       0.1605
      3  C        -36.3070   25.7820  -31.7400 C.2    52  PHE52       0.2264
      4  O        -36.0170   24.9950  -30.8380 O.2    52  PHE52      -0.2867
      5  CB       -34.6800   27.5860  -32.3880 C.3    52  PHE52       0.0534
      6  CG       -33.4480   26.9350  -31.8110 C.ar   52  PHE52      -0.0203
      7  CD1      -33.0570   25.6620  -32.2130 C.ar   52  PHE52      -0.0042
      8  CD2      -32.6990   27.5880  -30.8460 C.ar   52  PHE52      -0.0042
      9  CE1      -31.9360   25.0670  -31.6670 C.ar   52  PHE52      -0.0003
     10  CE2      -31.5790   27.0020  -30.2940 C.ar   52  PHE52      -0.0003
     11  CZ       -31.1900   25.7380  -30.7090 C.ar   52  PHE52      -0.0000
     12  N        -35.3160   22.5630  -33.6760 N.3    54  GLN54      -0.1245
     13  CA       -34.1890   22.0860  -34.4600 C.3    54  GLN54       0.1566
     14  C        -34.5820   20.9380  -35.3750 C.2    54  GLN54       0.2260
     15  O        -34.5260   19.7790  -34.9940 O.2    54  GLN54      -0.2867
     16  CB       -33.0480   21.6540  -33.5510 C.3    54  GLN54       0.0367
     17  CG       -31.7630   21.3000  -34.2970 C.3    54  GLN54       0.0905
     18  CD       -30.7330   20.7030  -33.3830 C.2    54  GLN54       0.2608
     19  OE1      -30.1280   21.4090  -32.5850 O.2    54  GLN54      -0.2717
     20  NE2      -30.5390   19.3920  -33.4750 N.am   54  GLN54      -0.0878
     21  N        -24.5190   13.7230  -33.1700 N.3    85  ASP85      -0.1225
     22  CA       -23.9970   14.4020  -31.9950 C.3    85  ASP85       0.1805
     23  C        -23.7750   15.8890  -32.3040 C.2    85  ASP85       0.2598
     24  O        -22.6610   16.3970  -32.1700 O.2    85  ASP85      -0.2718
     25  CB       -22.6900   13.7600  -31.5530 C.3    85  ASP85       0.1424
     26  CG       -21.6000   13.8670  -32.6240 C.2    85  ASP85       0.3668
     27  OD1      -21.9390   13.9290  -33.8300 O.co2  85  ASP85      -0.2456
     28  OD2      -20.4070   13.9270  -32.2600 O.co2  85  ASP85      -0.2456
     29  N        -24.8320   16.5700  -32.7430 N.am   86  LEU86      -0.1966
     30  CA       -24.7360   17.9860  -33.0940 C.3    86  LEU86       0.1728
     31  C        -24.5030   18.8420  -31.8580 C.2    86  LEU86       0.2616
     32  O        -25.0300   18.5470  -30.7870 O.2    86  LEU86      -0.2715
     33  CB       -26.0310   18.4350  -33.7570 C.3    86  LEU86       0.0311
     34  CG       -26.3750   17.7340  -35.0770 C.3    86  LEU86       0.0022
     35  CD1      -27.6350   18.3420  -35.6650 C.3    86  LEU86       0.0001
     36  CD2      -25.2000   17.8410  -36.0720 C.3    86  LEU86       0.0001
     37  N        -23.7060   19.8990  -32.0070 N.am   87  ALA87      -0.1963
     38  CA       -23.5580   20.9000  -30.9460 C.3    87  ALA87       0.1728
     39  C        -23.5770   22.3000  -31.5250 C.2    87  ALA87       0.2616
     40  O        -23.2030   22.5150  -32.6810 O.2    87  ALA87      -0.2715
     41  CB       -22.2740   20.6660  -30.1340 C.3    87  ALA87       0.0334
     42  N        -24.0340   23.2540  -30.7280 N.am   88  ALA88      -0.1977
     43  CA       -23.9100   24.6590  -31.0890 C.3    88  ALA88       0.1597
     44  C        -22.5740   25.1630  -30.5660 C.2    88  ALA88       0.2287
     45  O        -22.3870   25.2930  -29.3690 O.2    88  ALA88      -0.2864
     46  CB       -25.0310   25.4440  -30.4790 C.3    88  ALA88       0.0319
     47  N        -22.5860   28.2010  -28.1280 N.3    91  ALA91      -0.1245
     48  CA       -23.5650   28.1430  -27.0420 C.3    91  ALA91       0.1562
     49  C        -22.8730   28.4030  -25.7150 C.2    91  ALA91       0.2260
     50  O        -21.7500   27.9970  -25.5240 O.2    91  ALA91      -0.2867
     51  CB       -24.2310   26.7890  -27.0090 C.3    91  ALA91       0.0290
     52  N        -26.3130   25.0570  -21.4080 N.3    94  LYS94      -0.1231
     53  CA       -26.7980   23.7420  -21.7770 C.3    94  LYS94       0.1678
     54  C        -28.0850   23.8810  -22.5940 C.2    94  LYS94       0.2434
     55  O        -28.9290   24.7070  -22.2780 O.2    94  LYS94      -0.2733
     56  CB       -27.0950   22.9490  -20.5080 C.3    94  LYS94       0.0284
     57  CG       -26.3140   21.6540  -20.3480 C.3    94  LYS94       0.0035
     58  CD       -26.3950   21.1570  -18.9050 C.3    94  LYS94       0.0206
     59  CE       -26.5820   19.6440  -18.8330 C.3    94  LYS94       0.1093
     60  NZ       -25.4520   18.8800  -19.4330 N.3    94  LYS94      -0.1314
     61  N        -28.2330   23.0800  -23.6550 N.am   95  PRO95      -0.2729
     62  CA       -29.5120   23.1030  -24.3630 C.3    95  PRO95       0.1401
     63  C        -30.6430   22.5450  -23.4840 C.2    95  PRO95       0.2269
     64  O        -30.5600   21.4250  -23.0230 O.2    95  PRO95      -0.2865
     65  CB       -29.2720   22.1890  -25.5620 C.3    95  PRO95       0.0296
     66  CG       -28.0980   21.3310  -25.1760 C.3    95  PRO95       0.0237
     67  CD       -27.2630   22.1490  -24.2620 C.3    95  PRO95       0.0939
     68  N        -34.1370   21.1240  -23.4390 N.3    97  VAL97      -0.1245
     69  CA       -35.1210   20.5360  -24.3240 C.3    97  VAL97       0.1561
     70  C        -36.5280   20.6420  -23.7100 C.2    97  VAL97       0.2260
     71  O        -36.7530   20.2220  -22.5860 O.2    97  VAL97      -0.2867
     72  CB       -34.7860   19.0630  -24.6420 C.3    97  VAL97       0.0252
     73  CG1      -35.8750   18.4430  -25.5300 C.3    97  VAL97       0.0019
     74  CG2      -33.4440   18.9770  -25.3280 C.3    97  VAL97       0.0019
     75  N        -36.1630   14.1840  -36.2830 N.3   113  TYR113     -0.1241
     76  CA       -36.1000   14.5300  -34.8830 C.3   113  TYR113      0.1605
     77  C        -36.1500   16.0640  -34.8030 C.2   113  TYR113      0.2264
     78  O        -35.3800   16.7430  -35.4780 O.2   113  TYR113     -0.2867
     79  CB       -34.8100   13.9570  -34.2770 C.3   113  TYR113      0.0534
     80  CG       -34.4940   14.4110  -32.8710 C.ar  113  TYR113     -0.0201
     81  CD1      -35.4370   14.3160  -31.8550 C.ar  113  TYR113     -0.0009
     82  CD2      -33.2320   14.9070  -32.5510 C.ar  113  TYR113     -0.0009
     83  CE1      -35.1400   14.7280  -30.5730 C.ar  113  TYR113      0.0417
     84  CE2      -32.9160   15.3170  -31.2540 C.ar  113  TYR113      0.0417
     85  CZ       -33.8820   15.2310  -30.2770 C.ar  113  TYR113      0.1957
     86  OH       -33.5700   15.6310  -28.9910 O.3   113  TYR113     -0.2866
     87  N        -36.5250   18.6280  -31.6990 N.3   115  PRO115     -0.2116
     88  CA       -36.7600   19.1100  -30.3410 C.3   115  PRO115      0.1372
     89  C        -36.9410   20.6290  -30.2960 C.2   115  PRO115      0.2244
     90  O        -36.3480   21.3620  -31.1000 O.2   115  PRO115     -0.2868
     91  CB       -35.4740   18.7100  -29.6120 C.3   115  PRO115      0.0268
     92  CG       -34.4420   18.7260  -30.6710 C.3   115  PRO115      0.0207
     93  CD       -35.1250   18.2490  -31.9240 C.3   115  PRO115      0.0892
     94  N        -35.8280   23.7560  -28.3220 N.3   117  ILE117     -0.1245
     95  CA       -34.6700   24.0190  -27.4780 C.3   117  ILE117      0.1561
     96  C        -34.6350   25.4740  -27.0370 C.2   117  ILE117      0.2260
     97  O        -34.8490   26.3880  -27.8390 O.2   117  ILE117     -0.2867
     98  CB       -33.3550   23.6430  -28.2290 C.3   117  ILE117      0.0252
     99  CG1      -33.3190   22.1160  -28.4420 C.3   117  ILE117      0.0019
    100  CG2      -32.1200   24.0830  -27.4600 C.3   117  ILE117      0.0019
    101  CD1      -32.1610   21.6440  -29.2660 C.3   117  ILE117      0.0001
    102  N        -31.8520   27.9810  -25.4150 N.3   119  GLN119     -0.1245
    103  CA       -30.4000   27.9840  -25.2350 C.3   119  GLN119      0.1566
    104  C        -29.8360   29.3970  -25.3810 C.2   119  GLN119      0.2260
    105  O        -30.3720   30.2380  -26.1040 O.2   119  GLN119     -0.2867
    106  CB       -29.7450   27.0290  -26.2440 C.3   119  GLN119      0.0367
    107  CG       -28.3000   26.7460  -25.9920 C.3   119  GLN119      0.0905
    108  CD       -27.7880   25.5420  -26.7770 C.2   119  GLN119      0.2608
    109  OE1      -28.2540   25.2500  -27.8800 O.2   119  GLN119     -0.2717
    110  NE2      -26.8290   24.8320  -26.1980 N.am  119  GLN119     -0.0878
    111  N        -23.6640   25.2820  -35.9050 N.3   140  ILE140     -0.1245
    112  CA       -24.0510   23.9410  -35.4920 C.3   140  ILE140      0.1561
    113  C        -23.3900   22.8870  -36.3600 C.2   140  ILE140      0.2260
    114  O        -23.4490   22.9470  -37.5850 O.2   140  ILE140     -0.2867
    115  CB       -25.5730   23.7760  -35.5460 C.3   140  ILE140      0.0252
    116  CG1      -26.2080   24.6520  -34.4620 C.3   140  ILE140      0.0019
    117  CG2      -25.9700   22.3210  -35.3310 C.3   140  ILE140      0.0019
    118  CD1      -27.7150   24.6160  -34.4600 C.3   140  ILE140      0.0001
@<TRIPOS>BOND
     1   114   113    2
     2   113   112    1
     3    75    76    1
     4    36    34    1
     5   111   112    1
     6    35    34    1
     7   115   112    1
     8   115   117    1
     9   115   116    1
    10    78    77    2
    11    14    15    2
    12    14    13    1
    13    34    33    1
    14    76    77    1
    15    76    79    1
    16   116   118    1
    17    13    12    1
    18    13    16    1
    19    17    16    1
    20    17    18    1
    21    79    80    1
    22    27    26   ar
    23    33    30    1
    24    20    18   am
    25    18    19    2
    26    21    22    1
    27    30    29    1
    28    30    31    1
    29    80    82   ar
    30    80    81   ar
    31    29    23   am
    32    40    39    2
    33    26    28   ar
    34    26    25    1
    35    82    84   ar
    36     5     6    1
    37     5     2    1
    38    23    24    2
    39    23    22    1
    40     7     6   ar
    41     7     9   ar
    42    37    31   am
    43    37    38    1
    44    22    25    1
    45    93    87    1
    46    93    92    1
    47    31    32    2
    48    81    83   ar
    49     6     8   ar
    50     3     2    1
    51     3     4    2
    52    87    88    1
    53     9    11   ar
    54     2     1    1
    55    39    38    1
    56    39    42   am
    57    84    85   ar
    58    90    89    2
    59    43    42    1
    60    43    44    1
    61    43    46    1
    62    38    41    1
    63     8    10   ar
    64    11    10   ar
    65    92    91    1
    66    83    85   ar
    67    44    45    2
    68    88    89    1
    69    88    91    1
    70    85    86    1
    71   101    99    1
    72    99    98    1
    73    94    95    1
    74    98    95    1
    75    98   100    1
    76    47    48    1
    77   109   108    2
    78    97    96    2
    79    95    96    1
    80    48    51    1
    81    48    49    1
    82   108   110   am
    83   108   107    1
    84   106   107    1
    85   106   103    1
    86   105   104    2
    87    49    50    2
    88    65    66    1
    89    65    62    1
    90    73    72    1
    91   102   103    1
    92   104   103    1
    93    74    72    1
    94    66    67    1
    95    72    69    1
    96    62    61    1
    97    62    63    1
    98    69    70    1
    99    69    68    1
   100    67    61    1
   101    70    71    2
   102    61    54   am
   103    63    64    2
   104    54    55    2
   105    54    53    1
   106    53    52    1
   107    53    56    1
   108    56    57    1
   109    57    58    1
   110    60    59    1
   111    58    59    1
