@<TRIPOS>MOLECULE
tmp/4am5B00.pdb
 95 88 0 0 0
SMALL
GASTEIGER

@<TRIPOS>ATOM
      1  N         -6.5080   -8.7310   49.0510 N.3    19  LEU19      -0.1245
      2  CA        -6.4440   -8.6000   47.6080 C.3    19  LEU19       0.1561
      3  C         -5.1350   -9.1960   47.0290 C.2    19  LEU19       0.2260
      4  O         -5.0980   -9.7640   45.9220 O.2    19  LEU19      -0.2867
      5  CB        -6.5270   -7.1070   47.1530 C.3    19  LEU19       0.0270
      6  CG        -7.9030   -6.4710   47.5600 C.3    19  LEU19       0.0019
      7  CD1       -7.7810   -4.9370   47.4230 C.3    19  LEU19       0.0001
      8  CD2       -8.9860   -7.0520   46.5780 C.3    19  LEU19       0.0001
      9  N         -5.5910  -12.9920   47.0850 N.3    22  VAL22      -0.1231
     10  CA        -6.4590  -13.4650   46.0280 C.3    22  VAL22       0.1692
     11  C         -5.6280  -13.5900   44.7260 C.2    22  VAL22       0.2592
     12  O         -5.6880  -14.6360   44.0290 O.2    22  VAL22      -0.2718
     13  CB        -7.5700  -12.4030   45.7940 C.3    22  VAL22       0.0266
     14  CG1       -8.2880  -12.7660   44.4610 C.3    22  VAL22       0.0020
     15  CG2       -8.6270  -12.4610   46.9100 C.3    22  VAL22       0.0020
     16  N         -4.9310  -12.5070   44.3550 N.am   23  SER23      -0.1952
     17  CA        -4.2210  -12.5410   43.0710 C.3    23  SER23       0.1924
     18  C         -3.0040  -13.4740   43.0960 C.2    23  SER23       0.2314
     19  O         -2.6930  -14.1130   42.0770 O.2    23  SER23      -0.2863
     20  CB        -3.7650  -11.1090   42.6740 C.3    23  SER23       0.2116
     21  OG        -4.9230  -10.4080   42.2080 O.3    23  SER23      -0.2180
     22  N         -4.4140  -16.8880   42.8360 N.3    26  TRP26      -0.1241
     23  CA        -5.0200  -17.2110   41.5150 C.3    26  TRP26       0.1605
     24  C         -3.9100  -17.3890   40.4420 C.2    26  TRP26       0.2264
     25  O         -3.9900  -18.2970   39.6070 O.2    26  TRP26      -0.2867
     26  CB        -5.9500  -16.0130   41.0820 C.3    26  TRP26       0.0550
     27  CG        -6.8450  -16.4480   39.9650 C.ar   26  TRP26       0.0003
     28  CD1       -6.5330  -16.4330   38.6090 C.ar   26  TRP26       0.0946
     29  CD2       -8.0850  -17.1590   40.1070 C.ar   26  TRP26       0.0152
     30  NE1       -7.5440  -17.0810   37.8740 N.ar   26  TRP26      -0.2442
     31  CE2       -8.5350  -17.5340   38.7510 C.ar   26  TRP26       0.0810
     32  CE3       -8.8380  -17.5110   41.1880 C.ar   26  TRP26       0.0012
     33  CZ2       -9.7370  -18.2330   38.5590 C.ar   26  TRP26       0.0191
     34  CZ3       -9.9780  -18.2350   41.0200 C.ar   26  TRP26       0.0001
     35  CH2      -10.4620  -18.5870   39.7270 C.ar   26  TRP26       0.0015
     36  N         -6.9300  -22.7410   43.4360 N.3    45  ARG45      -0.1245
     37  CA        -8.1370  -21.9850   42.9840 C.3    45  ARG45       0.1563
     38  C         -9.1110  -21.8180   44.2120 C.2    45  ARG45       0.2260
     39  O         -9.6570  -20.7350   44.4540 O.2    45  ARG45      -0.2867
     40  CB        -8.8130  -22.7850   41.8740 C.3    45  ARG45       0.0307
     41  CG        -9.9600  -21.9770   41.2270 C.3    45  ARG45       0.0489
     42  CD       -10.5960  -22.8690   40.1250 C.3    45  ARG45       0.2205
     43  NE       -11.3270  -22.0450   39.1400 N.pl3  45  ARG45      -0.0865
     44  CZ       -12.5780  -21.7640   39.2920 C.cat  45  ARG45       0.5346
     45  NH1      -13.1910  -22.1710   40.3860 N.pl3  45  ARG45       0.1354
     46  NH2      -13.2640  -21.0460   38.3380 N.pl3  45  ARG45       0.1354
     47  N        -10.3660  -18.3220   46.1690 N.3    49  ILE49      -0.1245
     48  CA       -11.8040  -17.9730   46.4010 C.3    49  ILE49       0.1561
     49  C        -12.1060  -17.7880   47.8950 C.2    49  ILE49       0.2260
     50  O        -12.9210  -16.8880   48.2560 O.2    49  ILE49      -0.2867
     51  CB       -12.6790  -19.0470   45.6700 C.3    49  ILE49       0.0252
     52  CG1      -12.5060  -18.8420   44.1630 C.3    49  ILE49       0.0019
     53  CG2      -14.1430  -18.8200   46.0280 C.3    49  ILE49       0.0019
     54  CD1      -13.0780  -19.9560   43.3110 C.3    49  ILE49       0.0001
     55  N        -11.0860  -14.3090   48.4900 N.3    52  MET52      -0.1230
     56  CA       -12.0520  -13.3480   47.9050 C.3    52  MET52       0.1702
     57  C        -13.1260  -13.1280   48.9750 C.2    52  MET52       0.2592
     58  O        -13.5320  -11.9670   49.1170 O.2    52  MET52      -0.2718
     59  CB       -12.6800  -13.9510   46.6290 C.3    52  MET52       0.0401
     60  CG       -11.6030  -13.9910   45.5330 C.3    52  MET52       0.0596
     61  SD       -12.3650  -14.8280   44.0760 S.3    52  MET52      -0.1393
     62  CE       -10.8480  -15.4840   43.2820 C.3    52  MET52       0.0692
     63  N        -13.5550  -14.1540   49.7270 N.am   53  ALA53      -0.1980
     64  CA       -14.5830  -13.8880   50.7080 C.3    53  ALA53       0.1597
     65  C        -14.0800  -13.0170   51.8460 C.2    53  ALA53       0.2287
     66  O        -14.8160  -12.1900   52.3710 O.2    53  ALA53      -0.2864
     67  CB       -15.0920  -15.2550   51.2540 C.3    53  ALA53       0.0319
     68  N        -11.6860  -10.7420   51.5340 N.3    55  ALA55      -0.1231
     69  CA       -11.6460   -9.3450   51.0200 C.3    55  ALA55       0.1694
     70  C        -13.0380   -8.7070   51.1300 C.2    55  ALA55       0.2592
     71  O        -13.1280   -7.5740   51.5780 O.2    55  ALA55      -0.2718
     72  CB       -11.1560   -9.3310   49.5990 C.3    55  ALA55       0.0304
     73  N        -14.0590   -9.4730   50.6950 N.am   56  ASP56      -0.1974
     74  CA       -15.4020   -8.8870   50.7930 C.3    56  ASP56       0.1709
     75  C        -15.8080   -8.5290   52.2080 C.2    56  ASP56       0.2293
     76  O        -16.4270   -7.5010   52.4180 O.2    56  ASP56      -0.2864
     77  CB       -16.3200   -9.9410   50.1570 C.3    56  ASP56       0.1436
     78  CG       -17.7330   -9.4460   50.0910 C.2    56  ASP56       0.3671
     79  OD1      -18.0410   -8.3070   49.7380 O.co2  56  ASP56      -0.2456
     80  OD2      -18.6580  -10.2210   50.4580 O.co2  56  ASP56      -0.2456
     81  N        -14.3730   -5.1720   52.9730 N.3    59  VAL59      -0.1245
     82  CA       -15.0510   -4.0280   52.2880 C.3    59  VAL59       0.1561
     83  C        -16.3590   -3.7410   53.0480 C.2    59  VAL59       0.2260
     84  O        -16.6590   -2.5730   53.3200 O.2    59  VAL59      -0.2867
     85  CB       -15.3740   -4.4230   50.8130 C.3    59  VAL59       0.0252
     86  CG1      -16.1810   -3.2740   50.1770 C.3    59  VAL59       0.0019
     87  CG2      -14.0470   -4.6440   50.0280 C.3    59  VAL59       0.0019
     88  N         -9.2370   -0.3710   47.3000 N.3    71  LEU71      -0.1245
     89  CA        -8.8400   -1.5720   46.5330 C.3    71  LEU71       0.1561
     90  C         -7.7870   -1.2130   45.4720 C.2    71  LEU71       0.2260
     91  O         -7.5290   -2.0140   44.6010 O.2    71  LEU71      -0.2867
     92  CB       -10.1050   -2.1240   45.8560 C.3    71  LEU71       0.0270
     93  CG       -11.1250   -2.7520   46.8700 C.3    71  LEU71       0.0019
     94  CD1      -12.0760   -1.7210   47.4730 C.3    71  LEU71       0.0001
     95  CD2      -12.0260   -3.7640   46.0680 C.3    71  LEU71       0.0001
@<TRIPOS>BOND
     1    30    28   ar
     2    30    31   ar
     3    46    44    1
     4    33    31   ar
     5    33    35   ar
     6    28    27   ar
     7    31    29   ar
     8    43    44    2
     9    43    42    1
    10    44    45    1
    11    25    24    2
    12    35    34   ar
    13    27    29   ar
    14    27    26    1
    15    29    32   ar
    16    42    41    1
    17    24    23    1
    18    34    32   ar
    19    26    23    1
    20    41    40    1
    21    23    22    1
    22    40    37    1
    23    19    18    2
    24    21    20    1
    25    20    17    1
    26    37    36    1
    27    37    38    1
    28    17    18    1
    29    17    16    1
    30    62    61    1
    31    54    52    1
    32    12    11    2
    33    61    60    1
    34    52    51    1
    35    38    39    2
    36    16    11   am
    37    14    13    1
    38    91    90    2
    39    11    10    1
    40    90    89    1
    41    60    59    1
    42    51    53    1
    43    51    48    1
    44    13    10    1
    45    13    15    1
    46    92    89    1
    47    92    93    1
    48     4     3    2
    49    10     9    1
    50    95    93    1
    51    47    48    1
    52    48    49    1
    53    89    88    1
    54     8     6    1
    55    59    56    1
    56    93    94    1
    57     3     2    1
    58     5     6    1
    59     5     2    1
    60     7     6    1
    61     2     1    1
    62    49    50    2
    63    56    55    1
    64    56    57    1
    65    57    58    2
    66    57    63   am
    67    72    69    1
    68    63    64    1
    69    79    78   ar
    70    87    85    1
    71    78    77    1
    72    78    80   ar
    73    77    74    1
    74    86    85    1
    75    73    74    1
    76    73    70   am
    77    64    67    1
    78    64    65    1
    79    74    75    1
    80    85    82    1
    81    69    70    1
    82    69    68    1
    83    70    71    2
    84    65    66    2
    85    75    76    2
    86    82    81    1
    87    82    83    1
    88    83    84    2
