@<TRIPOS>MOLECULE
tmp/4am7B00.pdb
 180 166 0 0 0
SMALL
GASTEIGER

@<TRIPOS>ATOM
      1  N       -130.3350   28.8750  -49.3660 N.3    14  HIS14      -0.1241
      2  CA      -129.3280   29.9490  -49.2810 C.3    14  HIS14       0.1621
      3  C       -129.8310   31.3150  -48.7510 C.2    14  HIS14       0.2264
      4  O       -130.2460   32.1960  -49.5390 O.2    14  HIS14      -0.2867
      5  CB      -128.5170   30.1010  -50.5740 C.3    14  HIS14       0.0745
      6  CG      -127.5210   31.2140  -50.5150 C.ar   14  HIS14       0.0817
      7  ND1     -127.2620   32.0410  -51.5840 N.ar   14  HIS14      -0.2268
      8  CD2     -126.7600   31.6730  -49.4960 C.ar   14  HIS14       0.1154
      9  CE1     -126.3710   32.9510  -51.2300 C.ar   14  HIS14       0.1986
     10  NE2     -126.0500   32.7500  -49.9670 N.ar   14  HIS14      -0.2212
     11  N       -129.9990   35.0440  -47.1460 N.3    16  GLY16      -0.1210
     12  CA      -129.2340   36.2660  -47.1950 C.3    16  GLY16       0.1956
     13  C       -130.0790   37.4940  -46.9340 C.2    16  GLY16       0.2613
     14  O       -131.3200   37.4390  -46.9720 O.2    16  GLY16      -0.2717
     15  N       -129.3890   38.6090  -46.7020 N.am   17  SER17      -0.1938
     16  CA      -130.0130   39.8600  -46.3280 C.3    17  SER17       0.2055
     17  C       -131.2740   40.0960  -47.1310 C.2    17  SER17       0.2643
     18  O       -132.3480   40.2920  -46.5680 O.2    17  SER17      -0.2714
     19  CB      -129.0280   41.0070  -46.5370 C.3    17  SER17       0.2130
     20  OG      -127.8400   40.7730  -45.7990 O.3    17  SER17      -0.2179
     21  N       -131.1440   40.0240  -48.4530 N.am   18  ASN18      -0.1957
     22  CA      -132.1880   40.5070  -49.3610 C.3    18  ASN18       0.1819
     23  C       -133.2770   39.4950  -49.6640 C.2    18  ASN18       0.2622
     24  O       -134.4600   39.8480  -49.7090 O.2    18  ASN18      -0.2715
     25  CB      -131.5640   40.9830  -50.6640 C.3    18  ASN18       0.1195
     26  CG      -132.5410   41.7090  -51.5300 C.2    18  ASN18       0.2630
     27  OD1     -132.6900   41.4070  -52.7150 O.2    18  ASN18      -0.2716
     28  ND2     -133.2240   42.6740  -50.9460 N.am   18  ASN18      -0.0877
     29  N       -132.8620   38.2470  -49.8880 N.am   19  SER19      -0.1950
     30  CA      -133.7890   37.1500  -50.1560 C.3    19  SER19       0.1924
     31  C       -133.2770   35.7940  -49.6710 C.2    19  SER19       0.2314
     32  O       -132.1280   35.6660  -49.2490 O.2    19  SER19      -0.2863
     33  CB      -134.1580   37.0910  -51.6420 C.3    19  SER19       0.2116
     34  OG      -133.0250   37.2130  -52.4760 O.3    19  SER19      -0.2180
     35  N       -133.0510   31.6470  -50.8840 N.3    21  LYS21      -0.1245
     36  CA      -133.0690   30.7990  -52.0580 C.3    21  LYS21       0.1561
     37  C       -133.3350   29.3850  -51.5980 C.2    21  LYS21       0.2260
     38  O       -132.5380   28.7990  -50.8560 O.2    21  LYS21      -0.2867
     39  CB      -131.7350   30.8980  -52.8040 C.3    21  LYS21       0.0271
     40  CG      -131.5650   32.1930  -53.6040 C.3    21  LYS21       0.0035
     41  CD      -131.1350   33.3650  -52.7370 C.3    21  LYS21       0.0206
     42  CE      -131.0560   34.6290  -53.5440 C.3    21  LYS21       0.1093
     43  NZ      -130.0210   35.5140  -52.9650 N.3    21  LYS21      -0.1314
     44  N       -127.7410   38.1850  -43.5870 N.3   147  GLY147     -0.1225
     45  CA      -126.8460   37.4720  -44.4760 C.3   147  GLY147      0.1811
     46  C       -126.5250   36.0860  -43.9790 C.2   147  GLY147      0.2280
     47  O       -125.3800   35.7920  -43.5760 O.2   147  GLY147     -0.2866
     48  N       -120.2230   30.0910  -48.2460 N.3   226  GLU226     -0.1245
     49  CA      -120.6040   30.6930  -49.5150 C.3   226  GLU226      0.1567
     50  C       -119.4290   30.5790  -50.4670 C.2   226  GLU226      0.2260
     51  O       -119.5710   30.0180  -51.5600 O.2   226  GLU226     -0.2867
     52  CB      -120.9610   32.1670  -49.3450 C.3   226  GLU226      0.0388
     53  CG      -122.3980   32.4860  -49.0750 C.3   226  GLU226      0.1160
     54  CD      -122.5740   33.9550  -48.6120 C.2   226  GLU226      0.3649
     55  OE1     -121.5270   34.6610  -48.5630 O.co2 226  GLU226     -0.2457
     56  OE2     -123.7310   34.4030  -48.2950 O.co2 226  GLU226     -0.2457
     57  N       -118.0770   39.0700  -53.5480 N.3   244  ASN244     -0.1240
     58  CA      -119.5210   38.9990  -53.5540 C.3   244  ASN244      0.1653
     59  C       -120.1970   40.2750  -53.1050 C.2   244  ASN244      0.2266
     60  O       -120.2590   40.5600  -51.9190 O.2   244  ASN244     -0.2867
     61  CB      -119.9870   37.8680  -52.6740 C.3   244  ASN244      0.1155
     62  CG      -121.4080   37.5320  -52.9160 C.2   244  ASN244      0.2627
     63  OD1     -121.7510   36.3800  -53.1310 O.2   244  ASN244     -0.2716
     64  ND2     -122.2580   38.5420  -52.9260 N.am  244  ASN244     -0.0877
     65  N       -123.5930   41.8260  -52.6920 N.3   246  GLY246     -0.1210
     66  CA      -125.0320   41.6370  -52.6030 C.3   246  GLY246      0.1956
     67  C       -125.6870   42.9300  -52.1540 C.2   246  GLY246      0.2612
     68  O       -125.1110   44.0200  -52.3140 O.2   246  GLY246     -0.2717
     69  N       -126.8750   42.7940  -51.5620 N.am  247  ALA247     -0.1965
     70  CA      -127.7040   43.9190  -51.1580 C.3   247  ALA247      0.1728
     71  C       -127.0800   44.7700  -50.0720 C.2   247  ALA247      0.2616
     72  O       -126.8210   45.9720  -50.2600 O.2   247  ALA247     -0.2715
     73  CB      -129.0440   43.4010  -50.6860 C.3   247  ALA247      0.0334
     74  N       -126.8550   44.1190  -48.9320 N.am  248  ALA248     -0.1963
     75  CA      -126.4930   44.7970  -47.6980 C.3   248  ALA248      0.1728
     76  C       -124.9910   44.9150  -47.5450 C.2   248  ALA248      0.2616
     77  O       -124.4920   45.9910  -47.2170 O.2   248  ALA248     -0.2715
     78  CB      -127.0900   44.0790  -46.5140 C.3   248  ALA248      0.0334
     79  N       -124.2830   43.8120  -47.7980 N.am  249  GLU249     -0.1977
     80  CA      -122.8480   43.7170  -47.5260 C.3   249  GLU249      0.1602
     81  C       -122.1020   43.1170  -48.6980 C.2   249  GLU249      0.2287
     82  O       -122.6540   42.2910  -49.4190 O.2   249  GLU249     -0.2864
     83  CB      -122.5940   42.8110  -46.3290 C.3   249  GLU249      0.0415
     84  CG      -123.8170   42.4530  -45.5220 C.3   249  GLU249      0.1163
     85  CD      -123.5870   41.2660  -44.5710 C.2   249  GLU249      0.3649
     86  OE1     -123.0340   40.2260  -45.0040 O.co2 249  GLU249     -0.2457
     87  OE2     -123.9650   41.3630  -43.3740 O.co2 249  GLU249     -0.2457
     88  N       -118.9620   40.6310  -49.5730 N.3   251  ARG251     -0.1245
     89  CA      -118.0830   39.5910  -48.9980 C.3   251  ARG251      0.1563
     90  C       -116.9540   39.2350  -49.9530 C.2   251  ARG251      0.2260
     91  O       -117.1760   38.9410  -51.1270 O.2   251  ARG251     -0.2867
     92  CB      -118.8520   38.3100  -48.6520 C.3   251  ARG251      0.0307
     93  CG      -119.6850   38.3800  -47.3870 C.3   251  ARG251      0.0489
     94  CD      -121.1520   38.8180  -47.6590 C.3   251  ARG251      0.2205
     95  NE      -122.1290   37.7380  -47.4210 N.pl3 251  ARG251     -0.0865
     96  CZ      -122.5130   37.2920  -46.2120 C.cat 251  ARG251      0.5346
     97  NH1     -122.0150   37.8270  -45.0840 N.pl3 251  ARG251      0.1354
     98  NH2     -123.3990   36.2950  -46.1300 N.pl3 251  ARG251      0.1354
     99  N       -125.5130   46.8390  -52.8180 N.3   272  GLY272     -0.1210
    100  CA      -126.6100   47.3300  -53.6780 C.3   272  GLY272      0.1956
    101  C       -127.5430   48.3670  -53.0950 C.2   272  GLY272      0.2611
    102  O       -127.8600   49.3710  -53.7440 O.2   272  GLY272     -0.2717
    103  N       -127.9560   48.1040  -51.8570 N.am  273  ASP273     -0.1973
    104  CA      -128.8160   48.9810  -51.0580 C.3   273  ASP273      0.1709
    105  C       -128.2850   50.3910  -50.8820 C.2   273  ASP273      0.2293
    106  O       -129.0560   51.3340  -50.7640 O.2   273  ASP273     -0.2864
    107  CB      -128.9940   48.3870  -49.6590 C.3   273  ASP273      0.1436
    108  CG      -129.9990   47.2550  -49.6220 C.2   273  ASP273      0.3671
    109  OD1     -130.7560   47.1230  -50.6270 O.co2 273  ASP273     -0.2456
    110  OD2     -130.0270   46.5160  -48.5920 O.co2 273  ASP273     -0.2456
    111  N       -135.1660   51.4640  -56.4020 N.3   305  GLU305     -0.1245
    112  CA      -134.4320   50.2450  -56.7380 C.3   305  GLU305      0.1567
    113  C       -134.5930   49.8420  -58.2080 C.2   305  GLU305      0.2260
    114  O       -133.6220   49.4050  -58.8560 O.2   305  GLU305     -0.2867
    115  CB      -134.7820   49.0860  -55.8010 C.3   305  GLU305      0.0388
    116  CG      -133.8780   47.8800  -56.0270 C.3   305  GLU305      0.1160
    117  CD      -133.6110   47.0780  -54.7790 C.2   305  GLU305      0.3649
    118  OE1     -134.5720   46.5340  -54.1940 O.co2 305  GLU305     -0.2457
    119  OE2     -132.4270   46.9750  -54.3890 O.co2 305  GLU305     -0.2457
    120  N       -132.1830   52.3800  -60.1630 N.3   308  LYS308     -0.1231
    121  CA      -130.7610   52.0550  -60.1090 C.3   308  LYS308      0.1693
    122  C       -130.5100   50.7460  -60.8280 C.2   308  LYS308      0.2591
    123  O       -129.4650   50.5580  -61.4340 O.2   308  LYS308     -0.2718
    124  CB      -130.2450   52.0260  -58.6630 C.3   308  LYS308      0.0285
    125  CG      -130.1560   50.6710  -57.9900 C.3   308  LYS308      0.0035
    126  CD      -128.7350   50.3530  -57.5800 C.3   308  LYS308      0.0206
    127  CE      -128.5900   48.8740  -57.2060 C.3   308  LYS308      0.1093
    128  NZ      -129.4180   48.4330  -56.0220 N.3   308  LYS308     -0.1314
    129  N       -131.5050   49.8670  -60.7660 N.am  309  LYS309     -0.1980
    130  CA      -131.4900   48.5610  -61.4220 C.3   309  LYS309      0.1596
    131  C       -131.3200   48.7140  -62.9460 C.2   309  LYS309      0.2287
    132  O       -130.5600   47.9750  -63.5880 O.2   309  LYS309     -0.2864
    133  CB      -132.7950   47.8110  -61.0490 C.3   309  LYS309      0.0298
    134  CG      -133.0980   46.4960  -61.7910 C.3   309  LYS309      0.0038
    135  CD      -132.7520   45.2450  -60.9540 C.3   309  LYS309      0.0206
    136  CE      -132.7910   43.9560  -61.8130 C.3   309  LYS309      0.1093
    137  NZ      -132.3290   42.7220  -61.0670 N.3   309  LYS309     -0.1314
    138  N       -127.9920   52.6150  -63.6660 N.3   312  THR312     -0.1218
    139  CA      -126.6080   52.7490  -63.2160 C.3   312  THR312      0.1862
    140  C       -125.6950   51.8930  -64.0790 C.2   312  THR312      0.2287
    141  O       -126.0370   50.7550  -64.4220 O.2   312  THR312     -0.2866
    142  CB      -126.4190   52.3670  -61.7390 C.3   312  THR312      0.1770
    143  OG1     -126.9620   51.0640  -61.5080 O.3   312  THR312     -0.2211
    144  CG2     -127.1230   53.3720  -60.8390 C.3   312  THR312      0.0375
    145  N       -122.9030   37.8910  -57.0820 N.3   476  GLY476     -0.1210
    146  CA      -123.8920   38.5650  -56.2650 C.3   476  GLY476      0.1956
    147  C       -124.7940   39.3860  -57.1470 C.2   476  GLY476      0.2612
    148  O       -124.3680   39.8990  -58.1800 O.2   476  GLY476     -0.2717
    149  N       -126.0460   39.5260  -56.7390 N.am  477  GLY477     -0.1942
    150  CA      -127.0190   40.2270  -57.5690 C.3   477  GLY477      0.2014
    151  C       -126.6640   41.6710  -57.8630 C.2   477  GLY477      0.2639
    152  O       -127.1940   42.2770  -58.7870 O.2   477  GLY477     -0.2714
    153  N       -125.7750   42.2380  -57.0620 N.am  478  SER478     -0.1949
    154  CA      -125.4520   43.6440  -57.2200 C.3   478  SER478      0.1924
    155  C       -124.1260   43.8200  -57.9410 C.2   478  SER478      0.2314
    156  O       -123.6760   44.9490  -58.1880 O.2   478  SER478     -0.2863
    157  CB      -125.4510   44.3700  -55.8760 C.3   478  SER478      0.2116
    158  OG      -125.8940   45.7070  -56.0730 O.3   478  SER478     -0.2180
    159  N       -123.9910   43.0460  -60.8210 N.3   480  LYS480     -0.1231
    160  CA      -124.5980   42.9780  -62.1460 C.3   480  LYS480      0.1693
    161  C       -124.6640   44.3710  -62.8190 C.2   480  LYS480      0.2591
    162  O       -125.4040   44.5810  -63.7850 O.2   480  LYS480     -0.2718
    163  CB      -125.9480   42.2430  -62.1450 C.3   480  LYS480      0.0285
    164  CG      -126.0570   41.1840  -63.2230 C.3   480  LYS480      0.0035
    165  CD      -124.6570   40.7020  -63.6910 C.3   480  LYS480      0.0206
    166  CE      -124.6740   40.2210  -65.1600 C.3   480  LYS480      0.1093
    167  NZ      -123.3250   40.2870  -65.8080 N.3   480  LYS480     -0.1314
    168  N       -123.8700   45.3020  -62.3020 N.am  481  ILE481     -0.1980
    169  CA      -123.6350   46.6090  -62.9110 C.3   481  ILE481      0.1595
    170  C       -122.6820   46.4750  -64.1130 C.2   481  ILE481      0.2287
    171  O       -121.6120   45.8760  -63.9770 O.2   481  ILE481     -0.2864
    172  CB      -123.0260   47.5670  -61.8600 C.3   481  ILE481      0.0276
    173  CG1     -123.8650   47.5560  -60.5830 C.3   481  ILE481      0.0022
    174  CG2     -122.9000   48.9840  -62.3850 C.3   481  ILE481      0.0022
    175  CD1     -123.1060   48.0410  -59.3610 C.3   481  ILE481      0.0001
    176  N       -126.3870   36.3820  -58.7800 N.3   581  ALA581     -0.1245
    177  CA      -126.9730   36.1790  -57.4550 C.3   581  ALA581      0.1562
    178  C       -127.3130   34.7260  -57.1600 C.2   581  ALA581      0.2260
    179  O       -127.4830   34.3550  -55.9970 O.2   581  ALA581     -0.2867
    180  CB      -128.1970   37.0060  -57.2970 C.3   581  ALA581      0.0290
@<TRIPOS>BOND
     1   167   166    1
     2   166   165    1
     3   141   140    2
     4   170   171    2
     5   170   169    1
     6   140   139    1
     7   162   161    2
     8   165   164    1
     9   138   139    1
    10   132   131    2
    11   164   163    1
    12   139   142    1
    13   131   130    1
    14   169   168    1
    15   169   172    1
    16   161   168   am
    17   161   160    1
    18   174   172    1
    19   160   163    1
    20   160   159    1
    21   172   173    1
    22   136   137    1
    23   136   135    1
    24   134   133    1
    25   134   135    1
    26   142   143    1
    27   142   144    1
    28   123   122    2
    29   130   133    1
    30   130   129    1
    31   122   129   am
    32   122   121    1
    33   173   175    1
    34   120   121    1
    35   121   124    1
    36   114   113    2
    37   152   151    2
    38   176   177    1
    39   124   125    1
    40   113   112    1
    41   156   155    2
    42   148   147    2
    43   125   126    1
    44   155   154    1
    45   151   150    1
    46   151   153   am
    47   126   127    1
    48   150   149    1
    49   177   180    1
    50   177   178    1
    51   154   153    1
    52   154   157    1
    53   127   128    1
    54   178   179    2
    55   147   149   am
    56   147   146    1
    57   145   146    1
    58   112   111    1
    59   112   115    1
    60   158   157    1
    61   116   115    1
    62   116   117    1
    63   117   119   ar
    64   117   118   ar
    65   102   101    2
    66   100   101    1
    67   100    99    1
    68    40    39    1
    69    40    41    1
    70    58    57    1
    71    58    59    1
    72    58    61    1
    73    42    43    1
    74    42    41    1
    75    63    62    2
    76    59    60    2
    77   101   103   am
    78    64    62   am
    79    62    61    1
    80    39    36    1
    81    27    26    2
    82    65    66    1
    83    66    67    1
    84    34    33    1
    85    68    67    2
    86    67    69   am
    87    36    37    1
    88    36    35    1
    89   103   104    1
    90    33    30    1
    91    37    38    2
    92     7     9   ar
    93     7     6   ar
    94    69    70    1
    95    51    50    2
    96    26    28   am
    97    26    25    1
    98     9    10   ar
    99    70    73    1
   100    70    71    1
   101    91    90    2
   102   104   105    1
   103   104   107    1
   104   105   106    2
   105    25    22    1
   106   109   108   ar
   107     5     6    1
   108     5     2    1
   109     6     8   ar
   110    50    49    1
   111    72    71    2
   112    30    29    1
   113    30    31    1
   114    71    74   am
   115    10     8   ar
   116    90    89    1
   117    29    23   am
   118    24    23    2
   119    31    32    2
   120    23    22    1
   121   107   108    1
   122   108   110   ar
   123    88    89    1
   124     4     3    2
   125    49    52    1
   126    49    48    1
   127    82    81    2
   128     1     2    1
   129    22    21    1
   130    52    53    1
   131     2     3    1
   132    53    54    1
   133    89    92    1
   134    74    75    1
   135    81    80    1
   136    92    93    1
   137    54    55   ar
   138    54    56   ar
   139    21    17   am
   140    79    76   am
   141    79    80    1
   142    75    76    1
   143    75    78    1
   144    94    95    1
   145    94    93    1
   146    76    77    2
   147    80    83    1
   148    95    96    2
   149    12    11    1
   150    12    13    1
   151    17    18    2
   152    17    16    1
   153    14    13    2
   154    13    15   am
   155    15    16    1
   156    19    16    1
   157    19    20    1
   158    83    84    1
   159    96    98    1
   160    96    97    1
   161    84    85    1
   162    86    85   ar
   163    85    87   ar
   164    45    46    1
   165    45    44    1
   166    46    47    2
