@<TRIPOS>MOLECULE
tmp/4am8D00.pdb
 174 168 0 0 0
SMALL
GASTEIGER

@<TRIPOS>ATOM
      1  N         19.1860   45.3460  -28.9060 N.3    51  SER51      -0.1202
      2  CA        20.2100   45.8730  -29.8000 C.3    51  SER51       0.2020
      3  C         21.0610   46.9380  -29.1110 C.2    51  SER51       0.2619
      4  O         20.6280   47.5630  -28.1360 O.2    51  SER51      -0.2717
      5  CB        19.5840   46.4480  -31.0760 C.3    51  SER51       0.2103
      6  OG        18.8260   47.6090  -30.7910 O.3    51  SER51      -0.2182
      7  N         22.2810   47.1180  -29.6200 N.am   52  SER52      -0.1937
      8  CA        23.1970   48.1380  -29.1350 C.3    52  SER52       0.2055
      9  C         24.3130   48.3650  -30.1500 C.2    52  SER52       0.2644
     10  O         24.8110   47.4140  -30.7570 O.2    52  SER52      -0.2714
     11  CB        23.8070   47.7020  -27.7990 C.3    52  SER52       0.2130
     12  OG        24.8970   48.5260  -27.4400 O.3    52  SER52      -0.2179
     13  N         24.7240   49.6190  -30.3120 N.am   53  THR53      -0.1936
     14  CA        25.9320   49.9350  -31.0580 C.3    53  THR53       0.2028
     15  C         27.0140   50.4470  -30.1160 C.2    53  THR53       0.2643
     16  O         28.0670   49.8250  -29.9870 O.2    53  THR53      -0.2714
     17  CB        25.6770   50.9820  -32.1530 C.3    53  THR53       0.1808
     18  OG1       24.7520   50.4540  -33.1060 O.3    53  THR53      -0.2208
     19  CG2       26.9920   51.3550  -32.8590 C.3    53  THR53       0.0379
     20  N         26.7510   51.5770  -29.4650 N.am   54  GLY54      -0.1939
     21  CA        27.7400   52.2370  -28.6200 C.3    54  GLY54       0.2014
     22  C         28.2230   51.4050  -27.4410 C.2    54  GLY54       0.2639
     23  O         29.4290   51.2650  -27.2230 O.2    54  GLY54      -0.2714
     24  N         27.2910   50.8280  -26.6970 N.am   55  THR55      -0.1950
     25  CA        27.6370   50.0570  -25.5150 C.3    55  THR55       0.1897
     26  C         28.3870   48.7800  -25.9190 C.2    55  THR55       0.2313
     27  O         29.4440   48.4800  -25.3730 O.2    55  THR55      -0.2863
     28  CB        26.3830   49.7200  -24.6830 C.3    55  THR55       0.1794
     29  OG1       25.6470   50.9200  -24.4040 O.3    55  THR55      -0.2208
     30  CG2       26.7600   49.0530  -23.3730 C.3    55  THR55       0.0378
     31  N         22.8780   43.7790  -21.0010 N.3   103  ARG103     -0.1245
     32  CA        21.8100   44.7320  -21.3000 C.3   103  ARG103      0.1563
     33  C         20.5120   43.9400  -21.2830 C.2   103  ARG103      0.2260
     34  O         20.3590   42.9800  -22.0320 O.2   103  ARG103     -0.2867
     35  CB        22.0060   45.3900  -22.6700 C.3   103  ARG103      0.0307
     36  CG        20.7890   46.1930  -23.1380 C.3   103  ARG103      0.0489
     37  CD        21.0850   47.0810  -24.3370 C.3   103  ARG103      0.2205
     38  NE        21.8840   48.2340  -23.9480 N.pl3 103  ARG103     -0.0865
     39  CZ        22.0520   49.3300  -24.6760 C.cat 103  ARG103      0.5346
     40  NH1       21.4620   49.4690  -25.8610 N.pl3 103  ARG103      0.1354
     41  NH2       22.7930   50.3140  -24.1950 N.pl3 103  ARG103      0.1354
     42  N         22.5120   48.5740  -19.2970 N.3   125  MET125     -0.1245
     43  CA        21.2430   49.2890  -19.4480 C.3   125  MET125      0.1570
     44  C         20.0740   48.3440  -19.1740 C.2   125  MET125      0.2261
     45  O         20.0470   47.2190  -19.6530 O.2   125  MET125     -0.2867
     46  CB        21.0290   49.9920  -20.8050 C.3   125  MET125      0.0387
     47  CG        19.8180   50.9240  -20.7660 C.3   125  MET125      0.0595
     48  SD        19.5860   51.9400  -22.2370 S.3   125  MET125     -0.1393
     49  CE        18.7900   50.8140  -23.3760 C.3   125  MET125      0.0692
     50  N         20.8920   53.2410  -16.2820 N.3   130  HIS130     -0.1241
     51  CA        21.9310   53.0730  -17.3070 C.3   130  HIS130      0.1621
     52  C         23.2330   53.5910  -16.7540 C.2   130  HIS130      0.2264
     53  O         23.6970   54.6610  -17.1260 O.2   130  HIS130     -0.2867
     54  CB        21.5280   53.8530  -18.5590 C.3   130  HIS130      0.0745
     55  CG        22.2930   53.4710  -19.8000 C.ar  130  HIS130      0.0817
     56  ND1       23.3220   52.5930  -19.7890 N.ar  130  HIS130     -0.2268
     57  CD2       22.1430   53.8860  -21.1280 C.ar  130  HIS130      0.1154
     58  CE1       23.8060   52.4520  -21.0460 C.ar  130  HIS130      0.1986
     59  NE2       23.0830   53.2420  -21.8630 N.ar  130  HIS130     -0.2212
     60  N         26.3890   54.7810  -18.8150 N.3   133  GLN133     -0.1245
     61  CA        26.0750   56.0920  -19.3900 C.3   133  GLN133      0.1566
     62  C         26.3550   57.2060  -18.3760 C.2   133  GLN133      0.2260
     63  O         26.9320   58.2360  -18.7390 O.2   133  GLN133     -0.2867
     64  CB        24.6180   56.1440  -19.8530 C.3   133  GLN133      0.0367
     65  CG        24.2330   57.4180  -20.6150 C.3   133  GLN133      0.0905
     66  CD        24.7540   57.4330  -22.0380 C.2   133  GLN133      0.2608
     67  OE1       24.4550   56.5250  -22.8220 O.2   133  GLN133     -0.2717
     68  NE2       25.5220   58.4650  -22.3900 N.am  133  GLN133     -0.0878
     69  N         12.9990   58.7630  -19.2000 N.3   163  THR163     -0.1203
     70  CA        13.6760   57.5330  -19.6060 C.3   163  THR163      0.1994
     71  C         14.6360   57.0580  -18.5260 C.2   163  THR163      0.2618
     72  O         14.9240   57.7890  -17.5890 O.2   163  THR163     -0.2717
     73  CB        14.4810   57.7070  -20.9070 C.3   163  THR163      0.1784
     74  OG1       15.5700   58.6030  -20.6730 O.3   163  THR163     -0.2211
     75  CG2       13.5930   58.2320  -22.0360 C.3   163  THR163      0.0376
     76  N         15.1120   55.8250  -18.6490 N.am  164  GLN164     -0.1965
     77  CA        16.1250   55.3300  -17.7170 C.3   164  GLN164      0.1733
     78  C         17.3730   56.2400  -17.7210 C.2   164  GLN164      0.2616
     79  O         18.0090   56.4090  -16.6860 O.2   164  GLN164     -0.2715
     80  CB        16.4930   53.8600  -17.9900 C.3   164  GLN164      0.0408
     81  CG        17.3770   53.5630  -19.2050 C.3   164  GLN164      0.0908
     82  CD        16.6320   53.6720  -20.5140 C.2   164  GLN164      0.2608
     83  OE1       16.5100   54.7720  -21.0760 O.2   164  GLN164     -0.2717
     84  NE2       16.1430   52.5350  -21.0220 N.am  164  GLN164     -0.0878
     85  N         17.6930   56.8270  -18.8710 N.am  165  VAL165     -0.1977
     86  CA        18.8040   57.7730  -18.9800 C.3   165  VAL165      0.1596
     87  C         18.5050   59.0790  -18.2300 C.2   165  VAL165      0.2287
     88  O         19.3840   59.6340  -17.5700 O.2   165  VAL165     -0.2864
     89  CB        19.1510   58.0390  -20.4530 C.3   165  VAL165      0.0276
     90  CG1       20.1290   59.2010  -20.6090 C.3   165  VAL165      0.0022
     91  CG2       19.7160   56.7670  -21.0830 C.3   165  VAL165      0.0022
     92  N         16.7640   62.8840  -24.8860 N.3   227  ASP227     -0.1225
     93  CA        16.7170   61.4820  -25.2790 C.3   227  ASP227      0.1805
     94  C         15.4800   61.3050  -26.1580 C.2   227  ASP227      0.2597
     95  O         14.6630   62.2300  -26.2780 O.2   227  ASP227     -0.2718
     96  CB        16.6070   60.6140  -24.0190 C.3   227  ASP227      0.1424
     97  CG        16.8660   59.1170  -24.2670 C.2   227  ASP227      0.3668
     98  OD1       17.1740   58.6880  -25.3970 O.co2 227  ASP227     -0.2456
     99  OD2       16.7750   58.3520  -23.2790 O.co2 227  ASP227     -0.2456
    100  N         15.3370   60.1410  -26.7790 N.am  228  VAL228     -0.1980
    101  CA        14.1950   59.8580  -27.6590 C.3   228  VAL228      0.1595
    102  C         12.8550   59.8630  -26.9140 C.2   228  VAL228      0.2287
    103  O         12.8240   59.8080  -25.6820 O.2   228  VAL228     -0.2864
    104  CB        14.3600   58.5150  -28.3860 C.3   228  VAL228      0.0276
    105  CG1       15.6140   58.5380  -29.2480 C.3   228  VAL228      0.0022
    106  CG2       14.4070   57.3570  -27.3830 C.3   228  VAL228      0.0022
    107  N         10.1800   57.7020  -27.9700 N.3   230  TYR230     -0.1227
    108  CA         9.3820   56.5120  -28.3020 C.3   230  TYR230      0.1736
    109  C          9.3490   55.4550  -27.2030 C.2   230  TYR230      0.2596
    110  O          8.7560   54.4060  -27.3880 O.2   230  TYR230     -0.2718
    111  CB         9.7590   55.9100  -29.6800 C.3   230  TYR230      0.0548
    112  CG        11.2390   55.7430  -29.9560 C.ar  230  TYR230     -0.0200
    113  CD1       11.9820   54.7630  -29.3000 C.ar  230  TYR230     -0.0009
    114  CD2       11.8900   56.5500  -30.8860 C.ar  230  TYR230     -0.0009
    115  CE1       13.3440   54.5920  -29.5520 C.ar  230  TYR230      0.0417
    116  CE2       13.2480   56.3910  -31.1420 C.ar  230  TYR230      0.0417
    117  CZ        13.9800   55.4120  -30.4760 C.ar  230  TYR230      0.1957
    118  OH        15.3510   55.2550  -30.7150 O.3   230  TYR230     -0.2866
    119  N          9.9630   55.7340  -26.0540 N.am  231  GLY231     -0.1942
    120  CA         9.8150   54.8690  -24.8900 C.3   231  GLY231      0.2014
    121  C         10.6650   53.6100  -24.9520 C.2   231  GLY231      0.2639
    122  O         11.7950   53.6260  -25.4710 O.2   231  GLY231     -0.2714
    123  N         10.1270   52.5230  -24.4070 N.am  232  LEU232     -0.1963
    124  CA        10.9010   51.2870  -24.2130 C.3   232  LEU232      0.1728
    125  C         10.9970   50.4390  -25.4860 C.2   232  LEU232      0.2616
    126  O         10.0540   50.3690  -26.2750 O.2   232  LEU232     -0.2715
    127  CB        10.3010   50.4480  -23.0800 C.3   232  LEU232      0.0311
    128  CG        10.3860   51.0050  -21.6580 C.3   232  LEU232      0.0022
    129  CD1        9.4950   50.2070  -20.7150 C.3   232  LEU232      0.0001
    130  CD2       11.8260   51.0250  -21.1750 C.3   232  LEU232      0.0001
    131  N         12.1520   49.7920  -25.6460 N.am  233  TYR233     -0.1974
    132  CA        12.4600   48.9140  -26.7830 C.3   233  TYR233      0.1639
    133  C         11.3180   47.9520  -27.1320 C.2   233  TYR233      0.2290
    134  O         10.9160   47.8440  -28.2920 O.2   233  TYR233     -0.2864
    135  CB        13.7210   48.1110  -26.4410 C.3   233  TYR233      0.0560
    136  CG        14.2900   47.2220  -27.5320 C.ar  233  TYR233     -0.0198
    137  CD1       15.1530   47.7400  -28.5090 C.ar  233  TYR233     -0.0009
    138  CD2       14.0140   45.8570  -27.5550 C.ar  233  TYR233     -0.0009
    139  CE1       15.7050   46.9290  -29.4970 C.ar  233  TYR233      0.0417
    140  CE2       14.5600   45.0400  -28.5340 C.ar  233  TYR233      0.0417
    141  CZ        15.4040   45.5810  -29.5020 C.ar  233  TYR233      0.1957
    142  OH        15.9390   44.7730  -30.4770 O.3   233  TYR233     -0.2866
    143  N         22.2570   61.0020  -25.3310 N.3   269  CYS269     -0.1221
    144  CA        22.8890   59.6810  -25.1910 C.3   269  CYS269      0.1808
    145  C         23.0570   58.9320  -26.5150 C.2   269  CYS269      0.2601
    146  O         23.9110   58.0450  -26.6250 O.2   269  CYS269     -0.2717
    147  CB        22.0980   58.8040  -24.2060 C.3   269  CYS269      0.0970
    148  SG        20.3350   58.6510  -24.5710 S.3   269  CYS269     -0.0800
    149  N         22.2300   59.2810  -27.5010 N.am  270  LEU270     -0.1966
    150  CA        22.2030   58.6700  -28.8440 C.3   270  LEU270      0.1713
    151  C         21.6640   57.2420  -28.8080 C.2   270  LEU270      0.2458
    152  O         21.7280   56.5890  -27.7700 O.2   270  LEU270     -0.2730
    153  CB        23.5710   58.7260  -29.5370 C.3   270  LEU270      0.0310
    154  CG        24.2100   60.1200  -29.6420 C.3   270  LEU270      0.0022
    155  CD1       25.5630   60.0440  -30.3420 C.3   270  LEU270      0.0001
    156  CD2       23.2730   61.0730  -30.3790 C.3   270  LEU270      0.0001
    157  N         21.0710   56.7650  -29.9190 N.am  271  PRO271     -0.2727
    158  CA        20.7800   57.4760  -31.1570 C.3   271  PRO271      0.1402
    159  C         19.7030   58.5480  -30.9790 C.2   271  PRO271      0.2269
    160  O         18.8450   58.4240  -30.1060 O.2   271  PRO271     -0.2865
    161  CB        20.2470   56.3700  -32.0800 C.3   271  PRO271      0.0296
    162  CG        19.6140   55.3910  -31.1480 C.3   271  PRO271      0.0237
    163  CD        20.5190   55.3950  -29.9420 C.3   271  PRO271      0.0939
    164  N         31.7810   56.9240  -23.6640 N.3   297  ARG297     -0.1245
    165  CA        31.2390   55.6060  -23.3250 C.3   297  ARG297      0.1563
    166  C         32.3840   54.5880  -23.2350 C.2   297  ARG297      0.2260
    167  O         32.4150   53.7810  -22.3200 O.2   297  ARG297     -0.2867
    168  CB        30.1860   55.1340  -24.3350 C.3   297  ARG297      0.0307
    169  CG        28.9160   55.9900  -24.3850 C.3   297  ARG297      0.0489
    170  CD        28.1310   56.0000  -23.0850 C.3   297  ARG297      0.2205
    171  NE        27.9350   54.6460  -22.5480 N.pl3 297  ARG297     -0.0865
    172  CZ        27.0450   53.7720  -23.0040 C.cat 297  ARG297      0.5346
    173  NH1       26.2410   54.0820  -24.0240 N.pl3 297  ARG297      0.1354
    174  NH2       26.9690   52.5720  -22.4460 N.pl3 297  ARG297      0.1354
@<TRIPOS>BOND
     1    18    17    1
     2    19    17    1
     3    17    14    1
     4   161   158    1
     5   161   162    1
     6   158   159    1
     7   158   157    1
     8   162   163    1
     9   116   114   ar
    10   116   117   ar
    11     5     6    1
    12     5     2    1
    13    14    13    1
    14    14    15    1
    15   159   160    2
    16   114   112   ar
    17    10     9    2
    18   118   117    1
    19   142   141    1
    20   117   115   ar
    21   156   154    1
    22   155   154    1
    23    13     9   am
    24     9     8    1
    25    15    16    2
    26    15    20   am
    27   112   111    1
    28   112   113   ar
    29   163   157    1
    30   157   151   am
    31     2     3    1
    32     2     1    1
    33   111   108    1
    34   154   153    1
    35     7     8    1
    36     7     3   am
    37   115   113   ar
    38   153   150    1
    39   141   139   ar
    40   141   140   ar
    41   139   137   ar
    42    20    21    1
    43   105   104    1
    44     8    11    1
    45     3     4    2
    46   150   151    1
    47   150   149    1
    48   151   152    2
    49    21    22    1
    50   140   138   ar
    51   137   136   ar
    52   104   101    1
    53   104   106    1
    54   108   107    1
    55   108   109    1
    56   134   133    2
    57    11    12    1
    58   101   102    1
    59   101   100    1
    60   138   136   ar
    61   136   135    1
    62   149   145   am
    63    22    23    2
    64    22    24   am
    65   110   109    2
    66   109   119   am
    67   133   132    1
    68   102   103    2
    69   132   135    1
    70   132   131    1
    71   100    94   am
    72    24    25    1
    73   146   145    2
    74   145   144    1
    75    95    94    2
    76   126   125    2
    77    94    93    1
    78   119   120    1
    79    26    25    1
    80    26    27    2
    81    40    39    1
    82   131   125   am
    83    25    28    1
    84   125   124    1
    85   122   121    2
    86    98    97   ar
    87   143   144    1
    88    93    92    1
    89    93    96    1
    90   144   147    1
    91   121   120    1
    92   121   123   am
    93    28    29    1
    94    28    30    1
    95    39    41    1
    96    39    38    2
    97   148   147    1
    98   123   124    1
    99   169   168    1
   100   169   170    1
   101    37    38    1
   102    37    36    1
   103   168   165    1
   104    97    96    1
   105    97    99   ar
   106   124   127    1
   107   173   172    1
   108   164   165    1
   109    49    48    1
   110   165   166    1
   111   166   167    2
   112    36    35    1
   113   170   171    1
   114   127   128    1
   115   172   171    2
   116   172   174    1
   117    67    66    2
   118    35    32    1
   119    68    66   am
   120    48    47    1
   121    66    65    1
   122    75    73    1
   123    34    33    2
   124    59    57   ar
   125    59    58   ar
   126   128   130    1
   127   128   129    1
   128    32    33    1
   129    32    31    1
   130    57    55   ar
   131    91    89    1
   132    83    82    2
   133    58    56   ar
   134    84    82   am
   135    73    74    1
   136    73    70    1
   137    46    47    1
   138    46    43    1
   139    65    64    1
   140    90    89    1
   141    82    81    1
   142    89    86    1
   143    64    61    1
   144    55    56   ar
   145    55    54    1
   146    45    44    2
   147    70    69    1
   148    70    71    1
   149    43    42    1
   150    43    44    1
   151    61    60    1
   152    61    62    1
   153    81    80    1
   154    86    85    1
   155    86    87    1
   156    85    78   am
   157    63    62    2
   158    76    71   am
   159    76    77    1
   160    54    51    1
   161    71    72    2
   162    87    88    2
   163    80    77    1
   164    78    77    1
   165    78    79    2
   166    51    52    1
   167    51    50    1
   168    53    52    2
