@<TRIPOS>MOLECULE
tmp/4am9A00.pdb
 200 191 0 0 0
SMALL
GASTEIGER

@<TRIPOS>ATOM
      1  N        -30.7640    7.4060   18.0060 N.3     9  GLU9       -0.1245
      2  CA       -30.6780    8.4580   16.9990 C.3     9  GLU9        0.1567
      3  C        -30.8730    7.9050   15.5870 C.2     9  GLU9        0.2260
      4  O        -31.4430    8.5790   14.7340 O.2     9  GLU9       -0.2867
      5  CB       -29.3540    9.2260   17.0960 C.3     9  GLU9        0.0388
      6  CG       -29.2030   10.0670   18.3610 C.3     9  GLU9        0.1160
      7  CD       -30.3020   11.1160   18.5270 C.2     9  GLU9        0.3649
      8  OE1      -30.6980   11.7570   17.5220 O.co2   9  GLU9       -0.2457
      9  OE2      -30.7610   11.3050   19.6780 O.co2   9  GLU9       -0.2457
     10  N        -34.6060    7.3620   15.2850 N.3    12  TYR12      -0.1227
     11  CA       -35.3340    8.6160   15.1720 C.3    12  TYR12       0.1736
     12  C        -35.2390    9.1630   13.7540 C.2    12  TYR12       0.2596
     13  O        -36.2410    9.5950   13.1840 O.2    12  TYR12      -0.2718
     14  CB       -34.8410    9.6610   16.1810 C.3    12  TYR12       0.0548
     15  CG       -35.5950   10.9660   16.0630 C.ar   12  TYR12      -0.0200
     16  CD1      -36.8950   11.0770   16.5390 C.ar   12  TYR12      -0.0009
     17  CD2      -35.0200   12.0770   15.4530 C.ar   12  TYR12      -0.0009
     18  CE1      -37.6010   12.2600   16.4250 C.ar   12  TYR12       0.0417
     19  CE2      -35.7210   13.2670   15.3310 C.ar   12  TYR12       0.0417
     20  CZ       -37.0160   13.3470   15.8210 C.ar   12  TYR12       0.1957
     21  OH       -37.7390   14.5100   15.7170 O.3    12  TYR12      -0.2866
     22  N        -34.0320    9.1280   13.1950 N.am   13  SER13      -0.1952
     23  CA       -33.7910    9.5900   11.8330 C.3    13  SER13       0.1924
     24  C        -34.6270    8.8070   10.8320 C.2    13  SER13       0.2314
     25  O        -35.1800    9.3740    9.8840 O.2    13  SER13      -0.2863
     26  CB       -32.3110    9.4440   11.4630 C.3    13  SER13       0.2116
     27  OG       -31.4770    9.9450   12.4910 O.3    13  SER13      -0.2180
     28  N        -38.2770    9.8310   11.3810 N.3    16  PHE16      -0.1227
     29  CA       -38.3750   11.1900   10.8560 C.3    16  PHE16       0.1736
     30  C        -38.4780   11.1640    9.3190 C.2    16  PHE16       0.2595
     31  O        -39.3500   11.8200    8.7330 O.2    16  PHE16      -0.2718
     32  CB       -37.1720   12.0260   11.3260 C.3    16  PHE16       0.0547
     33  CG       -37.1310   13.4400   10.7640 C.ar   16  PHE16      -0.0202
     34  CD1      -37.8440   14.4600   11.3740 C.ar   16  PHE16      -0.0042
     35  CD2      -36.3670   13.7490    9.6390 C.ar   16  PHE16      -0.0042
     36  CE1      -37.8070   15.7560   10.8720 C.ar   16  PHE16      -0.0003
     37  CE2      -36.3360   15.0510    9.1290 C.ar   16  PHE16      -0.0003
     38  CZ       -37.0570   16.0490    9.7510 C.ar   16  PHE16      -0.0000
     39  N        -37.6120   10.3840    8.6720 N.am   17  ASN17      -0.1974
     40  CA       -37.6300   10.2910    7.2110 C.3    17  ASN17       0.1688
     41  C        -38.9020    9.6460    6.6600 C.2    17  ASN17       0.2292
     42  O        -39.4320   10.0800    5.6390 O.2    17  ASN17      -0.2864
     43  CB       -36.3770    9.5900    6.6700 C.3    17  ASN17       0.1181
     44  CG       -35.1160   10.4180    6.8640 C.2    17  ASN17       0.2629
     45  OD1      -35.1160   11.6440    6.6790 O.2    17  ASN17      -0.2716
     46  ND2      -34.0330    9.7520    7.2490 N.am   17  ASN17      -0.0877
     47  N        -41.8200    9.8510    8.0390 N.3    19  TYR19      -0.1227
     48  CA       -42.8420   10.8780    8.2230 C.3    19  TYR19       0.1736
     49  C        -42.8010   11.9130    7.0790 C.2    19  TYR19       0.2595
     50  O        -43.8410   12.3300    6.5650 O.2    19  TYR19      -0.2718
     51  CB       -42.6680   11.5500    9.5920 C.3    19  TYR19       0.0548
     52  CG       -43.6980   12.6110    9.9600 C.ar   19  TYR19      -0.0200
     53  CD1      -43.5620   13.9310    9.5190 C.ar   19  TYR19      -0.0009
     54  CD2      -44.7790   12.3050   10.7910 C.ar   19  TYR19      -0.0009
     55  CE1      -44.4950   14.9100    9.8670 C.ar   19  TYR19       0.0417
     56  CE2      -45.7190   13.2780   11.1500 C.ar   19  TYR19       0.0417
     57  CZ       -45.5650   14.5810   10.6830 C.ar   19  TYR19       0.1957
     58  OH       -46.4810   15.5390   11.0400 O.3    19  TYR19      -0.2866
     59  N        -41.6050   12.3230    6.6660 N.am   20  GLN20      -0.1979
     60  CA       -41.4930   13.3130    5.5830 C.3    20  GLN20       0.1601
     61  C        -41.9350   12.7450    4.2360 C.2    20  GLN20       0.2287
     62  O        -42.3850   13.4930    3.3730 O.2    20  GLN20      -0.2864
     63  CB       -40.0760   13.8920    5.4920 C.3    20  GLN20       0.0394
     64  CG       -39.5560   14.4910    6.8110 C.3    20  GLN20       0.0908
     65  CD       -40.2180   15.8060    7.1850 C.2    20  GLN20       0.2608
     66  OE1      -41.3570   15.8370    7.6580 O.2    20  GLN20      -0.2717
     67  NE2      -39.4980   16.9040    6.9810 N.am   20  GLN20      -0.0878
     68  N        -46.9800    7.6680    7.2950 N.3    24  TYR24      -0.1241
     69  CA       -47.3370    7.9080    8.6900 C.3    24  TYR24       0.1605
     70  C        -47.5540    6.6120    9.4930 C.2    24  TYR24       0.2264
     71  O        -47.1440    6.5220   10.6450 O.2    24  TYR24      -0.2867
     72  CB       -48.5370    8.8650    8.7970 C.3    24  TYR24       0.0534
     73  CG       -48.3380   10.1670    8.0400 C.ar   24  TYR24      -0.0201
     74  CD1      -47.3240   11.0520    8.3940 C.ar   24  TYR24      -0.0009
     75  CD2      -49.1530   10.5060    6.9690 C.ar   24  TYR24      -0.0009
     76  CE1      -47.1300   12.2340    7.7020 C.ar   24  TYR24       0.0417
     77  CE2      -48.9650   11.6850    6.2720 C.ar   24  TYR24       0.0417
     78  CZ       -47.9570   12.5500    6.6380 C.ar   24  TYR24       0.1957
     79  OH       -47.7640   13.7390    5.9550 O.3    24  TYR24      -0.2866
     80  N        -41.9040    5.3030   16.1130 N.3    31  PHE31      -0.1241
     81  CA       -42.0410    6.2770   17.1840 C.3    31  PHE31       0.1605
     82  C        -42.6090    5.6360   18.4520 C.2    31  PHE31       0.2264
     83  O        -42.1710    5.9430   19.5630 O.2    31  PHE31      -0.2867
     84  CB       -42.9340    7.4240   16.7300 C.3    31  PHE31       0.0534
     85  CG       -42.2230    8.4640   15.9200 C.ar   31  PHE31      -0.0203
     86  CD1      -41.0090    8.9890   16.3410 C.ar   31  PHE31      -0.0042
     87  CD2      -42.7880    8.9490   14.7500 C.ar   31  PHE31      -0.0042
     88  CE1      -40.3560    9.9820   15.5880 C.ar   31  PHE31      -0.0003
     89  CE2      -42.1450    9.9430   13.9940 C.ar   31  PHE31      -0.0003
     90  CZ       -40.9250   10.4530   14.4140 C.ar   31  PHE31      -0.0000
     91  N        -38.8440   13.9160   24.5910 N.3    42  SER42      -0.1202
     92  CA       -40.0850   14.5110   24.1090 C.3    42  SER42       0.2020
     93  C        -40.2550   14.5100   22.5720 C.2    42  SER42       0.2618
     94  O        -41.3740   14.6210   22.0720 O.2    42  SER42      -0.2717
     95  CB       -40.2650   15.9210   24.6830 C.3    42  SER42       0.2103
     96  OG       -39.3840   16.8540   24.0690 O.3    42  SER42      -0.2182
     97  N        -39.1630   14.3740   21.8260 N.am   43  ARG43      -0.1979
     98  CA       -39.2510   14.2990   20.3660 C.3    43  ARG43       0.1597
     99  C        -40.0710   13.0930   19.9100 C.2    43  ARG43       0.2287
    100  O        -40.7450   13.1320   18.8820 O.2    43  ARG43      -0.2864
    101  CB       -37.8550   14.1970   19.7540 C.3    43  ARG43       0.0334
    102  CG       -36.9350   15.3580   20.0720 C.3    43  ARG43       0.0492
    103  CD       -35.5220   15.0520   19.6000 C.3    43  ARG43       0.2205
    104  NE       -34.9950   13.8570   20.2510 N.pl3  43  ARG43      -0.0865
    105  CZ       -33.9640   13.1530   19.8000 C.cat  43  ARG43       0.5346
    106  NH1      -33.3420   13.5200   18.6890 N.pl3  43  ARG43       0.1354
    107  NH2      -33.5590   12.0790   20.4580 N.pl3  43  ARG43       0.1354
    108  N        -43.7880   13.9200   20.3530 N.3    46  LEU46      -0.1231
    109  CA       -44.1580   14.8510   19.2940 C.3    46  LEU46       0.1693
    110  C        -44.3470   14.0730   17.9870 C.2    46  LEU46       0.2592
    111  O        -45.3360   14.2570   17.2710 O.2    46  LEU46      -0.2718
    112  CB       -43.0810   15.9200   19.1230 C.3    46  LEU46       0.0284
    113  CG       -43.2960   16.9950   18.0400 C.3    46  LEU46       0.0019
    114  CD1      -44.4440   17.9360   18.3590 C.3    46  LEU46       0.0001
    115  CD2      -42.0190   17.7990   17.8020 C.3    46  LEU46       0.0001
    116  N        -43.4060   13.1780   17.7080 N.am   47  GLY47      -0.1957
    117  CA       -43.4570   12.3580   16.5160 C.3    47  GLY47       0.1869
    118  C        -44.6790   11.4660   16.5090 C.2    47  GLY47       0.2309
    119  O        -45.4510   11.4570   15.5470 O.2    47  GLY47      -0.2863
    120  N        -47.8110   13.4150   16.1390 N.3    50  ALA50      -0.1245
    121  CA       -47.9030   14.0190   14.8010 C.3    50  ALA50       0.1562
    122  C        -48.4450   13.0210   13.7710 C.2    50  ALA50       0.2260
    123  O        -49.3040   13.3690   12.9430 O.2    50  ALA50      -0.2867
    124  CB       -46.5520   14.5810   14.3550 C.3    50  ALA50       0.0290
    125  N        -52.0930   12.6740   14.3790 N.3    53  GLN53      -0.1231
    126  CA       -52.7580   13.8530   13.8450 C.3    53  GLN53       0.1698
    127  C        -52.8880   13.7240   12.3150 C.2    53  GLN53       0.2592
    128  O        -53.9680   13.8960   11.7600 O.2    53  GLN53      -0.2718
    129  CB       -52.0000   15.1400   14.2220 C.3    53  GLN53       0.0381
    130  CG       -52.8050   16.4260   13.9660 C.3    53  GLN53       0.0905
    131  CD       -52.2200   17.6580   14.6620 C.2    53  GLN53       0.2608
    132  OE1      -51.3420   17.5510   15.5230 O.2    53  GLN53      -0.2717
    133  NE2      -52.7110   18.8340   14.2890 N.am   53  GLN53      -0.0878
    134  N        -51.7760   13.4040   11.6570 N.am   54  ALA54      -0.1980
    135  CA       -51.7150   13.2630   10.2030 C.3    54  ALA54       0.1597
    136  C        -52.7460   12.2620    9.6830 C.2    54  ALA54       0.2287
    137  O        -53.3250   12.4470    8.6120 O.2    54  ALA54      -0.2864
    138  CB       -50.3210   12.8380    9.7810 C.3    54  ALA54       0.0319
    139  N        -49.4800   14.0360   22.9160 N.3    65  TYR65      -0.1241
    140  CA       -49.0700   15.4100   23.1730 C.3    65  TYR65       0.1605
    141  C        -49.1120   15.6950   24.6800 C.2    65  TYR65       0.2264
    142  O        -48.2330   16.3570   25.1980 O.2    65  TYR65      -0.2867
    143  CB       -49.9520   16.4120   22.4090 C.3    65  TYR65       0.0534
    144  CG       -49.7920   16.3830   20.9090 C.ar   65  TYR65      -0.0201
    145  CD1      -48.5580   16.1090   20.3170 C.ar   65  TYR65      -0.0009
    146  CD2      -50.8830   16.6120   20.0760 C.ar   65  TYR65      -0.0009
    147  CE1      -48.4210   16.0800   18.9300 C.ar   65  TYR65       0.0417
    148  CE2      -50.7560   16.5750   18.7120 C.ar   65  TYR65       0.0417
    149  CZ       -49.5270   16.3230   18.1320 C.ar   65  TYR65       0.1957
    150  OH       -49.4060   16.3150   16.7480 O.3    65  TYR65      -0.2866
    151  N        -42.2490   23.4530   26.3210 N.3    75  GLU75      -0.1245
    152  CA       -42.3360   23.2680   24.8700 C.3    75  GLU75       0.1567
    153  C        -43.7220   23.6440   24.3040 C.2    75  GLU75       0.2260
    154  O        -44.7030   22.9430   24.5510 O.2    75  GLU75      -0.2867
    155  CB       -41.9890   21.8040   24.5520 C.3    75  GLU75       0.0388
    156  CG       -42.1340   21.4250   23.0990 C.3    75  GLU75       0.1160
    157  CD       -41.2650   22.2710   22.2050 C.2    75  GLU75       0.3649
    158  OE1      -40.0250   22.1510   22.3020 O.co2  75  GLU75      -0.2457
    159  OE2      -41.8240   23.0660   21.4240 O.co2  75  GLU75      -0.2457
    160  N        -44.9690   23.5400   21.3350 N.3    77  ARG77      -0.1245
    161  CA       -45.4970   22.7440   20.2520 C.3    77  ARG77       0.1563
    162  C        -46.5280   21.7120   20.7370 C.2    77  ARG77       0.2260
    163  O        -47.4330   21.3400   19.9840 O.2    77  ARG77      -0.2867
    164  CB       -44.3580   22.1270   19.4340 C.3    77  ARG77       0.0307
    165  CG       -43.7770   23.1170   18.4150 C.3    77  ARG77       0.0489
    166  CD       -42.4710   22.6560   17.7930 C.3    77  ARG77       0.2205
    167  NE       -41.3750   22.7210   18.7490 N.pl3  77  ARG77      -0.0865
    168  CZ       -40.0910   22.7040   18.4190 C.cat  77  ARG77       0.5346
    169  NH1      -39.7380   22.6330   17.1420 N.pl3  77  ARG77       0.1354
    170  NH2      -39.1620   22.7620   19.3710 N.pl3  77  ARG77       0.1354
    171  N        -50.2170   21.8920   19.0330 N.3    81  HIS81      -0.1241
    172  CA       -50.7590   20.7880   18.2300 C.3    81  HIS81       0.1621
    173  C        -51.9620   20.1040   18.8720 C.2    81  HIS81       0.2264
    174  O        -52.8280   19.6320   18.1540 O.2    81  HIS81      -0.2867
    175  CB       -49.6760   19.7930   17.8060 C.3    81  HIS81       0.0745
    176  CG       -48.6180   20.4070   16.9400 C.ar   81  HIS81       0.0817
    177  ND1      -48.8930   20.9840   15.7190 N.ar   81  HIS81      -0.2268
    178  CD2      -47.2850   20.5450   17.1320 C.ar   81  HIS81       0.1154
    179  CE1      -47.7800   21.4550   15.1930 C.ar   81  HIS81       0.1986
    180  NE2      -46.7840   21.2040   16.0350 N.ar   81  HIS81      -0.2212
    181  N        -54.9770   22.2300   17.9570 N.3    84  GLU84      -0.1245
    182  CA       -55.4120   21.8680   16.5940 C.3    84  GLU84       0.1567
    183  C        -56.3720   20.6860   16.6200 C.2    84  GLU84       0.2260
    184  O        -57.4640   20.7320   16.0550 O.2    84  GLU84      -0.2867
    185  CB       -54.2040   21.5090   15.7160 C.3    84  GLU84       0.0388
    186  CG       -53.2870   22.6850   15.3650 C.3    84  GLU84       0.1160
    187  CD       -52.0930   22.2660   14.5190 C.2    84  GLU84       0.3649
    188  OE1      -51.5730   21.1610   14.7370 O.co2  84  GLU84      -0.2457
    189  OE2      -51.6770   23.0310   13.6250 O.co2  84  GLU84      -0.2457
    190  N        -50.0950   31.9480   13.7840 N.3   118  ARG118     -0.1245
    191  CA       -51.1270   30.9100   13.7580 C.3   118  ARG118      0.1563
    192  C        -51.9200   30.8340   15.0610 C.2   118  ARG118      0.2260
    193  O        -53.1540   30.6740   15.0380 O.2   118  ARG118     -0.2867
    194  CB       -50.5190   29.5490   13.4770 C.3   118  ARG118      0.0307
    195  CG       -49.9280   29.4250   12.1080 C.3   118  ARG118      0.0489
    196  CD       -49.2260   28.1020   11.9740 C.3   118  ARG118      0.2205
    197  NE       -48.5560   27.9950   10.6960 N.pl3 118  ARG118     -0.0865
    198  CZ       -49.1800   27.7190    9.5560 C.cat 118  ARG118      0.5346
    199  NH1      -50.5000   27.5380    9.5460 N.pl3 118  ARG118      0.1354
    200  NH2      -48.4840   27.6340    8.4310 N.pl3 118  ARG118      0.1354
@<TRIPOS>BOND
     1    62    61    2
     2    61    60    1
     3    63    60    1
     4    63    64    1
     5    60    59    1
     6    42    41    2
     7    79    78    1
     8    77    78   ar
     9    77    75   ar
    10    50    49    2
    11    78    76   ar
    12    41    40    1
    13    59    49   am
    14    43    44    1
    15    43    40    1
    16    45    44    2
    17    64    65    1
    18    44    46   am
    19    75    73   ar
    20    67    65   am
    21    49    48    1
    22    65    66    2
    23    40    39    1
    24    68    69    1
    25    76    74   ar
    26    47    48    1
    27    73    74   ar
    28    73    72    1
    29    48    51    1
    30   200   198    1
    31   137   136    2
    32    39    30   am
    33    69    72    1
    34    69    70    1
    35    31    30    2
    36    37    35   ar
    37    37    38   ar
    38    30    29    1
    39    70    71    2
    40    53    55   ar
    41    53    52   ar
    42   199   198    1
    43   198   197    2
    44    51    52    1
    45    35    33   ar
    46   136   135    1
    47    38    36   ar
    48   138   135    1
    49    55    57   ar
    50    25    24    2
    51    52    54   ar
    52   135   134    1
    53    57    58    1
    54    57    56   ar
    55   197   196    1
    56    33    32    1
    57    33    34   ar
    58    54    56   ar
    59    24    23    1
    60    29    32    1
    61    29    28    1
    62    36    34   ar
    63    26    23    1
    64    26    27    1
    65   134   127   am
    66   128   127    2
    67    23    22    1
    68   196   195    1
    69   195   194    1
    70   127   126    1
    71   123   122    2
    72    13    12    2
    73    22    12   am
    74   194   191    1
    75   189   187   ar
    76    12    11    1
    77   191   190    1
    78   191   192    1
    79   122   121    1
    80   126   129    1
    81   126   125    1
    82   130   129    1
    83   130   131    1
    84    89    90   ar
    85    89    87   ar
    86   133   131   am
    87   124   121    1
    88    90    88   ar
    89   187   188   ar
    90   187   186    1
    91   131   132    2
    92     4     3    2
    93    87    85   ar
    94   121   120    1
    95   193   192    2
    96    11    10    1
    97    11    14    1
    98   179   177   ar
    99   179   180   ar
   100    19    17   ar
   101    19    20   ar
   102   186   185    1
   103    17    15   ar
   104   119   118    2
   105     3     2    1
   106    88    86   ar
   107   185   182    1
   108    21    20    1
   109   177   176   ar
   110    20    18   ar
   111    85    86   ar
   112    85    84    1
   113   180   178   ar
   114   184   183    2
   115    15    14    1
   116    15    16   ar
   117    80    81    1
   118    18    16   ar
   119   118   117    1
   120   117   116    1
   121   182   183    1
   122   182   181    1
   123    84    81    1
   124   150   149    1
   125   176   178   ar
   126   176   175    1
   127     2     5    1
   128     2     1    1
   129     5     6    1
   130   169   168    1
   131    81    82    1
   132   111   110    2
   133     8     7   ar
   134   116   110   am
   135   166   165    1
   136   166   167    1
   137   115   113    1
   138   175   172    1
   139   110   109    1
   140   113   114    1
   141   113   112    1
   142   149   148   ar
   143   149   147   ar
   144   174   173    2
   145   172   173    1
   146   172   171    1
   147     6     7    1
   148   165   164    1
   149   168   167    2
   150   168   170    1
   151    82    83    2
   152     7     9   ar
   153   106   105    1
   154   148   146   ar
   155   100    99    2
   156   147   145   ar
   157   112   109    1
   158   109   108    1
   159   164   161    1
   160   103   102    1
   161   103   104    1
   162   101   102    1
   163   101    98    1
   164   105   104    2
   165   105   107    1
   166    99    98    1
   167   163   162    2
   168   146   144   ar
   169   161   162    1
   170   161   160    1
   171   145   144   ar
   172    98    97    1
   173   144   143    1
   174   159   157   ar
   175    97    93   am
   176    94    93    2
   177   157   158   ar
   178   157   156    1
   179   143   140    1
   180    93    92    1
   181   139   140    1
   182   156   155    1
   183   140   141    1
   184    96    95    1
   185    92    91    1
   186    92    95    1
   187   153   154    2
   188   153   152    1
   189   155   152    1
   190   141   142    2
   191   152   151    1
