@<TRIPOS>MOLECULE
tmp/4ambB00.pdb
 190 183 0 0 0
SMALL
GASTEIGER

@<TRIPOS>ATOM
      1  N        -31.3350   29.3320  -22.3380 N.3    13  LEU13      -0.1231
      2  CA       -32.0350   28.6670  -21.1890 C.3    13  LEU13       0.1693
      3  C        -32.3550   27.1790  -21.4110 C.2    13  LEU13       0.2592
      4  O        -32.0650   26.3300  -20.5640 O.2    13  LEU13      -0.2718
      5  CB       -33.3410   29.3990  -20.8160 C.3    13  LEU13       0.0284
      6  CG       -34.1010   28.9240  -19.5600 C.3    13  LEU13       0.0019
      7  CD1      -33.2250   28.8180  -18.3200 C.3    13  LEU13       0.0001
      8  CD2      -35.2730   29.8500  -19.2860 C.3    13  LEU13       0.0001
      9  N        -32.9310   26.8860  -22.5720 N.am   14  SER14      -0.1952
     10  CA       -33.4470   25.5210  -22.8950 C.3    14  SER14       0.1924
     11  C        -32.3470   24.4860  -23.1870 C.2    14  SER14       0.2314
     12  O        -32.5710   23.2760  -23.1950 O.2    14  SER14      -0.2863
     13  CB       -34.4170   25.5640  -24.0740 C.3    14  SER14       0.2116
     14  OG       -33.7250   25.7210  -25.2930 O.3    14  SER14      -0.2180
     15  N        -30.8490   24.0460  -19.0630 N.3    17  LEU17      -0.1245
     16  CA       -31.7650   23.3040  -18.1310 C.3    17  LEU17       0.1561
     17  C        -31.5920   21.7660  -18.1060 C.2    17  LEU17       0.2260
     18  O        -31.4390   21.1790  -17.0420 O.2    17  LEU17      -0.2867
     19  CB       -33.2490   23.6510  -18.3690 C.3    17  LEU17       0.0270
     20  CG       -33.7140   25.0610  -17.9720 C.3    17  LEU17       0.0019
     21  CD1      -35.1050   25.3480  -18.5090 C.3    17  LEU17       0.0001
     22  CD2      -33.6750   25.2200  -16.4580 C.3    17  LEU17       0.0001
     23  N        -30.5270   18.4030  -25.7210 N.3   130  LEU130     -0.1245
     24  CA       -31.7890   18.8430  -25.0330 C.3   130  LEU130      0.1561
     25  C        -32.9660   17.8920  -25.2610 C.2   130  LEU130      0.2260
     26  O        -33.9510   17.9080  -24.5220 O.2   130  LEU130     -0.2867
     27  CB       -32.2080   20.2950  -25.3580 C.3   130  LEU130      0.0270
     28  CG       -32.4220   20.8620  -26.7600 C.3   130  LEU130      0.0019
     29  CD1      -33.5650   20.1920  -27.5070 C.3   130  LEU130      0.0001
     30  CD2      -32.6650   22.3620  -26.6500 C.3   130  LEU130      0.0001
     31  N        -34.2600   10.6600  -18.8680 N.3   191  TYR191     -0.1241
     32  CA       -34.7070   12.0630  -18.8550 C.3   191  TYR191      0.1605
     33  C        -35.3820   12.3880  -17.5310 C.2   191  TYR191      0.2264
     34  O        -36.4200   11.8350  -17.1790 O.2   191  TYR191     -0.2867
     35  CB       -35.6640   12.3970  -19.9840 C.3   191  TYR191      0.0534
     36  CG       -35.9480   13.8800  -20.1070 C.ar  191  TYR191     -0.0201
     37  CD1      -35.1130   14.6990  -20.8580 C.ar  191  TYR191     -0.0009
     38  CD2      -37.0480   14.4650  -19.4840 C.ar  191  TYR191     -0.0009
     39  CE1      -35.3520   16.0520  -20.9850 C.ar  191  TYR191      0.0417
     40  CE2      -37.2960   15.8200  -19.6090 C.ar  191  TYR191      0.0417
     41  CZ       -36.4400   16.6050  -20.3610 C.ar  191  TYR191      0.1957
     42  OH       -36.6530   17.9520  -20.5040 O.3   191  TYR191     -0.2866
     43  N        -36.0670   18.9370  -15.4230 N.3   194  TYR194     -0.1227
     44  CA       -35.6630   20.0970  -14.6210 C.3   194  TYR194      0.1736
     45  C        -36.0820   21.3800  -15.2930 C.2   194  TYR194      0.2595
     46  O        -35.6890   21.6910  -16.4180 O.2   194  TYR194     -0.2718
     47  CB       -34.1700   20.1570  -14.3190 C.3   194  TYR194      0.0548
     48  CG       -33.8330   21.3700  -13.4830 C.ar  194  TYR194     -0.0200
     49  CD1      -34.2790   21.4730  -12.1710 C.ar  194  TYR194     -0.0009
     50  CD2      -33.1050   22.4350  -14.0090 C.ar  194  TYR194     -0.0009
     51  CE1      -33.9850   22.5880  -11.3960 C.ar  194  TYR194      0.0417
     52  CE2      -32.8180   23.5590  -13.2440 C.ar  194  TYR194      0.0417
     53  CZ       -33.2610   23.6220  -11.9390 C.ar  194  TYR194      0.1957
     54  OH       -32.9980   24.7200  -11.1730 O.3   194  TYR194     -0.2866
     55  N        -36.8630   22.1370  -14.5500 N.am  195  ASN195     -0.1974
     56  CA       -37.5060   23.3610  -15.0820 C.3   195  ASN195      0.1688
     57  C        -37.2230   24.6000  -14.2410 C.2   195  ASN195      0.2292
     58  O        -37.5860   25.7170  -14.5950 O.2   195  ASN195     -0.2864
     59  CB       -39.0140   23.1530  -15.2200 C.3   195  ASN195      0.1181
     60  CG       -39.3650   21.7180  -15.5850 C.2   195  ASN195      0.2629
     61  OD1      -39.9080   20.9750  -14.7640 O.2   195  ASN195     -0.2716
     62  ND2      -39.0170   21.3080  -16.8110 N.am  195  ASN195     -0.0877
     63  N        -49.4640   25.2270  -22.3580 N.3   216  THR216     -0.1218
     64  CA       -48.1820   25.9840  -22.3880 C.3   216  THR216      0.1862
     65  C        -47.5540   26.2410  -23.7590 C.2   216  THR216      0.2287
     66  O        -47.5140   25.3790  -24.6150 O.2   216  THR216     -0.2866
     67  CB       -47.0960   25.3070  -21.5310 C.3   216  THR216      0.1770
     68  OG1      -45.8560   26.0040  -21.6950 O.3   216  THR216     -0.2211
     69  CG2      -46.9180   23.8380  -21.9250 C.3   216  THR216      0.0375
     70  N        -44.3620   27.7460  -23.7470 N.3   218  GLY218     -0.1210
     71  CA       -42.9390   27.7710  -23.3540 C.3   218  GLY218      0.1956
     72  C        -42.3500   29.0840  -22.8750 C.2   218  GLY218      0.2613
     73  O        -43.0240   30.1160  -22.7600 O.2   218  GLY218     -0.2717
     74  N        -41.0490   29.0050  -22.6200 N.am  219  SER219     -0.1938
     75  CA       -40.2290   30.1490  -22.1330 C.3   219  SER219      0.2055
     76  C        -40.0680   31.1950  -23.2250 C.2   219  SER219      0.2643
     77  O        -39.8900   32.3910  -22.9760 O.2   219  SER219     -0.2714
     78  CB       -38.8460   29.6870  -21.6580 C.3   219  SER219      0.2130
     79  OG       -38.0050   29.3470  -22.7450 O.3   219  SER219     -0.2179
     80  N        -40.1020   30.6800  -24.4430 N.am  220  ILE220     -0.1963
     81  CA       -40.1900   31.4880  -25.6590 C.3   220  ILE220      0.1727
     82  C        -41.3250   30.9610  -26.5100 C.2   220  ILE220      0.2616
     83  O        -41.6760   29.7850  -26.4330 O.2   220  ILE220     -0.2715
     84  CB       -38.9110   31.4230  -26.5270 C.3   220  ILE220      0.0290
     85  CG1      -38.9230   32.5320  -27.5970 C.3   220  ILE220      0.0022
     86  CG2      -38.7560   30.0440  -27.1670 C.3   220  ILE220      0.0023
     87  CD1      -38.1240   32.2060  -28.8410 C.3   220  ILE220      0.0001
     88  N        -41.8480   31.8710  -27.3260 N.am  221  ASP221     -0.1971
     89  CA       -42.8680   31.6170  -28.3850 C.3   221  ASP221      0.1709
     90  C        -44.1850   32.2950  -28.0600 C.2   221  ASP221      0.2293
     91  O        -45.0170   32.5390  -28.9390 O.2   221  ASP221     -0.2864
     92  CB       -43.1140   30.1280  -28.6660 C.3   221  ASP221      0.1436
     93  CG       -42.1970   29.5710  -29.7610 C.2   221  ASP221      0.3671
     94  OD1      -41.8090   30.3250  -30.6740 O.co2 221  ASP221     -0.2456
     95  OD2      -41.8570   28.3740  -29.7170 O.co2 221  ASP221     -0.2456
     96  N        -49.8900   28.6150  -18.5090 N.3   247  THR247     -0.1218
     97  CA       -48.6060   29.2370  -18.1690 C.3   247  THR247      0.1862
     98  C        -48.2470   30.2620  -19.2320 C.2   247  THR247      0.2287
     99  O        -48.0550   29.9210  -20.3930 O.2   247  THR247     -0.2866
    100  CB       -47.4520   28.2240  -18.0200 C.3   247  THR247      0.1770
    101  OG1      -47.0960   27.6870  -19.3010 O.3   247  THR247     -0.2211
    102  CG2      -47.8350   27.1000  -17.0970 C.3   247  THR247      0.0375
    103  N        -45.5530   32.4760  -19.5080 N.3   249  GLY249     -0.1225
    104  CA       -44.1260   32.5430  -19.8880 C.3   249  GLY249      0.1811
    105  C        -43.7330   33.8260  -20.6080 C.2   249  GLY249      0.2280
    106  O        -42.8380   33.8370  -21.4610 O.2   249  GLY249     -0.2866
    107  N        -47.9680   32.9110  -14.2560 N.3   267  GLU267     -0.1231
    108  CA       -46.8710   33.3940  -15.1150 C.3   267  GLU267      0.1699
    109  C        -45.9270   32.2430  -15.4340 C.2   267  GLU267      0.2592
    110  O        -45.7050   31.8720  -16.5880 O.2   267  GLU267     -0.2718
    111  CB       -46.1010   34.5300  -14.4550 C.3   267  GLU267      0.0402
    112  CG       -45.0260   35.1070  -15.3570 C.3   267  GLU267      0.1161
    113  CD       -45.6050   35.8600  -16.5500 C.2   267  GLU267      0.3649
    114  OE1      -46.5190   36.6970  -16.3530 O.co2 267  GLU267     -0.2457
    115  OE2      -45.1240   35.6450  -17.6860 O.co2 267  GLU267     -0.2457
    116  N        -45.3920   31.6730  -14.3700 N.am  268  TRP268     -0.1962
    117  CA       -44.5040   30.5160  -14.4660 C.3   268  TRP268      0.1771
    118  C        -44.7060   29.5280  -13.3460 C.2   268  TRP268      0.2619
    119  O        -45.0680   29.8830  -12.2310 O.2   268  TRP268     -0.2715
    120  CB       -43.0460   30.9790  -14.5650 C.3   268  TRP268      0.0590
    121  CG       -42.0180   29.8810  -14.5400 C.ar  268  TRP268      0.0006
    122  CD1      -41.4600   29.1920  -15.6150 C.ar  268  TRP268      0.0946
    123  CD2      -41.3870   29.3200  -13.3530 C.ar  268  TRP268      0.0152
    124  NE1      -40.5500   28.2560  -15.1740 N.ar  268  TRP268     -0.2442
    125  CE2      -40.4630   28.2820  -13.8280 C.ar  268  TRP268      0.0810
    126  CE3      -41.4950   29.5610  -11.9850 C.ar  268  TRP268      0.0012
    127  CZ2      -39.6900   27.5400  -12.9530 C.ar  268  TRP268      0.0191
    128  CZ3      -40.7120   28.8070  -11.1100 C.ar  268  TRP268      0.0001
    129  CH2      -39.8290   27.8230  -11.5820 C.ar  268  TRP268      0.0015
    130  N        -44.4870   28.2640  -13.6850 N.am  269  ILE269     -0.1964
    131  CA       -44.5440   27.1150  -12.7420 C.3   269  ILE269      0.1712
    132  C        -43.7620   25.9160  -13.3090 C.2   269  ILE269      0.2458
    133  O        -43.8560   25.6270  -14.5020 O.2   269  ILE269     -0.2730
    134  CB       -45.9920   26.6880  -12.3950 C.3   269  ILE269      0.0289
    135  CG1      -45.9910   25.7720  -11.1580 C.3   269  ILE269      0.0022
    136  CG2      -46.6920   26.0600  -13.5970 C.3   269  ILE269      0.0023
    137  CD1      -47.3530   25.4850  -10.5830 C.3   269  ILE269      0.0001
    138  N        -42.9640   25.2290  -12.4770 N.am  270  PRO270     -0.2716
    139  CA       -42.1760   24.1490  -13.0570 C.3   270  PRO270      0.1536
    140  C        -43.0400   23.0580  -13.6760 C.2   270  PRO270      0.2598
    141  O        -43.9380   22.5270  -13.0440 O.2   270  PRO270     -0.2715
    142  CB       -41.3990   23.6020  -11.8600 C.3   270  PRO270      0.0310
    143  CG       -41.3010   24.7350  -10.9270 C.3   270  PRO270      0.0237
    144  CD       -42.6040   25.4560  -11.0670 C.3   270  PRO270      0.0939
    145  N        -42.7260   22.7410  -14.9200 N.am  271  LEU271     -0.1978
    146  CA       -43.5960   21.8850  -15.7530 C.3   271  LEU271      0.1596
    147  C        -43.7760   20.5020  -15.1470 C.2   271  LEU271      0.2287
    148  O        -44.8740   19.9560  -15.1340 O.2   271  LEU271     -0.2864
    149  CB       -43.0970   21.7690  -17.1980 C.3   271  LEU271      0.0297
    150  CG       -44.1870   21.2750  -18.1810 C.3   271  LEU271      0.0022
    151  CD1      -45.5250   21.9860  -18.0080 C.3   271  LEU271      0.0001
    152  CD2      -43.7380   21.3950  -19.6330 C.3   271  LEU271      0.0001
    153  N        -46.7080   23.6510  -27.6450 N.3   284  HIS284     -0.1241
    154  CA       -46.1420   24.2970  -28.8530 C.3   284  HIS284      0.1621
    155  C        -45.1230   23.4610  -29.5670 C.2   284  HIS284      0.2264
    156  O        -44.6730   23.7930  -30.6610 O.2   284  HIS284     -0.2867
    157  CB       -45.4460   25.5780  -28.4620 C.3   284  HIS284      0.0745
    158  CG       -44.2400   25.3480  -27.5810 C.ar  284  HIS284      0.0817
    159  ND1      -44.3470   24.8650  -26.3300 N.ar  284  HIS284     -0.2268
    160  CD2      -42.8730   25.5010  -27.8300 C.ar  284  HIS284      0.1154
    161  CE1      -43.1210   24.7410  -25.7910 C.ar  284  HIS284      0.1986
    162  NE2      -42.2180   25.1310  -26.7080 N.ar  284  HIS284     -0.2212
    163  N        -42.2470   22.2280  -27.8360 N.3   286  GLY286     -0.1210
    164  CA       -40.9870   22.3600  -27.1080 C.3   286  GLY286      0.1956
    165  C        -40.3780   21.0050  -26.8040 C.2   286  GLY286      0.2613
    166  O        -41.0770   20.0550  -26.4460 O.2   286  GLY286     -0.2717
    167  N        -39.0650   20.9260  -26.9610 N.am  287  SER287     -0.1938
    168  CA       -38.3390   19.6330  -26.8360 C.3   287  SER287      0.2055
    169  C        -38.2820   19.1680  -25.3810 C.2   287  SER287      0.2644
    170  O        -38.3920   17.9790  -25.0810 O.2   287  SER287     -0.2714
    171  CB       -36.9190   19.7410  -27.4030 C.3   287  SER287      0.2130
    172  OG       -36.4350   18.4900  -27.8460 O.3   287  SER287     -0.2179
    173  N        -38.1270   20.1390  -24.4950 N.am  288  GLY288     -0.1939
    174  CA       -38.1510   19.9050  -23.0410 C.3   288  GLY288      0.2014
    175  C        -39.5620   19.6850  -22.5210 C.2   288  GLY288      0.2639
    176  O        -39.8060   18.9130  -21.5830 O.2   288  GLY288     -0.2714
    177  N        -40.4960   20.3540  -23.1690 N.am  289  THR289     -0.1950
    178  CA       -41.9330   20.1840  -22.8790 C.3   289  THR289      0.1897
    179  C        -42.4160   18.7810  -23.2620 C.2   289  THR289      0.2313
    180  O        -43.1570   18.1330  -22.5370 O.2   289  THR289     -0.2863
    181  CB       -42.7880   21.2240  -23.6150 C.3   289  THR289      0.1794
    182  OG1      -42.4060   22.5350  -23.1760 O.3   289  THR289     -0.2208
    183  CG2      -44.2650   20.9980  -23.3450 C.3   289  THR289      0.0378
    184  N        -40.7680   15.9530  -21.0120 N.3   292  THR292     -0.1218
    185  CA       -41.3510   16.1310  -19.6490 C.3   292  THR292      0.1862
    186  C        -42.7260   15.4710  -19.5710 C.2   292  THR292      0.2287
    187  O        -43.0920   14.8340  -18.5860 O.2   292  THR292     -0.2866
    188  CB       -41.5180   17.6110  -19.2270 C.3   292  THR292      0.1770
    189  OG1      -40.2580   18.2830  -19.2830 O.3   292  THR292     -0.2211
    190  CG2      -42.0270   17.7070  -17.8230 C.3   292  THR292      0.0375
@<TRIPOS>BOND
     1    94    93   ar
     2   156   155    2
     3    93    95   ar
     4    93    92    1
     5   155   154    1
     6    91    90    2
     7   154   157    1
     8   154   153    1
     9    87    85    1
    10    92    89    1
    11   157   158    1
    12    89    90    1
    13    89    88    1
    14   172   171    1
    15   163   164    1
    16   160   158   ar
    17   160   162   ar
    18    85    84    1
    19   158   159   ar
    20    29    28    1
    21   171   168    1
    22    88    82   am
    23    86    84    1
    24   164   165    1
    25   167   168    1
    26   167   165   am
    27   168   169    1
    28   165   166    2
    29    28    30    1
    30    28    27    1
    31   162   161   ar
    32    84    81    1
    33    82    83    2
    34    82    81    1
    35   159   161   ar
    36    23    24    1
    37    81    80    1
    38   169   170    2
    39   169   173   am
    40    27    24    1
    41    14    13    1
    42    25    24    1
    43    25    26    2
    44    66    65    2
    45   173   174    1
    46    80    76   am
    47    13    10    1
    48    65    64    1
    49    70    71    1
    50   181   183    1
    51   181   182    1
    52   181   178    1
    53    71    72    1
    54   179   178    1
    55   179   180    2
    56    76    77    2
    57    76    75    1
    58    12    11    2
    59    11    10    1
    60   177   178    1
    61   177   175   am
    62   174   175    1
    63    10     9    1
    64    72    73    2
    65    72    74   am
    66    79    78    1
    67    74    75    1
    68     9     3   am
    69   175   176    2
    70    64    63    1
    71    64    67    1
    72     1     2    1
    73    75    78    1
    74    69    67    1
    75    68    67    1
    76   106   105    2
    77     3     2    1
    78     3     4    2
    79     2     5    1
    80   184   185    1
    81    39    37   ar
    82    39    41   ar
    83    37    36   ar
    84     5     6    1
    85   105   104    1
    86    42    41    1
    87    99    98    2
    88    41    40   ar
    89    36    35    1
    90    36    38   ar
    91    35    32    1
    92   104   103    1
    93   185   186    1
    94   185   188    1
    95   152   150    1
    96    40    38   ar
    97   186   187    2
    98     6     8    1
    99     6     7    1
   100   101   100    1
   101   189   188    1
   102    98    97    1
   103   188   190    1
   104    15    16    1
   105    31    32    1
   106    32    33    1
   107    21    20    1
   108    96    97    1
   109    19    16    1
   110    19    20    1
   111   150   151    1
   112   150   149    1
   113    97   100    1
   114    16    17    1
   115    17    18    2
   116   100   102    1
   117    20    22    1
   118   115   113   ar
   119    33    34    2
   120   149   146    1
   121    62    60   am
   122   110   109    2
   123   113   114   ar
   124   113   112    1
   125    46    45    2
   126   146   147    1
   127   146   145    1
   128   122   124   ar
   129   122   121   ar
   130    60    59    1
   131    60    61    2
   132   109   108    1
   133   109   116   am
   134    43    44    1
   135   112   111    1
   136    45    44    1
   137    45    55   am
   138    59    56    1
   139   124   125   ar
   140   147   148    2
   141   108   111    1
   142   108   107    1
   143    56    55    1
   144    56    57    1
   145   145   140   am
   146    44    47    1
   147    58    57    2
   148   120   121    1
   149   120   117    1
   150   121   123   ar
   151   133   132    2
   152   117   116    1
   153   117   118    1
   154    47    48    1
   155    50    48   ar
   156    50    52   ar
   157   125   123   ar
   158   125   127   ar
   159   130   118   am
   160   130   131    1
   161   140   139    1
   162   140   141    2
   163   136   134    1
   164    48    49   ar
   165   123   126   ar
   166   118   119    2
   167   132   131    1
   168   132   138   am
   169    52    53   ar
   170   139   138    1
   171   139   142    1
   172   127   129   ar
   173   131   134    1
   174   138   144    1
   175   134   135    1
   176    49    51   ar
   177   126   128   ar
   178    53    51   ar
   179    53    54    1
   180   142   143    1
   181   129   128   ar
   182   135   137    1
   183   144   143    1
