@<TRIPOS>MOLECULE
tmp/4amfA00.pdb
 177 164 0 0 0
SMALL
GASTEIGER

@<TRIPOS>ATOM
      1  N         -5.6830   -5.8370   21.2430 N.3    62  ASP62      -0.1239
      2  CA        -6.7080   -6.1840   20.2630 C.3    62  ASP62       0.1674
      3  C         -6.0850   -6.8500   19.0300 C.2    62  ASP62       0.2266
      4  O         -5.3670   -7.8220   19.2070 O.2    62  ASP62      -0.2867
      5  CB        -7.5290   -4.8990   20.0090 C.3    62  ASP62       0.1410
      6  CG        -8.9090   -5.0360   19.4470 C.2    62  ASP62       0.3668
      7  OD1       -9.2060   -6.0830   18.8710 O.co2  62  ASP62      -0.2456
      8  OD2       -9.7260   -4.1190   19.6810 O.co2  62  ASP62      -0.2456
      9  N         -6.2230   -0.8640   22.0650 N.3    83  GLU83      -0.1231
     10  CA        -7.3920   -0.0980   21.5960 C.3    83  GLU83       0.1699
     11  C         -7.8560    1.0220   22.4770 C.2    83  GLU83       0.2592
     12  O         -8.1940    2.1010   21.9740 O.2    83  GLU83      -0.2718
     13  CB        -8.5490   -1.0910   21.3040 C.3    83  GLU83       0.0402
     14  CG        -9.7050   -0.4010   20.5550 C.3    83  GLU83       0.1161
     15  CD       -10.9500   -1.2140   20.3450 C.2    83  GLU83       0.3649
     16  OE1      -11.3390   -1.9600   21.2650 O.co2  83  GLU83      -0.2457
     17  OE2      -11.4630   -1.1860   19.2060 O.co2  83  GLU83      -0.2457
     18  N         -7.9510    0.7880   23.7950 N.am   84  TYR84      -0.1976
     19  CA        -8.4650    1.7910   24.6980 C.3    84  TYR84       0.1639
     20  C         -8.0270    1.4740   26.1130 C.2    84  TYR84       0.2290
     21  O         -7.2030    0.5750   26.2980 O.2    84  TYR84      -0.2864
     22  CB        -9.9900    2.0020   24.5460 C.3    84  TYR84       0.0560
     23  CG       -10.8970    0.8590   24.9470 C.ar   84  TYR84      -0.0198
     24  CD1      -11.0230   -0.2600   24.1510 C.ar   84  TYR84      -0.0009
     25  CD2      -11.6440    0.9100   26.1240 C.ar   84  TYR84      -0.0009
     26  CE1      -11.9180   -1.2830   24.4720 C.ar   84  TYR84       0.0417
     27  CE2      -12.5610   -0.0890   26.4380 C.ar   84  TYR84       0.0417
     28  CZ       -12.6180   -1.2320   25.6610 C.ar   84  TYR84       0.1957
     29  OH       -13.5420   -2.2190   25.9140 O.3    84  TYR84      -0.2866
     30  N         -7.9540   -0.6640   16.6890 N.3   172  CYS172     -0.1235
     31  CA        -8.8260   -1.7920   16.8340 C.3   172  CYS172      0.1677
     32  C         -8.1970   -3.0410   16.2770 C.2   172  CYS172      0.2270
     33  O         -7.4490   -3.7570   16.9810 O.2   172  CYS172     -0.2867
     34  CB       -10.1480   -1.4400   16.1660 C.3   172  CYS172      0.0956
     35  SG       -11.3390   -2.7600   16.1490 S.3   172  CYS172     -0.0801
     36  N        -10.5240    3.0270   14.8250 N.3   187  GLU187     -0.1231
     37  CA       -11.9460    2.7460   14.8090 C.3   187  GLU187      0.1699
     38  C        -12.7380    3.8340   15.5340 C.2   187  GLU187      0.2592
     39  O        -13.1080    4.8370   14.9050 O.2   187  GLU187     -0.2718
     40  CB       -12.2240    1.3650   15.3600 C.3   187  GLU187      0.0402
     41  CG       -13.6690    0.9190   15.2620 C.3   187  GLU187      0.1161
     42  CD       -13.9860   -0.2510   16.1640 C.2   187  GLU187      0.3649
     43  OE1      -13.2860   -0.4210   17.1910 O.co2 187  GLU187     -0.2457
     44  OE2      -14.8960   -1.0400   15.8190 O.co2 187  GLU187     -0.2457
     45  N        -13.0070    3.7020   16.8380 N.am  188  ASN188     -0.1974
     46  CA       -13.8740    4.6700   17.5350 C.3   188  ASN188      0.1688
     47  C        -13.1250    5.9300   17.9930 C.2   188  ASN188      0.2292
     48  O        -13.2610    6.3910   19.1200 O.2   188  ASN188     -0.2864
     49  CB       -14.6110    3.9810   18.6780 C.3   188  ASN188      0.1181
     50  CG       -15.6800    3.0490   18.1240 C.2   188  ASN188      0.2629
     51  OD1      -16.5060    3.4850   17.3160 O.2   188  ASN188     -0.2716
     52  ND2      -15.6160    1.7570   18.4340 N.am  188  ASN188     -0.0877
     53  N        -14.9690    9.2220   19.6170 N.3   191  ASP191     -0.1239
     54  CA       -15.3080    9.1700   21.0480 C.3   191  ASP191      0.1674
     55  C        -14.3920   10.0550   21.8970 C.2   191  ASP191      0.2266
     56  O        -14.8180   10.5630   22.9240 O.2   191  ASP191     -0.2867
     57  CB       -15.0960    7.7450   21.5630 C.3   191  ASP191      0.1410
     58  CG       -16.0650    6.7510   20.9950 C.2   191  ASP191      0.3668
     59  OD1      -16.9490    7.1750   20.1890 O.co2 191  ASP191     -0.2456
     60  OD2      -15.9370    5.5270   21.3460 O.co2 191  ASP191     -0.2456
     61  N        -17.4130   10.7440   24.2600 N.3   216  ARG216     -0.1231
     62  CA       -18.1140    9.5300   24.6440 C.3   216  ARG216      0.1694
     63  C        -17.4440    8.9620   25.8820 C.2   216  ARG216      0.2591
     64  O        -16.7850    7.9140   25.8200 O.2   216  ARG216     -0.2718
     65  CB       -18.1830    8.5240   23.4830 C.3   216  ARG216      0.0321
     66  CG       -19.1970    7.4050   23.7270 C.3   216  ARG216      0.0489
     67  CD       -19.4600    6.5950   22.4920 C.3   216  ARG216      0.2205
     68  NE       -20.1660    7.3710   21.4700 N.pl3 216  ARG216     -0.0865
     69  CZ       -20.2890    7.0190   20.1900 C.cat 216  ARG216      0.5346
     70  NH1      -19.7370    5.8980   19.7450 N.pl3 216  ARG216      0.1354
     71  NH2      -20.9430    7.7990   19.3400 N.pl3 216  ARG216      0.1354
     72  N        -17.5970    9.7000   27.0080 N.am  217  GLU217     -0.1979
     73  CA       -17.0500    9.3800   28.3230 C.3   217  GLU217      0.1602
     74  C        -15.5150    9.2090   28.3240 C.2   217  GLU217      0.2287
     75  O        -14.9690    8.4760   29.1540 O.2   217  GLU217     -0.2864
     76  CB       -17.7640    8.1430   28.9190 C.3   217  GLU217      0.0415
     77  CG       -19.2470    8.3660   29.1680 C.3   217  GLU217      0.1163
     78  CD       -20.1340    8.2590   27.9460 C.2   217  GLU217      0.3649
     79  OE1      -19.9740    7.2860   27.1750 O.co2 217  GLU217     -0.2457
     80  OE2      -20.9890    9.1540   27.7570 O.co2 217  GLU217     -0.2457
     81  N        -12.1890   -1.1430   11.2820 N.3   266  GLU266     -0.1245
     82  CA       -11.9900   -2.2880   12.1540 C.3   266  GLU266      0.1567
     83  C        -10.6750   -3.0130   11.8040 C.2   266  GLU266      0.2260
     84  O         -9.7510   -2.9510   12.5700 O.2   266  GLU266     -0.2867
     85  CB       -13.1560   -3.2740   12.0780 C.3   266  GLU266      0.0388
     86  CG       -12.9860   -4.4520   13.0260 C.3   266  GLU266      0.1160
     87  CD       -13.7400   -4.3730   14.3230 C.2   266  GLU266      0.3649
     88  OE1      -14.6050   -3.4770   14.4650 O.co2 266  GLU266     -0.2457
     89  OE2      -13.4020   -5.1720   15.2340 O.co2 266  GLU266     -0.2457
     90  N        -17.0100    0.0070   11.3880 N.3   285  ASP285     -0.1225
     91  CA       -17.8230   -0.5710   12.4450 C.3   285  ASP285      0.1805
     92  C        -18.7230    0.4170   13.1600 C.2   285  ASP285      0.2598
     93  O        -18.4260    0.9290   14.2430 O.2   285  ASP285     -0.2718
     94  CB       -17.0120   -1.3790   13.4230 C.3   285  ASP285      0.1424
     95  CG       -17.9140   -2.0640   14.4350 C.2   285  ASP285      0.3668
     96  OD1      -19.1270   -2.1250   14.2020 O.co2 285  ASP285     -0.2456
     97  OD2      -17.4170   -2.4750   15.4670 O.co2 285  ASP285     -0.2456
     98  N        -19.8650    0.5890   12.5740 N.am  286  GLU286     -0.1965
     99  CA       -20.9500    1.3880   13.1470 C.3   286  GLU286      0.1733
    100  C        -22.2800    0.8840   12.5850 C.2   286  GLU286      0.2616
    101  O        -22.3690    0.5540   11.3950 O.2   286  GLU286     -0.2715
    102  CB       -20.7640    2.8910   12.9370 C.3   286  GLU286      0.0429
    103  CG       -21.8130    3.7260   13.6550 C.3   286  GLU286      0.1163
    104  CD       -21.5160    5.2120   13.6970 C.2   286  GLU286      0.3649
    105  OE1      -20.3160    5.5780   13.6350 O.co2 286  GLU286     -0.2457
    106  OE2      -22.4800    6.0120   13.8080 O.co2 286  GLU286     -0.2457
    107  N        -23.2940    0.7650   13.4310 N.am  287  ARG287     -0.1977
    108  CA       -24.6040    0.3300   12.9440 C.3   287  ARG287      0.1597
    109  C        -25.0200    1.1140   11.6730 C.2   287  ARG287      0.2287
    110  O        -25.0330    2.3400   11.6610 O.2   287  ARG287     -0.2864
    111  CB       -25.6860    0.5610   14.0010 C.3   287  ARG287      0.0334
    112  CG       -25.6660   -0.3860   15.1810 C.3   287  ARG287      0.0492
    113  CD       -26.8340   -0.0890   16.1110 C.3   287  ARG287      0.2205
    114  NE       -26.5470    1.0380   16.9850 N.pl3 287  ARG287     -0.0865
    115  CZ       -25.9370    0.9570   18.1650 C.cat 287  ARG287      0.5346
    116  NH1      -25.5260   -0.2190   18.6370 N.pl3 287  ARG287      0.1354
    117  NH2      -25.7250    2.0450   18.8760 N.pl3 287  ARG287      0.1354
    118  N        -23.0540   -3.5750   11.2980 N.3   378  ARG378     -0.1245
    119  CA       -21.7630   -3.4720   11.9770 C.3   378  ARG378      0.1563
    120  C        -20.6650   -4.4000   11.4890 C.2   378  ARG378      0.2260
    121  O        -20.3180   -5.3910   12.1390 O.2   378  ARG378     -0.2867
    122  CB       -21.9430   -3.6480   13.4810 C.3   378  ARG378      0.0307
    123  CG       -22.6780   -2.5020   14.1380 C.3   378  ARG378      0.0489
    124  CD       -22.6230   -2.6660   15.6200 C.3   378  ARG378      0.2205
    125  NE       -21.2310   -2.5800   16.0680 N.pl3 378  ARG378     -0.0865
    126  CZ       -20.7700   -3.0120   17.2380 C.cat 378  ARG378      0.5346
    127  NH1      -21.5990   -3.5270   18.1420 N.pl3 378  ARG378      0.1354
    128  NH2      -19.4810   -2.9080   17.5270 N.pl3 378  ARG378      0.1354
    129  N        -17.2940   -5.9320   11.2910 N.3   380  GLU380     -0.1245
    130  CA       -16.0910   -5.9520   12.0980 C.3   380  GLU380      0.1567
    131  C        -14.9850   -6.6190   11.2670 C.2   380  GLU380      0.2260
    132  O        -14.6820   -6.0770   10.1950 O.2   380  GLU380     -0.2867
    133  CB       -16.3260   -6.4680   13.5230 C.3   380  GLU380      0.0388
    134  CG       -17.1500   -5.4710   14.3320 C.3   380  GLU380      0.1160
    135  CD       -17.0420   -5.6050   15.8450 C.2   380  GLU380      0.3649
    136  OE1      -17.7300   -6.4880   16.3820 O.co2 380  GLU380     -0.2457
    137  OE2      -16.2280   -4.9010   16.4890 O.co2 380  GLU380     -0.2457
    138  N        -21.4970   -7.9400   13.4300 N.3   396  THR396     -0.1203
    139  CA       -21.5710   -8.3060   14.8460 C.3   396  THR396      0.1994
    140  C        -22.9230   -8.2620   15.4860 C.2   396  THR396      0.2617
    141  O        -23.2590   -9.1690   16.2520 O.2   396  THR396     -0.2717
    142  CB       -20.4930   -7.6100   15.6730 C.3   396  THR396      0.1784
    143  OG1      -20.2610   -8.3810   16.8720 O.3   396  THR396     -0.2211
    144  CG2      -20.8130   -6.1960   15.9600 C.3   396  THR396      0.0376
    145  N        -23.7050   -7.2480   15.1560 N.am  397  ASN397     -0.1974
    146  CA       -25.0880   -7.0870   15.6150 C.3   397  ASN397      0.1688
    147  C        -25.5950   -5.7850   15.0450 C.2   397  ASN397      0.2292
    148  O        -24.8160   -5.0300   14.4580 O.2   397  ASN397     -0.2864
    149  CB       -25.2070   -7.0710   17.1790 C.3   397  ASN397      0.1181
    150  CG       -24.2060   -6.2230   17.9020 C.2   397  ASN397      0.2629
    151  OD1      -24.2020   -4.9960   17.7670 O.2   397  ASN397     -0.2716
    152  ND2      -23.4140   -6.8300   18.7810 N.am  397  ASN397     -0.0877
    153  N        -16.8630  -11.0850   16.1920 N.3   472  ASP472     -0.1239
    154  CA       -16.1340   -9.8420   15.9750 C.3   472  ASP472      0.1674
    155  C        -14.8690  -10.1990   15.2210 C.2   472  ASP472      0.2266
    156  O        -14.8380  -10.0490   13.9790 O.2   472  ASP472     -0.2867
    157  CB       -15.9600   -9.1680   17.3350 C.3   472  ASP472      0.1410
    158  CG       -15.1510   -7.8880   17.3530 C.2   472  ASP472      0.3668
    159  OD1      -14.3150   -7.7120   16.4640 O.co2 472  ASP472     -0.2456
    160  OD2      -15.3720   -7.0620   18.2570 O.co2 472  ASP472     -0.2456
    161  N        -17.1800  -11.0020   20.8640 N.3   487  ASP487     -0.1239
    162  CA       -17.2800   -9.8100   21.6630 C.3   487  ASP487      0.1674
    163  C        -18.7400   -9.5090   21.8640 C.2   487  ASP487      0.2266
    164  O        -19.2650   -8.5120   21.3700 O.2   487  ASP487     -0.2867
    165  CB       -16.5720   -8.6250   20.9800 C.3   487  ASP487      0.1410
    166  CG       -16.7690   -7.3070   21.7180 C.2   487  ASP487      0.3668
    167  OD1      -16.9880   -7.3440   22.9630 O.co2 487  ASP487     -0.2456
    168  OD2      -16.7130   -6.2400   21.0610 O.co2 487  ASP487     -0.2456
    169  N        -13.5350   -9.6800   26.3210 N.3   525  GLU525     -0.1245
    170  CA       -13.8340  -10.1040   24.9750 C.3   525  GLU525      0.1567
    171  C        -12.5670  -10.8480   24.4880 C.2   525  GLU525      0.2260
    172  O        -11.4660  -10.6090   25.0180 O.2   525  GLU525     -0.2867
    173  CB       -14.2810   -9.0050   24.0300 C.3   525  GLU525      0.0388
    174  CG       -13.2170   -7.9960   23.6470 C.3   525  GLU525      0.1160
    175  CD       -13.8290   -6.8300   22.9160 C.2   525  GLU525      0.3649
    176  OE1      -14.4590   -6.0000   23.6060 O.co2 525  GLU525     -0.2457
    177  OE2      -13.7450   -6.7730   21.6670 O.co2 525  GLU525     -0.2457
@<TRIPOS>BOND
     1   132   131    2
     2   131   130    1
     3    81    82    1
     4   129   130    1
     5   118   119    1
     6    90    91    1
     7   101   100    2
     8   120   119    1
     9   120   121    2
    10   110   109    2
    11   109   108    1
    12    83    82    1
    13    83    84    2
    14   119   122    1
    15    85    82    1
    16    85    86    1
    17   130   133    1
    18    91    92    1
    19    91    94    1
    20    98    99    1
    21    98    92   am
    22   100    99    1
    23   100   107   am
    24   102    99    1
    25   102   103    1
    26   108   107    1
    27   108   111    1
    28    86    87    1
    29    92    93    2
    30    94    95    1
    31   138   139    1
    32   122   123    1
    33   133   134    1
    34   105   104   ar
    35   103   104    1
    36   104   106   ar
    37   156   155    2
    38   111   112    1
    39   123   124    1
    40    96    95   ar
    41    87    88   ar
    42    87    89   ar
    43   134   135    1
    44    95    97   ar
    45   148   147    2
    46    37    36    1
    47    37    40    1
    48    37    38    1
    49   139   140    1
    50   139   142    1
    51    39    38    2
    52   147   146    1
    53   145   140   am
    54   145   146    1
    55   112   113    1
    56   155   154    1
    57    41    40    1
    58    41    42    1
    59   140   141    2
    60    38    45   am
    61   146   149    1
    62   124   125    1
    63   142   144    1
    64   142   143    1
    65    44    42   ar
    66   135   136   ar
    67   135   137   ar
    68   154   153    1
    69   154   157    1
    70   125   126    2
    71   113   114    1
    72    35    34    1
    73    42    43   ar
    74    34    31    1
    75    32    31    1
    76    32    33    2
    77   159   158   ar
    78    30    31    1
    79    45    46    1
    80   114   115    2
    81   149   150    1
    82   126   128    1
    83   126   127    1
    84    51    50    2
    85   157   158    1
    86   158   160   ar
    87    46    47    1
    88    46    49    1
    89   151   150    2
    90   150   152   am
    91    47    48    2
    92    50    52   am
    93    50    49    1
    94   115   116    1
    95   115   117    1
    96     7     6   ar
    97     3     4    2
    98     3     2    1
    99    17    15   ar
   100    71    69    1
   101     6     8   ar
   102     6     5    1
   103    53    54    1
   104    70    69    1
   105     5     2    1
   106    59    58   ar
   107    69    68    2
   108     2     1    1
   109    15    14    1
   110    15    16   ar
   111    14    13    1
   112   161   162    1
   113   165   162    1
   114   165   166    1
   115    58    60   ar
   116    58    57    1
   117    54    57    1
   118    54    55    1
   119   168   166   ar
   120    13    10    1
   121   164   163    2
   122    68    67    1
   123    10     9    1
   124    10    11    1
   125   162   163    1
   126   177   175   ar
   127   166   167   ar
   128    55    56    2
   129    12    11    2
   130    11    18   am
   131    67    66    1
   132   175   176   ar
   133   175   174    1
   134    65    66    1
   135    65    62    1
   136   174   173    1
   137    18    19    1
   138   173   170    1
   139    24    26   ar
   140    24    23   ar
   141    61    62    1
   142    26    28   ar
   143   171   170    1
   144   171   172    2
   145    22    19    1
   146    22    23    1
   147    62    63    1
   148    19    20    1
   149    23    25   ar
   150   170   169    1
   151    28    29    1
   152    28    27   ar
   153    64    63    2
   154    63    72   am
   155    20    21    2
   156    25    27   ar
   157    72    73    1
   158    79    78   ar
   159    80    78   ar
   160    78    77    1
   161    73    74    1
   162    73    76    1
   163    74    75    2
   164    76    77    1
