@<TRIPOS>MOLECULE
tmp/4amiB04.pdb
 110 107 0 0 0
SMALL
GASTEIGER

@<TRIPOS>ATOM
      1  N         -3.9610  -13.4910   23.9710 N.3   140  VAL140     -0.1245
      2  CA        -3.5940  -12.4880   22.9730 C.3   140  VAL140      0.1561
      3  C         -2.1790  -12.7000   22.4170 C.2   140  VAL140      0.2260
      4  O         -1.7760  -12.0290   21.4630 O.2   140  VAL140     -0.2867
      5  CB        -3.7400  -11.0430   23.5030 C.3   140  VAL140      0.0252
      6  CG1       -3.8890  -10.0920   22.3300 C.3   140  VAL140      0.0019
      7  CG2       -4.9480  -10.9000   24.4080 C.3   140  VAL140      0.0019
      8  N         -2.8500  -15.6230   18.2140 N.3   144  PRO144     -0.2116
      9  CA        -2.5700  -14.9910   16.9190 C.3   144  PRO144      0.1372
     10  C         -1.2920  -15.4920   16.2400 C.2   144  PRO144      0.2244
     11  O         -1.1960  -15.4460   15.0100 O.2   144  PRO144     -0.2868
     12  CB        -2.4380  -13.5060   17.2780 C.3   144  PRO144      0.0268
     13  CG        -3.2620  -13.3570   18.5060 C.3   144  PRO144      0.0207
     14  CD        -2.9880  -14.6130   19.2780 C.3   144  PRO144      0.0892
     15  N         -1.0360  -17.9130   12.6440 N.3   148  HIS148     -0.1226
     16  CA        -0.2940  -17.2690   11.5450 C.3   148  HIS148      0.1752
     17  C         -0.9090  -15.9390   11.1030 C.2   148  HIS148      0.2596
     18  O         -0.7060  -15.5030    9.9700 O.2   148  HIS148     -0.2718
     19  CB        -0.1580  -18.2170   10.3410 C.3   148  HIS148      0.0759
     20  CG         0.7250  -19.4030   10.5900 C.ar  148  HIS148      0.0818
     21  ND1        1.2740  -20.1460    9.5670 N.ar  148  HIS148     -0.2268
     22  CD2        1.1640  -19.9670   11.7420 C.ar  148  HIS148      0.1154
     23  CE1        2.0030  -21.1230   10.0770 C.ar  148  HIS148      0.1986
     24  NE2        1.9540  -21.0350   11.3950 N.ar  148  HIS148     -0.2212
     25  N         -1.6520  -15.3050   12.0120 N.am  149  TRP149     -0.1976
     26  CA        -2.3050  -14.0150   11.7710 C.3   149  TRP149      0.1640
     27  C         -1.2840  -12.9140   11.5440 C.2   149  TRP149      0.2290
     28  O         -1.5910  -11.8790   10.9510 O.2   149  TRP149     -0.2864
     29  CB        -3.1940  -13.6550   12.9620 C.3   149  TRP149      0.0576
     30  CG        -4.5080  -14.3830   12.9920 C.ar  149  TRP149      0.0006
     31  CD1       -4.8830  -15.4350   12.2060 C.ar  149  TRP149      0.0946
     32  CD2       -5.6120  -14.1290   13.8710 C.ar  149  TRP149      0.0152
     33  NE1       -6.1560  -15.8410   12.5270 N.ar  149  TRP149     -0.2442
     34  CE2       -6.6260  -15.0590   13.5480 C.ar  149  TRP149      0.0810
     35  CE3       -5.8470  -13.2030   14.8970 C.ar  149  TRP149      0.0012
     36  CZ2       -7.8560  -15.0900   14.2110 C.ar  149  TRP149      0.0191
     37  CZ3       -7.0710  -13.2360   15.5590 C.ar  149  TRP149      0.0001
     38  CH2       -8.0590  -14.1730   15.2120 C.ar  149  TRP149      0.0015
     39  N          1.4780  -13.2320    9.7740 N.3   151  ARG151     -0.1231
     40  CA         2.2030  -13.4340    8.5100 C.3   151  ARG151      0.1694
     41  C          1.8700  -12.4290    7.4020 C.2   151  ARG151      0.2592
     42  O          0.7430  -11.9330    7.3100 O.2   151  ARG151     -0.2718
     43  CB         2.0350  -14.8700    8.0100 C.3   151  ARG151      0.0321
     44  CG         2.5660  -15.8980    8.9890 C.3   151  ARG151      0.0489
     45  CD         2.9360  -17.1950    8.2970 C.3   151  ARG151      0.2205
     46  NE         3.7510  -18.0400    9.1650 N.pl3 151  ARG151     -0.0865
     47  CZ         4.3240  -19.1780    8.7890 C.cat 151  ARG151      0.5346
     48  NH1        4.1700  -19.6320    7.5500 N.pl3 151  ARG151      0.1354
     49  NH2        5.0470  -19.8690    9.6600 N.pl3 151  ARG151      0.1354
     50  N          2.8760  -12.1430    6.5750 N.am  152  ASP152     -0.1960
     51  CA         2.7370  -11.2240    5.4490 C.3   152  ASP152      0.1840
     52  C          2.7110  -11.9730    4.1180 C.2   152  ASP152      0.2621
     53  O          3.1660  -13.1150    4.0290 O.2   152  ASP152     -0.2715
     54  CB         3.8720  -10.1960    5.4530 C.3   152  ASP152      0.1450
     55  CG         3.5080   -8.9160    4.7100 C.2   152  ASP152      0.3671
     56  OD1        2.3820   -8.8200    4.1630 O.co2 152  ASP152     -0.2456
     57  OD2        4.3540   -7.9960    4.6810 O.co2 152  ASP152     -0.2456
     58  N          2.1740  -11.3210    3.0890 N.am  153  GLU153     -0.1977
     59  CA         2.0580  -11.9210    1.7590 C.3   153  GLU153      0.1602
     60  C          3.2410  -11.5820    0.8470 C.2   153  GLU153      0.2287
     61  O          3.2700  -11.9690   -0.3260 O.2   153  GLU153     -0.2864
     62  CB         0.7280  -11.5350    1.1100 C.3   153  GLU153      0.0415
     63  CG        -0.4600  -12.2930    1.6830 C.3   153  GLU153      0.1163
     64  CD        -1.7870  -11.8770    1.0760 C.2   153  GLU153      0.3649
     65  OE1       -1.9070  -10.7190    0.6170 O.co2 153  GLU153     -0.2457
     66  OE2       -2.7160  -12.7140    1.0640 O.co2 153  GLU153     -0.2457
     67  N          2.9910   -8.8170    9.2110 N.3   172  ASN172     -0.1240
     68  CA         2.2530   -7.8310    8.4260 C.3   172  ASN172      0.1653
     69  C          1.9460   -6.5790    9.2490 C.2   172  ASN172      0.2266
     70  O          2.0680   -6.5910   10.4770 O.2   172  ASN172     -0.2867
     71  CB         0.9760   -8.4360    7.8270 C.3   172  ASN172      0.1155
     72  CG        -0.0610   -8.7920    8.8780 C.2   172  ASN172      0.2627
     73  OD1       -0.7100   -7.9160    9.4500 O.2   172  ASN172     -0.2716
     74  ND2       -0.2350  -10.0870    9.1190 N.am  172  ASN172     -0.0877
     75  N         -0.8710   -4.8780    9.8880 N.3   174  ALA174     -0.1231
     76  CA        -2.0330   -4.9710   10.7750 C.3   174  ALA174      0.1694
     77  C         -1.6660   -5.6370   12.1000 C.2   174  ALA174      0.2592
     78  O         -1.9500   -5.0830   13.1630 O.2   174  ALA174     -0.2718
     79  CB        -3.1810   -5.7040   10.1010 C.3   174  ALA174      0.0304
     80  N         -1.0230   -6.8060   12.0390 N.am  175  TYR175     -0.1976
     81  CA        -0.5970   -7.4870   13.2580 C.3   175  TYR175      0.1639
     82  C          0.3620   -6.6210   14.0650 C.2   175  TYR175      0.2290
     83  O          0.1940   -6.4630   15.2760 O.2   175  TYR175     -0.2864
     84  CB         0.0450   -8.8440   12.9730 C.3   175  TYR175      0.0560
     85  CG         0.5970   -9.4880   14.2240 C.ar  175  TYR175     -0.0198
     86  CD1       -0.2000  -10.3060   15.0150 C.ar  175  TYR175     -0.0009
     87  CD2        1.9050   -9.2540   14.6320 C.ar  175  TYR175     -0.0009
     88  CE1        0.2940  -10.8850   16.1720 C.ar  175  TYR175      0.0417
     89  CE2        2.4110   -9.8280   15.7840 C.ar  175  TYR175      0.0417
     90  CZ         1.6040  -10.6400   16.5500 C.ar  175  TYR175      0.1957
     91  OH         2.1120  -11.2070   17.6970 O.3   175  TYR175     -0.2866
     92  N         -1.8700   -3.7820   15.6810 N.3   178  ALA178     -0.1231
     93  CA        -2.8230   -4.3470   16.6430 C.3   178  ALA178      0.1694
     94  C         -2.1400   -4.9360   17.8790 C.2   178  ALA178      0.2592
     95  O         -2.4820   -4.5700   19.0020 O.2   178  ALA178     -0.2718
     96  CB        -3.7140   -5.3860   15.9770 C.3   178  ALA178      0.0304
     97  N         -1.1650   -5.8220   17.6640 N.am  179  SER179     -0.1952
     98  CA        -0.4910   -6.5240   18.7630 C.3   179  SER179      0.1924
     99  C          0.3240   -5.5990   19.6600 C.2   179  SER179      0.2314
    100  O          0.4710   -5.8610   20.8470 O.2   179  SER179     -0.2863
    101  CB         0.3880   -7.6610   18.2380 C.3   179  SER179      0.2116
    102  OG         1.4720   -7.1550   17.4810 O.3   179  SER179     -0.2180
    103  N         -2.6000   -3.7680   21.7320 N.3   182  ILE182     -0.1245
    104  CA        -3.2390   -4.6800   22.6760 C.3   182  ILE182      0.1561
    105  C         -2.2870   -5.1900   23.7750 C.2   182  ILE182      0.2260
    106  O         -2.6670   -5.2730   24.9490 O.2   182  ILE182     -0.2867
    107  CB        -3.9020   -5.8580   21.9330 C.3   182  ILE182      0.0252
    108  CG1       -5.1550   -5.3760   21.2090 C.3   182  ILE182      0.0019
    109  CG2       -4.2750   -6.9610   22.8980 C.3   182  ILE182      0.0019
    110  CD1       -5.7820   -6.4100   20.3000 C.3   182  ILE182      0.0001
@<TRIPOS>BOND
     1    61    60    2
     2    65    64   ar
     3    60    59    1
     4    66    64   ar
     5    64    63    1
     6    62    63    1
     7    62    59    1
     8    59    58    1
     9    58    52   am
    10    53    52    2
    11    52    51    1
    12    56    55   ar
    13    57    55   ar
    14    55    54    1
    15    51    54    1
    16    51    50    1
    17    50    41   am
    18    42    41    2
    19    41    40    1
    20    48    47    1
    21    71    68    1
    22    71    72    1
    23    43    40    1
    24    43    44    1
    25    45    44    1
    26    45    46    1
    27    68    67    1
    28    68    69    1
    29    40    39    1
    30    47    46    2
    31    47    49    1
    32    72    74   am
    33    72    73    2
    34    69    70    2
    35    21    23   ar
    36    21    20   ar
    37    75    76    1
    38    18    17    2
    39    23    24   ar
    40    79    76    1
    41    19    20    1
    42    19    16    1
    43    20    22   ar
    44    76    77    1
    45    28    27    2
    46    17    16    1
    47    17    25   am
    48    24    22   ar
    49    27    26    1
    50    16    15    1
    51    26    25    1
    52    26    29    1
    53    80    77   am
    54    80    81    1
    55    77    78    2
    56    31    33   ar
    57    31    30   ar
    58    33    34   ar
    59    29    30    1
    60    84    81    1
    61    84    85    1
    62    30    32   ar
    63    81    82    1
    64    34    32   ar
    65    34    36   ar
    66    32    35   ar
    67    82    83    2
    68    36    38   ar
    69    85    87   ar
    70    85    86   ar
    71    87    89   ar
    72    35    37   ar
    73    11    10    2
    74    86    88   ar
    75    38    37   ar
    76    92    93    1
    77    89    90   ar
    78    96    93    1
    79    88    90   ar
    80    10     9    1
    81    90    91    1
    82    93    94    1
    83     9    12    1
    84     9     8    1
    85    12    13    1
    86   102   101    1
    87    97    94   am
    88    97    98    1
    89    94    95    2
    90     8    14    1
    91   101    98    1
    92    13    14    1
    93    98    99    1
    94    99   100    2
    95   110   108    1
    96   108   107    1
    97     4     3    2
    98   103   104    1
    99   107   104    1
   100   107   109    1
   101     6     5    1
   102     3     2    1
   103   104   105    1
   104     2     5    1
   105     2     1    1
   106     5     7    1
   107   105   106    2
