@<TRIPOS>MOLECULE
tmp/4amiB03.pdb
 195 191 0 0 0
SMALL
GASTEIGER

@<TRIPOS>ATOM
      1  N         20.4260  -17.9830   18.4340 N.3    69  LEU69      -0.1245
      2  CA        20.2000  -17.3050   17.1550 C.3    69  LEU69       0.1561
      3  C         21.1950  -16.1670   16.9150 C.2    69  LEU69       0.2260
      4  O         21.6470  -15.9650   15.7860 O.2    69  LEU69      -0.2867
      5  CB        18.7580  -16.7890   17.0490 C.3    69  LEU69       0.0270
      6  CG        18.3040  -16.1800   15.7120 C.3    69  LEU69       0.0019
      7  CD1       16.8220  -16.4280   15.4780 C.3    69  LEU69       0.0001
      8  CD2       18.6140  -14.6900   15.6120 C.3    69  LEU69       0.0001
      9  N          8.6420  -20.3660   20.6980 N.3    85  TRP85      -0.1227
     10  CA         9.5810  -19.4150   21.2860 C.3    85  TRP85       0.1737
     11  C          9.0630  -17.9820   21.1850 C.2    85  TRP85       0.2596
     12  O          9.0040  -17.2670   22.1880 O.2    85  TRP85      -0.2718
     13  CB        10.9590  -19.5380   20.6310 C.3    85  TRP85       0.0564
     14  CG        11.9210  -18.4620   21.0310 C.ar   85  TRP85       0.0003
     15  CD1       12.4230  -18.2300   22.2820 C.ar   85  TRP85       0.0946
     16  CD2       12.5080  -17.4750   20.1730 C.ar   85  TRP85       0.0152
     17  NE1       13.2800  -17.1550   22.2550 N.ar   85  TRP85      -0.2442
     18  CE2       13.3520  -16.6750   20.9720 C.ar   85  TRP85       0.0810
     19  CE3       12.3990  -17.1860   18.8060 C.ar   85  TRP85       0.0012
     20  CZ2       14.0820  -15.6040   20.4510 C.ar   85  TRP85       0.0191
     21  CZ3       13.1280  -16.1190   18.2890 C.ar   85  TRP85       0.0001
     22  CH2       13.9570  -15.3420   19.1110 C.ar   85  TRP85       0.0015
     23  N          8.6790  -17.5750   19.9770 N.am   86  THR86      -0.1953
     24  CA         8.1300  -16.2360   19.7350 C.3    86  THR86       0.1897
     25  C          6.8750  -15.9800   20.5700 C.2    86  THR86       0.2313
     26  O          6.6900  -14.8810   21.0980 O.2    86  THR86      -0.2863
     27  CB         7.8120  -16.0110   18.2430 C.3    86  THR86       0.1794
     28  OG1        8.9730  -16.3030   17.4520 O.3    86  THR86      -0.2208
     29  CG2        7.3910  -14.5750   17.9980 C.3    86  THR86       0.0378
     30  N          7.9330  -15.2870   24.0860 N.3    89  ASP89      -0.1225
     31  CA         8.4920  -13.9410   24.1060 C.3    89  ASP89       0.1805
     32  C          7.3630  -12.9200   24.2410 C.2    89  ASP89       0.2597
     33  O          7.3420  -12.1250   25.1880 O.2    89  ASP89      -0.2718
     34  CB         9.3140  -13.6830   22.8340 C.3    89  ASP89       0.1424
     35  CG         9.9040  -12.2770   22.7800 C.2    89  ASP89       0.3668
     36  OD1        9.6820  -11.4750   23.7120 O.co2  89  ASP89      -0.2456
     37  OD2       10.6000  -11.9680   21.7920 O.co2  89  ASP89      -0.2456
     38  N          6.4250  -12.9650   23.2980 N.am   90  VAL90      -0.1980
     39  CA         5.2710  -12.0750   23.2940 C.3    90  VAL90       0.1595
     40  C          4.4400  -12.2220   24.5760 C.2    90  VAL90       0.2287
     41  O          3.9860  -11.2250   25.1310 O.2    90  VAL90      -0.2864
     42  CB         4.4210  -12.2860   22.0230 C.3    90  VAL90       0.0276
     43  CG1        3.1000  -11.5360   22.1020 C.3    90  VAL90       0.0022
     44  CG2        5.2050  -11.8460   20.7980 C.3    90  VAL90       0.0022
     45  N          6.2440  -10.3440   27.9480 N.3    93  VAL93      -0.1231
     46  CA         6.1620   -8.8800   27.9450 C.3    93  VAL93       0.1692
     47  C          4.7060   -8.4100   28.1280 C.2    93  VAL93       0.2592
     48  O          4.4560   -7.3980   28.7790 O.2    93  VAL93      -0.2718
     49  CB         6.8720   -8.2430   26.7130 C.3    93  VAL93       0.0266
     50  CG1        6.4040   -8.8720   25.4120 C.3    93  VAL93       0.0020
     51  CG2        6.6940   -6.7300   26.6790 C.3    93  VAL93       0.0020
     52  N          3.7560   -9.1710   27.5880 N.am   94  THR94      -0.1953
     53  CA         2.3360   -8.8810   27.7600 C.3    94  THR94       0.1897
     54  C          1.9200   -9.0400   29.2250 C.2    94  THR94       0.2313
     55  O          1.3070   -8.1390   29.7980 O.2    94  THR94      -0.2863
     56  CB         1.4650   -9.7680   26.8410 C.3    94  THR94       0.1794
     57  OG1        1.8290   -9.5340   25.4760 O.3    94  THR94      -0.2208
     58  CG2       -0.0140   -9.4550   27.0110 C.3    94  THR94       0.0378
     59  N         13.9760  -17.5930   11.4540 N.3   167  CYS167     -0.1221
     60  CA        13.0650  -17.2960   12.5550 C.3   167  CYS167      0.1808
     61  C         13.0140  -15.7980   12.7870 C.2   167  CYS167      0.2601
     62  O         13.0340  -15.3390   13.9240 O.2   167  CYS167     -0.2717
     63  CB        13.4990  -18.0280   13.8270 C.3   167  CYS167      0.0970
     64  SG        12.2870  -18.0730   15.1740 S.3   167  CYS167     -0.0800
     65  N         12.9710  -15.0420   11.6930 N.am  168  ASP168     -0.1959
     66  CA        12.7010  -13.6090   11.7460 C.3   168  ASP168      0.1840
     67  C         11.2110  -13.4000   11.9560 C.2   168  ASP168      0.2622
     68  O         10.3870  -14.1340   11.4010 O.2   168  ASP168     -0.2715
     69  CB        13.1420  -12.9120   10.4570 C.3   168  ASP168      0.1450
     70  CG        14.6450  -12.9400   10.2570 C.2   168  ASP168      0.3671
     71  OD1       15.2730  -13.9880   10.5430 O.co2 168  ASP168     -0.2456
     72  OD2       15.1970  -11.9130    9.8010 O.co2 168  ASP168     -0.2456
     73  N         10.8660  -12.3980   12.7570 N.am  169  PHE169     -0.1974
     74  CA         9.4680  -12.1170   13.0490 C.3   169  PHE169      0.1639
     75  C          8.9120  -11.0820   12.0680 C.2   169  PHE169      0.2290
     76  O          8.4460  -10.0060   12.4550 O.2   169  PHE169     -0.2864
     77  CB         9.3050  -11.6850   14.5100 C.3   169  PHE169      0.0560
     78  CG         7.9000  -11.8020   15.0270 C.ar  169  PHE169     -0.0200
     79  CD1        7.1590  -12.9600   14.8150 C.ar  169  PHE169     -0.0042
     80  CD2        7.3250  -10.7590   15.7440 C.ar  169  PHE169     -0.0042
     81  CE1        5.8650  -13.0690   15.2920 C.ar  169  PHE169     -0.0003
     82  CE2        6.0320  -10.8630   16.2290 C.ar  169  PHE169     -0.0003
     83  CZ         5.3010  -12.0210   16.0040 C.ar  169  PHE169     -0.0000
     84  N         -1.0230   -6.8060   12.0390 N.3   175  TYR175     -0.1241
     85  CA        -0.5970   -7.4870   13.2580 C.3   175  TYR175      0.1605
     86  C          0.3620   -6.6210   14.0650 C.2   175  TYR175      0.2264
     87  O          0.1940   -6.4630   15.2760 O.2   175  TYR175     -0.2867
     88  CB         0.0450   -8.8440   12.9730 C.3   175  TYR175      0.0534
     89  CG         0.5970   -9.4880   14.2240 C.ar  175  TYR175     -0.0201
     90  CD1       -0.2000  -10.3060   15.0150 C.ar  175  TYR175     -0.0009
     91  CD2        1.9050   -9.2540   14.6320 C.ar  175  TYR175     -0.0009
     92  CE1        0.2940  -10.8850   16.1720 C.ar  175  TYR175      0.0417
     93  CE2        2.4110   -9.8280   15.7840 C.ar  175  TYR175      0.0417
     94  CZ         1.6040  -10.6400   16.5500 C.ar  175  TYR175      0.1957
     95  OH         2.1120  -11.2070   17.6970 O.3   175  TYR175     -0.2866
     96  N         -1.1650   -5.8220   17.6640 N.3   179  SER179     -0.1202
     97  CA        -0.4910   -6.5240   18.7630 C.3   179  SER179      0.2020
     98  C          0.3240   -5.5990   19.6600 C.2   179  SER179      0.2619
     99  O          0.4710   -5.8610   20.8470 O.2   179  SER179     -0.2717
    100  CB         0.3880   -7.6610   18.2380 C.3   179  SER179      0.2103
    101  OG         1.4720   -7.1550   17.4810 O.3   179  SER179     -0.2182
    102  N          0.8580   -4.5250   19.0860 N.am  180  SER180     -0.1951
    103  CA         1.5390   -3.4970   19.8700 C.3   180  SER180      0.1924
    104  C          0.5500   -2.7610   20.7700 C.2   180  SER180      0.2314
    105  O          0.8320   -2.5210   21.9480 O.2   180  SER180     -0.2863
    106  CB         2.2570   -2.5000   18.9610 C.3   180  SER180      0.2116
    107  OG         3.4720   -3.0470   18.4830 O.3   180  SER180     -0.2180
    108  N         -1.0560   -5.5270   23.4050 N.3   183  SER183     -0.1217
    109  CA        -0.1230   -6.0940   24.3730 C.3   183  SER183      0.1889
    110  C          0.6220   -5.0450   25.1800 C.2   183  SER183      0.2288
    111  O          1.0140   -5.3080   26.3130 O.2   183  SER183     -0.2866
    112  CB         0.8750   -7.0320   23.6970 C.3   183  SER183      0.2089
    113  OG         0.2330   -8.1900   23.1830 O.3   183  SER183     -0.2183
    114  N         11.3850   -0.9660   27.2710 N.3   234  TRP234     -0.1241
    115  CA        10.5180   -1.4910   26.2110 C.3   234  TRP234      0.1605
    116  C          9.9980   -0.4680   25.2090 C.2   234  TRP234      0.2264
    117  O          9.7590   -0.8140   24.0490 O.2   234  TRP234     -0.2867
    118  CB         9.3480   -2.2830   26.7940 C.3   234  TRP234      0.0550
    119  CG         9.7120   -3.6780   27.1700 C.ar  234  TRP234      0.0003
    120  CD1        9.7770   -4.1910   28.4270 C.ar  234  TRP234      0.0946
    121  CD2       10.0720   -4.7460   26.2810 C.ar  234  TRP234      0.0152
    122  NE1       10.1500   -5.5120   28.3840 N.ar  234  TRP234     -0.2442
    123  CE2       10.3380   -5.8780   27.0770 C.ar  234  TRP234      0.0810
    124  CE3       10.1920   -4.8560   24.8900 C.ar  234  TRP234      0.0012
    125  CZ2       10.7160   -7.1080   26.5300 C.ar  234  TRP234      0.0191
    126  CZ3       10.5740   -6.0800   24.3490 C.ar  234  TRP234      0.0001
    127  CH2       10.8310   -7.1850   25.1690 C.ar  234  TRP234      0.0015
    128  N         11.7780   -0.1720   21.7360 N.3   237  PHE237     -0.1227
    129  CA        11.4250   -1.2850   20.8530 C.3   237  PHE237      0.1736
    130  C         10.0650   -1.0890   20.1830 C.2   237  PHE237      0.2595
    131  O          9.9420   -1.2420   18.9690 O.2   237  PHE237     -0.2718
    132  CB        11.4490   -2.6240   21.6020 C.3   237  PHE237      0.0547
    133  CG        10.9560   -3.7760   20.7770 C.ar  237  PHE237     -0.0202
    134  CD1       11.8260   -4.4780   19.9490 C.ar  237  PHE237     -0.0042
    135  CD2        9.6170   -4.1470   20.8030 C.ar  237  PHE237     -0.0042
    136  CE1       11.3690   -5.5330   19.1710 C.ar  237  PHE237     -0.0003
    137  CE2        9.1550   -5.2010   20.0280 C.ar  237  PHE237     -0.0003
    138  CZ        10.0320   -5.8970   19.2130 C.ar  237  PHE237     -0.0000
    139  N          9.0490   -0.7570   20.9770 N.am  238  PHE238     -0.1976
    140  CA         7.6830   -0.6420   20.4650 C.3   238  PHE238      0.1639
    141  C          7.4650    0.6050   19.6180 C.2   238  PHE238      0.2290
    142  O          6.5510    0.6360   18.7880 O.2   238  PHE238     -0.2864
    143  CB         6.6550   -0.7230   21.6000 C.3   238  PHE238      0.0560
    144  CG         6.3590   -2.1260   22.0500 C.ar  238  PHE238     -0.0200
    145  CD1        5.4190   -2.9000   21.3780 C.ar  238  PHE238     -0.0042
    146  CD2        7.0210   -2.6790   23.1430 C.ar  238  PHE238     -0.0042
    147  CE1        5.1420   -4.1980   21.7880 C.ar  238  PHE238     -0.0003
    148  CE2        6.7530   -3.9780   23.5560 C.ar  238  PHE238     -0.0003
    149  CZ         5.8110   -4.7380   22.8780 C.ar  238  PHE238     -0.0000
    150  N          9.0700   -0.4750   16.3080 N.3   241  ASN241     -0.1240
    151  CA         8.1110   -1.4250   15.7450 C.3   241  ASN241      0.1653
    152  C          6.9880   -0.7350   14.9630 C.2   241  ASN241      0.2266
    153  O          6.5570   -1.2240   13.9140 O.2   241  ASN241     -0.2867
    154  CB         7.5210   -2.2800   16.8750 C.3   241  ASN241      0.1155
    155  CG         7.0790   -3.6580   16.4150 C.2   241  ASN241      0.2627
    156  OD1        7.6450   -4.2380   15.4870 O.2   241  ASN241     -0.2716
    157  ND2        6.0710   -4.2020   17.0870 N.am  241  ASN241     -0.0877
    158  N         17.1480   -2.3460   15.7710 N.3   256  PHE256     -0.1227
    159  CA        15.9430   -3.0810   16.1260 C.3   256  PHE256      0.1736
    160  C         16.2550   -4.2670   17.0440 C.2   256  PHE256      0.2595
    161  O         15.5110   -4.5390   17.9870 O.2   256  PHE256     -0.2718
    162  CB        15.2360   -3.5560   14.8540 C.3   256  PHE256      0.0547
    163  CG        13.8870   -4.1670   15.0970 C.ar  256  PHE256     -0.0202
    164  CD1       12.7930   -3.3660   15.4120 C.ar  256  PHE256     -0.0042
    165  CD2       13.7050   -5.5400   14.9940 C.ar  256  PHE256     -0.0042
    166  CE1       11.5440   -3.9200   15.6330 C.ar  256  PHE256     -0.0003
    167  CE2       12.4580   -6.1040   15.2110 C.ar  256  PHE256     -0.0003
    168  CZ        11.3750   -5.2930   15.5310 C.ar  256  PHE256     -0.0000
    169  N         17.3600   -4.9590   16.7710 N.am  257  VAL257     -0.1980
    170  CA        17.7680   -6.1100   17.5800 C.3   257  VAL257      0.1595
    171  C         18.3530   -5.6550   18.9210 C.2   257  VAL257      0.2287
    172  O         18.1300   -6.2950   19.9540 O.2   257  VAL257     -0.2864
    173  CB        18.7420   -7.0350   16.8130 C.3   257  VAL257      0.0276
    174  CG1       19.2040   -8.2000   17.6800 C.3   257  VAL257      0.0022
    175  CG2       18.0740   -7.5670   15.5530 C.3   257  VAL257      0.0022
    176  N         15.4680   -4.6770   21.2160 N.3   260  ASN260     -0.1240
    177  CA        14.8170   -5.8960   21.6870 C.3   260  ASN260      0.1653
    178  C         15.6070   -6.5450   22.8270 C.2   260  ASN260      0.2266
    179  O         15.0270   -7.1750   23.7140 O.2   260  ASN260     -0.2867
    180  CB        14.6370   -6.8860   20.5310 C.3   260  ASN260      0.1155
    181  CG        13.4400   -7.8120   20.7170 C.2   260  ASN260      0.2627
    182  OD1       12.7090   -8.0740   19.7640 O.2   260  ASN260     -0.2716
    183  ND2       13.2400   -8.3210   21.9300 N.am  260  ASN260     -0.0877
    184  N         14.8390   -7.4100   26.8110 N.3   264  TYR264     -0.1241
    185  CA        15.2020   -8.6660   27.4590 C.3   264  TYR264      0.1605
    186  C         15.9530   -8.3970   28.7630 C.2   264  TYR264      0.2264
    187  O         15.6750   -9.0190   29.7930 O.2   264  TYR264     -0.2867
    188  CB        16.0480   -9.5520   26.5360 C.3   264  TYR264      0.0534
    189  CG        15.2990  -10.1930   25.3830 C.ar  264  TYR264     -0.0201
    190  CD1       13.9170  -10.4050   25.4420 C.ar  264  TYR264     -0.0009
    191  CD2       15.9750  -10.5830   24.2260 C.ar  264  TYR264     -0.0009
    192  CE1       13.2350  -10.9880   24.3850 C.ar  264  TYR264      0.0417
    193  CE2       15.3010  -11.1700   23.1650 C.ar  264  TYR264      0.0417
    194  CZ        13.9320  -11.3700   23.2530 C.ar  264  TYR264      0.1957
    195  OH        13.2620  -11.9490   22.2050 O.3   264  TYR264     -0.2866
@<TRIPOS>BOND
     1    72    70   ar
     2    70    69    1
     3    70    71   ar
     4    69    66    1
     5    68    67    2
     6    59    60    1
     7    65    66    1
     8    65    61   am
     9    66    67    1
    10    67    73   am
    11    84    85    1
    12    75    76    2
    13    75    74    1
    14    60    61    1
    15    60    63    1
    16    73    74    1
    17    61    62    2
    18    88    85    1
    19    88    89    1
    20    74    77    1
    21    85    86    1
    22    63    64    1
    23   153   152    2
    24    86    87    2
    25    89    91   ar
    26    89    90   ar
    27    77    78    1
    28    91    93   ar
    29    79    78   ar
    30    79    81   ar
    31   162   163    1
    32   162   159    1
    33   152   151    1
    34   165   163   ar
    35   165   167   ar
    36    90    92   ar
    37    78    80   ar
    38   163   164   ar
    39   167   168   ar
    40    81    83   ar
    41   164   166   ar
    42     7     6    1
    43   156   155    2
    44   168   166   ar
    45   175   173    1
    46     8     6    1
    47     6     5    1
    48    80    82   ar
    49   151   150    1
    50   151   154    1
    51   158   159    1
    52    93    94   ar
    53     4     3    2
    54    83    82   ar
    55   159   160    1
    56    92    94   ar
    57   155   154    1
    58   155   157   am
    59    94    95    1
    60   169   160   am
    61   169   170    1
    62   173   170    1
    63   173   174    1
    64     3     2    1
    65   160   161    2
    66     5     2    1
    67     2     1    1
    68    28    27    1
    69   101   100    1
    70   170   171    1
    71    96    97    1
    72    29    27    1
    73   100    97    1
    74    27    24    1
    75    21    19   ar
    76    21    22   ar
    77   107   106    1
    78    97    98    1
    79   142   141    2
    80    19    16   ar
    81   171   172    2
    82   106   103    1
    83   131   130    2
    84   102    98   am
    85   102   103    1
    86    22    20   ar
    87   136   138   ar
    88   136   134   ar
    89   138   137   ar
    90   141   140    1
    91    98    99    2
    92    24    23    1
    93    24    25    1
    94   182   181    2
    95   103   104    1
    96   134   133   ar
    97    23    11   am
    98   137   135   ar
    99    16    18   ar
   100    16    14   ar
   101   130   129    1
   102   130   139   am
   103    20    18   ar
   104   140   139    1
   105   140   143    1
   106   180   181    1
   107   180   177    1
   108    25    26    2
   109    13    14    1
   110    13    10    1
   111     9    10    1
   112   181   183   am
   113   104   105    2
   114   133   135   ar
   115   133   132    1
   116    44    42    1
   117   129   132    1
   118   129   128    1
   119    18    17   ar
   120    14    15   ar
   121    11    10    1
   122    11    12    2
   123   176   177    1
   124   145   147   ar
   125   145   144   ar
   126   143   144    1
   127   177   178    1
   128   147   149   ar
   129    37    35   ar
   130    42    43    1
   131    42    39    1
   132   144   146   ar
   133   195   194    1
   134    17    15   ar
   135    35    34    1
   136    35    36   ar
   137   178   179    2
   138    34    31    1
   139   149   148   ar
   140   146   148   ar
   141   193   194   ar
   142   193   191   ar
   143   113   112    1
   144   194   192   ar
   145    39    38    1
   146    39    40    1
   147    38    32   am
   148   108   109    1
   149   112   109    1
   150   117   116    2
   151    30    31    1
   152    31    32    1
   153   191   189   ar
   154    32    33    2
   155   126   124   ar
   156   126   127   ar
   157   109   110    1
   158   192   190   ar
   159    40    41    2
   160   124   121   ar
   161   127   125   ar
   162   110   111    2
   163   116   115    1
   164   189   190   ar
   165   189   188    1
   166    50    49    1
   167    57    56    1
   168   115   118    1
   169   115   114    1
   170   121   123   ar
   171   121   119   ar
   172   125   123   ar
   173   188   185    1
   174    51    49    1
   175    49    46    1
   176   118   119    1
   177   184   185    1
   178    56    58    1
   179    56    53    1
   180   123   122   ar
   181   119   120   ar
   182   185   186    1
   183    52    53    1
   184    52    47   am
   185    53    54    1
   186    46    45    1
   187    46    47    1
   188    47    48    2
   189   122   120   ar
   190   186   187    2
   191    54    55    2
