@<TRIPOS>MOLECULE
tmp/4amiB01.pdb
 76 69 0 0 0
SMALL
GASTEIGER

@<TRIPOS>ATOM
      1  N          0.8520   -6.0710   32.0930 N.3    98  GLU98      -0.1245
      2  CA        -0.4830   -6.2370   32.6720 C.3    98  GLU98       0.1567
      3  C         -0.4350   -6.3680   34.1990 C.2    98  GLU98       0.2260
      4  O         -1.3200   -5.8720   34.9040 O.2    98  GLU98      -0.2867
      5  CB        -1.2290   -7.4160   32.0380 C.3    98  GLU98       0.0388
      6  CG        -1.7680   -7.1090   30.6480 C.3    98  GLU98       0.1160
      7  CD        -2.6560   -8.2020   30.0740 C.2    98  GLU98       0.3649
      8  OE1       -3.1930   -9.0250   30.8470 O.co2  98  GLU98      -0.2457
      9  OE2       -2.8310   -8.2280   28.8370 O.co2  98  GLU98      -0.2457
     10  N          0.2610   -3.1430   35.7060 N.3   101  CYS101     -0.1235
     11  CA        -0.9780   -2.3970   35.5960 C.3   101  CYS101      0.1677
     12  C         -1.8730   -2.7100   36.7850 C.2   101  CYS101      0.2270
     13  O         -2.5060   -1.8160   37.3440 O.2   101  CYS101     -0.2867
     14  CB        -1.6780   -2.7660   34.2960 C.3   101  CYS101      0.0956
     15  SG        -2.6370   -1.4350   33.5670 S.3   101  CYS101     -0.0801
     16  N         -4.8760  -12.3990   34.5350 N.3   133  VAL133     -0.1245
     17  CA        -3.8260  -11.6950   33.7980 C.3   133  VAL133      0.1561
     18  C         -3.0960  -12.6560   32.8460 C.2   133  VAL133      0.2260
     19  O         -2.9280  -12.3550   31.6580 O.2   133  VAL133     -0.2867
     20  CB        -2.8470  -10.9610   34.7450 C.3   133  VAL133      0.0252
     21  CG1       -1.5550  -10.5770   34.0340 C.3   133  VAL133      0.0019
     22  CG2       -3.5050   -9.7170   35.3130 C.3   133  VAL133      0.0019
     23  N         -5.5290  -13.9070   29.9350 N.3   136  ILE136     -0.1245
     24  CA        -5.6710  -12.8640   28.9200 C.3   136  ILE136      0.1561
     25  C         -4.3790  -12.7480   28.1100 C.2   136  ILE136      0.2260
     26  O         -4.4170  -12.7590   26.8790 O.2   136  ILE136     -0.2867
     27  CB        -6.0590  -11.5070   29.5550 C.3   136  ILE136      0.0252
     28  CG1       -7.4670  -11.5890   30.1550 C.3   136  ILE136      0.0019
     29  CG2       -5.9650  -10.3660   28.5430 C.3   136  ILE136      0.0019
     30  CD1       -7.7370  -10.5560   31.2310 C.3   136  ILE136      0.0001
     31  N         -3.9610  -13.4910   23.9710 N.3   140  VAL140     -0.1245
     32  CA        -3.5940  -12.4880   22.9730 C.3   140  VAL140      0.1561
     33  C         -2.1790  -12.7000   22.4170 C.2   140  VAL140      0.2260
     34  O         -1.7760  -12.0290   21.4630 O.2   140  VAL140     -0.2867
     35  CB        -3.7400  -11.0430   23.5030 C.3   140  VAL140      0.0252
     36  CG1       -3.8890  -10.0920   22.3300 C.3   140  VAL140      0.0019
     37  CG2       -4.9480  -10.9000   24.4080 C.3   140  VAL140      0.0019
     38  N         -0.6090   -2.4140   20.2080 N.3   181  ILE181     -0.1231
     39  CA        -1.6510   -1.6860   20.9350 C.3   181  ILE181      0.1692
     40  C         -2.2170   -2.5450   22.0690 C.2   181  ILE181      0.2591
     41  O         -2.2790   -2.1160   23.2210 O.2   181  ILE181     -0.2718
     42  CB        -2.7730   -1.1940   19.9830 C.3   181  ILE181      0.0266
     43  CG1       -2.2270   -0.1200   19.0400 C.3   181  ILE181      0.0019
     44  CG2       -3.9520   -0.6360   20.7670 C.3   181  ILE181      0.0020
     45  CD1       -3.1910    0.3170   17.9600 C.3   181  ILE181      0.0001
     46  N         -2.6000   -3.7680   21.7320 N.am  182  ILE182     -0.1980
     47  CA        -3.2390   -4.6800   22.6760 C.3   182  ILE182      0.1595
     48  C         -2.2870   -5.1900   23.7750 C.2   182  ILE182      0.2287
     49  O         -2.6670   -5.2730   24.9490 O.2   182  ILE182     -0.2864
     50  CB        -3.9020   -5.8580   21.9330 C.3   182  ILE182      0.0276
     51  CG1       -5.1550   -5.3760   21.2090 C.3   182  ILE182      0.0022
     52  CG2       -4.2750   -6.9610   22.8980 C.3   182  ILE182      0.0022
     53  CD1       -5.7820   -6.4100   20.3000 C.3   182  ILE182      0.0001
     54  N         -1.9960    0.0450   25.2210 N.3   186  ILE186     -0.1231
     55  CA        -3.1590    0.2470   26.0900 C.3   186  ILE186      0.1678
     56  C         -2.8010    0.0930   27.5790 C.2   186  ILE186      0.2434
     57  O         -3.0240    1.0280   28.3510 O.2   186  ILE186     -0.2733
     58  CB        -4.3770   -0.6200   25.6860 C.3   186  ILE186      0.0265
     59  CG1       -5.0180   -0.0710   24.4060 C.3   186  ILE186      0.0019
     60  CG2       -5.4130   -0.6550   26.8020 C.3   186  ILE186      0.0020
     61  CD1       -6.1290   -0.9330   23.8350 C.3   186  ILE186      0.0001
     62  N         -2.2260   -1.0670   27.9850 N.am  187  PRO187     -0.2729
     63  CA        -1.8790   -1.2090   29.4060 C.3   187  PRO187      0.1401
     64  C         -0.8210   -0.2200   29.8980 C.2   187  PRO187      0.2269
     65  O         -0.8300    0.1240   31.0820 O.2   187  PRO187     -0.2865
     66  CB        -1.3590   -2.6500   29.5120 C.3   187  PRO187      0.0296
     67  CG        -1.0070   -3.0440   28.1270 C.3   187  PRO187      0.0237
     68  CD        -1.9750   -2.3190   27.2460 C.3   187  PRO187      0.0939
     69  N         -2.8230    3.0100   30.6710 N.3   190  ILE190     -0.1245
     70  CA        -3.5570    2.7730   31.9120 C.3   190  ILE190      0.1561
     71  C         -2.6130    2.8310   33.1110 C.2   190  ILE190      0.2260
     72  O         -2.9330    3.4670   34.1110 O.2   190  ILE190     -0.2867
     73  CB        -4.3410    1.4430   31.8810 C.3   190  ILE190      0.0252
     74  CG1       -5.4000    1.4900   30.7730 C.3   190  ILE190      0.0019
     75  CG2       -4.9930    1.1640   33.2300 C.3   190  ILE190      0.0019
     76  CD1       -6.0590    0.1640   30.4640 C.3   190  ILE190      0.0001
@<TRIPOS>BOND
     1    45    43    1
     2    43    42    1
     3    42    44    1
     4    42    39    1
     5    38    39    1
     6    53    51    1
     7    39    40    1
     8    51    50    1
     9    34    33    2
    10    46    40   am
    11    46    47    1
    12    50    47    1
    13    50    52    1
    14    40    41    2
    15    36    35    1
    16    33    32    1
    17    47    48    1
    18    32    35    1
    19    32    31    1
    20    35    37    1
    21    48    49    2
    22    61    59    1
    23    59    58    1
    24    54    55    1
    25    58    55    1
    26    58    60    1
    27    55    56    1
    28    26    25    2
    29    68    62    1
    30    68    67    1
    31    56    62   am
    32    56    57    2
    33    62    63    1
    34    25    24    1
    35    67    66    1
    36    29    27    1
    37     9     7   ar
    38    24    27    1
    39    24    23    1
    40    63    66    1
    41    63    64    1
    42    27    28    1
    43    64    65    2
    44     7     6    1
    45     7     8   ar
    46    28    30    1
    47    76    74    1
    48     6     5    1
    49    69    70    1
    50    74    73    1
    51    19    18    2
    52    73    70    1
    53    73    75    1
    54    70    71    1
    55     5     2    1
    56     1     2    1
    57     2     3    1
    58    18    17    1
    59    71    72    2
    60    15    14    1
    61    17    16    1
    62    17    20    1
    63    21    20    1
    64     3     4    2
    65    14    11    1
    66    20    22    1
    67    11    10    1
    68    11    12    1
    69    12    13    2
