@<TRIPOS>MOLECULE
tmp/4amiA01.pdb
 121 119 0 0 0
SMALL
GASTEIGER

@<TRIPOS>ATOM
      1  N        -11.3790  -12.4090   21.3310 N.3   140  VAL140     -0.1245
      2  CA       -11.7890  -11.9990   22.6640 C.3   140  VAL140      0.1561
      3  C        -13.1460  -12.5900   23.0490 C.2   140  VAL140      0.2260
      4  O        -13.4000  -12.8580   24.2240 O.2   140  VAL140     -0.2867
      5  CB       -11.8080  -10.4560   22.7460 C.3   140  VAL140      0.0252
      6  CG1      -12.7280   -9.9590   23.8500 C.3   140  VAL140      0.0019
      7  CG2      -10.3930   -9.9220   22.9270 C.3   140  VAL140      0.0019
      8  N        -12.7470  -17.6790   24.7350 N.3   144  PRO144     -0.2116
      9  CA       -13.0340  -17.9000   26.1580 C.3   144  PRO144      0.1372
     10  C        -14.3440  -18.6590   26.4230 C.2   144  PRO144      0.2244
     11  O        -14.4640  -19.3440   27.4470 O.2   144  PRO144     -0.2868
     12  CB       -13.1060  -16.4790   26.7260 C.3   144  PRO144      0.0268
     13  CG       -12.2420  -15.6830   25.8140 C.3   144  PRO144      0.0207
     14  CD       -12.5150  -16.2510   24.4530 C.3   144  PRO144      0.0892
     15  N        -14.7190  -22.6580   27.9910 N.3   148  HIS148     -0.1226
     16  CA       -15.4560  -22.7360   29.2600 C.3   148  HIS148      0.1752
     17  C        -14.8000  -21.9210   30.3860 C.2   148  HIS148      0.2596
     18  O        -14.9990  -22.2080   31.5690 O.2   148  HIS148     -0.2718
     19  CB       -15.6440  -24.2030   29.6940 C.3   148  HIS148      0.0759
     20  CG       -16.5570  -24.9950   28.8060 C.ar  148  HIS148      0.0818
     21  ND1      -17.1420  -26.1760   29.2120 N.ar  148  HIS148     -0.2268
     22  CD2      -16.9960  -24.7730   27.5430 C.ar  148  HIS148      0.1154
     23  CE1      -17.8890  -26.6540   28.2330 C.ar  148  HIS148      0.1986
     24  NE2      -17.8210  -25.8180   27.2110 N.ar  148  HIS148     -0.2212
     25  N        -14.0320  -20.9020   30.0040 N.am  149  TRP149     -0.1976
     26  CA       -13.3590  -20.0090   30.9490 C.3   149  TRP149      0.1640
     27  C        -14.3590  -19.2030   31.7690 C.2   149  TRP149      0.2290
     28  O        -14.0330  -18.6940   32.8480 O.2   149  TRP149     -0.2864
     29  CB       -12.4320  -19.0580   30.1900 C.3   149  TRP149      0.0576
     30  CG       -11.1400  -19.6830   29.7360 C.ar  149  TRP149      0.0006
     31  CD1      -10.8100  -21.0080   29.7720 C.ar  149  TRP149      0.0946
     32  CD2      -10.0180  -19.0080   29.1510 C.ar  149  TRP149      0.0152
     33  NE1       -9.5490  -21.1990   29.2630 N.ar  149  TRP149     -0.2442
     34  CE2       -9.0400  -19.9890   28.8720 C.ar  149  TRP149      0.0810
     35  CE3       -9.7410  -17.6690   28.8400 C.ar  149  TRP149      0.0012
     36  CZ2       -7.8030  -19.6750   28.2970 C.ar  149  TRP149      0.0191
     37  CZ3       -8.5090  -17.3570   28.2690 C.ar  149  TRP149      0.0001
     38  CH2       -7.5570  -18.3580   28.0030 C.ar  149  TRP149      0.0015
     39  N        -17.2990  -20.4390   32.8600 N.3   151  ARG151     -0.1231
     40  CA       -18.0430  -21.3280   33.7510 C.3   151  ARG151      0.1694
     41  C        -17.5820  -21.2270   35.2030 C.2   151  ARG151      0.2592
     42  O        -16.4120  -20.9460   35.4720 O.2   151  ARG151     -0.2718
     43  CB       -17.9590  -22.7750   33.2540 C.3   151  ARG151      0.0321
     44  CG       -18.5320  -22.9770   31.8610 C.3   151  ARG151      0.0489
     45  CD       -18.8200  -24.4380   31.5670 C.3   151  ARG151      0.2205
     46  NE       -19.7580  -24.5840   30.4540 N.pl3 151  ARG151     -0.0865
     47  CZ       -20.2780  -25.7380   30.0360 C.cat 151  ARG151      0.5346
     48  NH1      -19.9510  -26.8840   30.6230 N.pl3 151  ARG151      0.1354
     49  NH2      -21.1230  -25.7470   29.0140 N.pl3 151  ARG151      0.1354
     50  N        -18.5180  -21.4470   36.1270 N.am  152  ASP152     -0.1960
     51  CA       -18.2420  -21.3830   37.5650 C.3   152  ASP152      0.1840
     52  C        -18.2780  -22.7730   38.2100 C.2   152  ASP152      0.2621
     53  O        -18.7430  -23.7410   37.5970 O.2   152  ASP152     -0.2715
     54  CB       -19.2200  -20.4230   38.2640 C.3   152  ASP152      0.1450
     55  CG       -18.7810  -20.0590   39.6810 C.2   152  ASP152      0.3671
     56  OD1      -17.6200  -19.6270   39.8710 O.co2 152  ASP152     -0.2456
     57  OD2      -19.6040  -20.2090   40.6110 O.co2 152  ASP152     -0.2456
     58  N        -17.7790  -22.8510   39.4470 N.am  153  GLU153     -0.1977
     59  CA       -17.6630  -24.1040   40.2020 C.3   153  GLU153      0.1602
     60  C        -18.9660  -24.5750   40.8620 C.2   153  GLU153      0.2287
     61  O        -19.1840  -25.7810   40.9970 O.2   153  GLU153     -0.2864
     62  CB       -16.5590  -23.9900   41.2610 C.3   153  GLU153      0.0415
     63  CG       -15.1490  -23.8650   40.6960 C.3   153  GLU153      0.1163
     64  CD       -14.0950  -23.6490   41.7700 C.2   153  GLU153      0.3649
     65  OE1      -14.3840  -22.9590   42.7730 O.co2 153  GLU153     -0.2457
     66  OE2      -12.9670  -24.1630   41.6110 O.co2 153  GLU153     -0.2457
     67  N        -18.5410  -17.0520   36.0330 N.3   172  ASN172     -0.1225
     68  CA       -17.7920  -16.7250   37.2430 C.3   172  ASN172      0.1785
     69  C        -17.4310  -15.2380   37.2820 C.2   172  ASN172      0.2597
     70  O        -17.5360  -14.5430   36.2660 O.2   172  ASN172     -0.2718
     71  CB       -16.5590  -17.6190   37.3920 C.3   172  ASN172      0.1169
     72  CG       -15.5010  -17.3420   36.3470 C.2   172  ASN172      0.2627
     73  OD1      -14.7930  -16.3360   36.4190 O.2   172  ASN172     -0.2716
     74  ND2      -15.3710  -18.2480   35.3790 N.am  172  ASN172     -0.0877
     75  N        -17.0180  -14.7560   38.4510 N.am  173  ARG173     -0.1966
     76  CA       -16.7920  -13.3250   38.6580 C.3   173  ARG173      0.1729
     77  C        -15.6130  -12.7680   37.8560 C.2   173  ARG173      0.2616
     78  O        -15.6630  -11.6300   37.3770 O.2   173  ARG173     -0.2715
     79  CB       -16.6320  -13.0110   40.1480 C.3   173  ARG173      0.0348
     80  CG       -17.8890  -13.2700   40.9640 C.3   173  ARG173      0.0492
     81  CD       -17.6300  -13.1700   42.4570 C.3   173  ARG173      0.2205
     82  NE       -18.4600  -14.1210   43.1920 N.pl3 173  ARG173     -0.0865
     83  CZ       -19.6340  -13.8370   43.7480 C.cat 173  ARG173      0.5346
     84  NH1      -20.1410  -12.6130   43.6760 N.pl3 173  ARG173      0.1354
     85  NH2      -20.3040  -14.7870   44.3870 N.pl3 173  ARG173      0.1354
     86  N        -14.5630  -13.5740   37.7110 N.am  174  ALA174     -0.1963
     87  CA       -13.3850  -13.1730   36.9430 C.3   174  ALA174      0.1728
     88  C        -13.7430  -12.9430   35.4790 C.2   174  ALA174      0.2616
     89  O        -13.4300  -11.8890   34.9320 O.2   174  ALA174     -0.2715
     90  CB       -12.2690  -14.1990   37.0710 C.3   174  ALA174      0.0334
     91  N        -14.4100  -13.9140   34.8530 N.am  175  TYR175     -0.1974
     92  CA       -14.8440  -13.7510   33.4680 C.3   175  TYR175      0.1639
     93  C        -15.7790  -12.5570   33.3120 C.2   175  TYR175      0.2290
     94  O        -15.5940  -11.7330   32.4180 O.2   175  TYR175     -0.2864
     95  CB       -15.5230  -15.0020   32.9220 C.3   175  TYR175      0.0560
     96  CG       -16.0800  -14.7980   31.5320 C.ar  175  TYR175     -0.0198
     97  CD1      -17.3750  -14.3160   31.3380 C.ar  175  TYR175     -0.0009
     98  CD2      -15.3050  -15.0660   30.4090 C.ar  175  TYR175     -0.0009
     99  CE1      -17.8880  -14.1230   30.0640 C.ar  175  TYR175      0.0417
    100  CE2      -15.8030  -14.8740   29.1290 C.ar  175  TYR175      0.0417
    101  CZ       -17.0990  -14.4030   28.9610 C.ar  175  TYR175      0.1957
    102  OH       -17.6040  -14.2130   27.6910 O.3   175  TYR175     -0.2866
    103  N        -13.4420   -9.4010   33.6190 N.3   178  ALA178     -0.1231
    104  CA       -12.4900   -9.3500   32.5040 C.3   178  ALA178      0.1694
    105  C        -13.1680   -9.0830   31.1580 C.2   178  ALA178      0.2592
    106  O        -12.8130   -8.1270   30.4660 O.2   178  ALA178     -0.2718
    107  CB       -11.6570  -10.6230   32.4400 C.3   178  ALA178      0.0304
    108  N        -14.1510   -9.9140   30.8110 N.am  179  SER179     -0.1952
    109  CA       -14.8290   -9.8230   29.5180 C.3   179  SER179      0.1924
    110  C        -15.5880   -8.5130   29.3390 C.2   179  SER179      0.2314
    111  O        -15.7100   -8.0190   28.2180 O.2   179  SER179     -0.2863
    112  CB       -15.7630  -11.0160   29.2940 C.3   179  SER179      0.2116
    113  OG       -16.8650  -10.9880   30.1820 O.3   179  SER179     -0.2180
    114  N        -12.6310   -5.9220   28.6870 N.3   182  ILE182     -0.1245
    115  CA       -11.9900   -6.1510   27.3930 C.3   182  ILE182      0.1561
    116  C        -12.9310   -5.9090   26.2040 C.2   182  ILE182      0.2260
    117  O        -12.5330   -5.3140   25.2000 O.2   182  ILE182     -0.2867
    118  CB       -11.3650   -7.5600   27.3300 C.3   182  ILE182      0.0252
    119  CG1      -10.1120   -7.6180   28.2000 C.3   182  ILE182      0.0019
    120  CG2      -10.9920   -7.9350   25.9070 C.3   182  ILE182      0.0019
    121  CD1       -9.5420   -9.0130   28.3370 C.3   182  ILE182      0.0001
@<TRIPOS>BOND
     1     1     2    1
     2     2     5    1
     3     2     3    1
     4     5     7    1
     5     5     6    1
     6     3     4    2
     7    14     8    1
     8    14    13    1
     9     8     9    1
    10   117   116    2
    11    13    12    1
    12   120   118    1
    13     9    10    1
    14     9    12    1
    15   116   115    1
    16    10    11    2
    17    24    22   ar
    18    24    23   ar
    19   118   115    1
    20   118   119    1
    21   115   114    1
    22    22    20   ar
    23   102   101    1
    24    15    16    1
    25    38    37   ar
    26    38    36   ar
    27   119   121    1
    28   111   110    2
    29    23    21   ar
    30    37    35   ar
    31    36    34   ar
    32    20    21   ar
    33    20    19    1
    34    35    32   ar
    35    34    32   ar
    36    34    33   ar
    37   101   100   ar
    38   101    99   ar
    39    49    47    1
    40   100    98   ar
    41    32    30   ar
    42    16    19    1
    43    16    17    1
    44    33    31   ar
    45   112   109    1
    46   112   113    1
    47   110   109    1
    48   109   108    1
    49    30    31   ar
    50    30    29    1
    51    25    17   am
    52    25    26    1
    53    47    46    2
    54    47    48    1
    55    99    97   ar
    56    29    26    1
    57    17    18    2
    58    98    96   ar
    59    46    45    1
    60   106   105    2
    61   108   105   am
    62    26    27    1
    63   105   104    1
    64    97    96   ar
    65    96    95    1
    66    45    44    1
    67    27    28    2
    68    44    43    1
    69    94    93    2
    70   107   104    1
    71   104   103    1
    72    39    40    1
    73    95    92    1
    74    43    40    1
    75    93    92    1
    76    92    91    1
    77    40    41    1
    78    91    88   am
    79    89    88    2
    80    41    42    2
    81    41    50   am
    82    74    72   am
    83    88    87    1
    84    67    68    1
    85    50    51    1
    86    70    69    2
    87    72    73    2
    88    72    71    1
    89    87    90    1
    90    87    86    1
    91    68    69    1
    92    68    71    1
    93    69    75   am
    94    78    77    2
    95    51    52    1
    96    51    54    1
    97    53    52    2
    98    86    77   am
    99    77    76    1
   100    52    58   am
   101    54    55    1
   102    75    76    1
   103    76    79    1
   104    58    59    1
   105    55    56   ar
   106    55    57   ar
   107    79    80    1
   108    59    60    1
   109    59    62    1
   110    63    62    1
   111    63    64    1
   112    60    61    2
   113    80    81    1
   114    66    64   ar
   115    64    65   ar
   116    81    82    1
   117    82    83    2
   118    84    83    1
   119    83    85    1
