@<TRIPOS>MOLECULE
tmp/4amjA02.pdb
 83 79 0 0 0
SMALL
GASTEIGER

@<TRIPOS>ATOM
      1  N        -49.3410  -17.5440   23.1160 N.3     9  TRP9       -0.1241
      2  CA       -48.0500  -16.9340   23.3480 C.3     9  TRP9        0.1605
      3  C        -47.0580  -17.3580   22.2680 C.2     9  TRP9        0.2264
      4  O        -46.4250  -16.4920   21.6550 O.2     9  TRP9       -0.2867
      5  CB       -47.5840  -17.2670   24.7540 C.3     9  TRP9        0.0550
      6  CG       -46.3710  -16.4940   25.1480 C.ar    9  TRP9        0.0003
      7  CD1      -46.3090  -15.2060   25.6960 C.ar    9  TRP9        0.0946
      8  CD2      -44.9920  -16.9180   24.9940 C.ar    9  TRP9        0.0152
      9  NE1      -45.0070  -14.8230   25.8930 N.ar    9  TRP9       -0.2442
     10  CE2      -44.1640  -15.8050   25.4820 C.ar    9  TRP9        0.0810
     11  CE3      -44.3830  -18.0440   24.4970 C.ar    9  TRP9        0.0012
     12  CZ2      -42.7890  -15.8650   25.4740 C.ar    9  TRP9        0.0191
     13  CZ3      -42.9960  -18.0980   24.5020 C.ar    9  TRP9        0.0001
     14  CH2      -42.2210  -17.0350   24.9840 C.ar    9  TRP9        0.0015
     15  N        -45.3910  -14.7120   19.6460 N.3    13  MET13      -0.1245
     16  CA       -43.9660  -14.5190   19.8300 C.3    13  MET13       0.1570
     17  C        -43.2510  -14.9070   18.5450 C.2    13  MET13       0.2261
     18  O        -42.3130  -14.2440   18.1510 O.2    13  MET13      -0.2867
     19  CB       -43.4570  -15.3420   21.0250 C.3    13  MET13       0.0387
     20  CG       -42.0650  -14.9640   21.5340 C.3    13  MET13       0.0595
     21  SD       -41.9110  -13.3060   22.2500 S.3    13  MET13      -0.1393
     22  CE       -43.5060  -13.1410   23.0460 C.3    13  MET13       0.0692
     23  N        -43.6790  -11.6910   16.3330 N.3    16  LEU16      -0.1231
     24  CA       -42.7680  -10.6340   16.7730 C.3    16  LEU16       0.1693
     25  C        -41.3160  -10.9530   16.3510 C.2    16  LEU16       0.2591
     26  O        -40.6230  -10.1100   15.8100 O.2    16  LEU16      -0.2718
     27  CB       -42.8600  -10.4480   18.2890 C.3    16  LEU16       0.0284
     28  CG       -42.0120   -9.3360   18.9080 C.3    16  LEU16       0.0019
     29  CD1      -42.2360   -8.0180   18.1760 C.3    16  LEU16       0.0001
     30  CD2      -42.3310   -9.1980   20.3920 C.3    16  LEU16       0.0001
     31  N        -40.8920  -12.1840   16.5620 N.am   17  MET17      -0.1979
     32  CA       -39.5470  -12.6000   16.2030 C.3    17  MET17       0.1605
     33  C        -39.3150  -12.5250   14.6930 C.2    17  MET17       0.2287
     34  O        -38.2130  -12.1770   14.2580 O.2    17  MET17      -0.2864
     35  CB       -39.2470  -14.0180   16.7370 C.3    17  MET17       0.0413
     36  CG       -39.1380  -14.0910   18.2570 C.3    17  MET17       0.0598
     37  SD       -37.7340  -13.1800   18.9000 S.3    17  MET17      -0.1393
     38  CE       -38.1720  -12.9850   20.6310 C.3    17  MET17       0.0692
     39  N        -38.7520   -8.8550   13.8090 N.3    20  VAL20      -0.1245
     40  CA       -37.4110   -8.4160   14.1960 C.3    20  VAL20       0.1561
     41  C        -36.3880   -8.9200   13.1810 C.2    20  VAL20       0.2260
     42  O        -35.5520   -8.1520   12.7340 O.2    20  VAL20      -0.2867
     43  CB       -37.0030   -8.8970   15.6100 C.3    20  VAL20       0.0252
     44  CG1      -35.5360   -8.5770   15.8770 C.3    20  VAL20       0.0019
     45  CG2      -37.8650   -8.2480   16.6720 C.3    20  VAL20       0.0019
     46  N        -36.6080  -19.0890   22.6130 N.3    71  VAL71      -0.1245
     47  CA       -37.5700  -18.3120   23.3950 C.3    71  VAL71       0.1561
     48  C        -39.0040  -18.8350   23.1740 C.2    71  VAL71       0.2260
     49  O        -39.8080  -18.8870   24.1060 O.2    71  VAL71      -0.2867
     50  CB       -37.4520  -16.8060   23.0740 C.3    71  VAL71       0.0252
     51  CG1      -38.5860  -16.0000   23.7060 C.3    71  VAL71       0.0019
     52  CG2      -36.0990  -16.2830   23.5650 C.3    71  VAL71       0.0019
     53  N        -31.9550  -10.7520   30.9540 N.3   255  VAL255     -0.1231
     54  CA       -32.4440  -11.2720   29.6810 C.3   255  VAL255      0.1692
     55  C        -32.9930  -10.1480   28.7860 C.2   255  VAL255      0.2591
     56  O        -32.6840  -10.1030   27.5880 O.2   255  VAL255     -0.2718
     57  CB       -33.4770  -12.4150   29.8880 C.3   255  VAL255      0.0266
     58  CG1      -34.1160  -12.8260   28.5830 C.3   255  VAL255      0.0020
     59  CG2      -32.8000  -13.6290   30.5150 C.3   255  VAL255      0.0020
     60  N        -33.7440   -9.2070   29.3540 N.am  256  ALA256     -0.1980
     61  CA       -34.3120   -8.1110   28.5380 C.3   256  ALA256      0.1597
     62  C        -33.1910   -7.2630   27.9360 C.2   256  ALA256      0.2287
     63  O        -33.2470   -6.9100   26.7650 O.2   256  ALA256     -0.2864
     64  CB       -35.3020   -7.2460   29.3300 C.3   256  ALA256      0.0319
     65  N        -31.7070   -8.7950   24.8620 N.3   259  TRP259     -0.1241
     66  CA       -32.5790   -8.5220   23.6920 C.3   259  TRP259      0.1605
     67  C        -32.4870   -7.0940   23.1830 C.2   259  TRP259      0.2264
     68  O        -32.5340   -6.8560   21.9860 O.2   259  TRP259     -0.2867
     69  CB       -34.0280   -9.0040   23.9250 C.3   259  TRP259      0.0550
     70  CG       -34.1260  -10.4990   23.6820 C.ar  259  TRP259      0.0003
     71  CD1      -34.0510  -11.5060   24.6240 C.ar  259  TRP259      0.0946
     72  CD2      -34.2320  -11.1970   22.3960 C.ar  259  TRP259      0.0152
     73  NE1      -34.0920  -12.7470   24.0300 N.ar  259  TRP259     -0.2442
     74  CE2      -34.2170  -12.6310   22.7010 C.ar  259  TRP259      0.0810
     75  CE3      -34.3180  -10.8000   21.0790 C.ar  259  TRP259      0.0012
     76  CZ2      -34.2980  -13.5980   21.7090 C.ar  259  TRP259      0.0191
     77  CZ3      -34.4050  -11.7790   20.0830 C.ar  259  TRP259      0.0001
     78  CH2      -34.3920  -13.1410   20.3870 C.ar  259  TRP259      0.0015
     79  N        -31.4830   -6.0230   19.4460 N.3   263  ALA263     -0.1245
     80  CA       -32.2860   -4.9930   18.7500 C.3   263  ALA263      0.1562
     81  C        -31.4220   -3.9230   18.0530 C.2   263  ALA263      0.2260
     82  O        -31.8390   -3.3130   17.0800 O.2   263  ALA263     -0.2867
     83  CB       -33.2580   -4.3170   19.7310 C.3   263  ALA263      0.0290
@<TRIPOS>BOND
     1    42    41    2
     2    41    40    1
     3    39    40    1
     4    40    43    1
     5    34    33    2
     6    33    32    1
     7    43    44    1
     8    43    45    1
     9    26    25    2
    10    32    31    1
    11    32    35    1
    12    23    24    1
    13    25    31   am
    14    25    24    1
    15    35    36    1
    16    24    27    1
    17    82    81    2
    18    81    80    1
    19    18    17    2
    20    29    28    1
    21    36    37    1
    22    27    28    1
    23    17    16    1
    24    80    79    1
    25    80    83    1
    26    37    38    1
    27    28    30    1
    28    15    16    1
    29    16    19    1
    30    77    78   ar
    31    77    75   ar
    32    78    76   ar
    33    19    20    1
    34    75    72   ar
    35    20    21    1
    36     4     3    2
    37    76    74   ar
    38    68    67    2
    39    21    22    1
    40     3     2    1
    41    72    74   ar
    42    72    70   ar
    43    46    47    1
    44    74    73   ar
    45    50    47    1
    46    50    52    1
    47    50    51    1
    48     1     2    1
    49    48    47    1
    50    48    49    2
    51    67    66    1
    52     2     5    1
    53    70    69    1
    54    70    71   ar
    55    66    69    1
    56    66    65    1
    57    73    71   ar
    58    11    13   ar
    59    11     8   ar
    60    13    14   ar
    61     5     6    1
    62    14    12   ar
    63     8     6   ar
    64     8    10   ar
    65     6     7   ar
    66    12    10   ar
    67    10     9   ar
    68     7     9   ar
    69    63    62    2
    70    56    55    2
    71    62    61    1
    72    61    64    1
    73    61    60    1
    74    58    57    1
    75    55    60   am
    76    55    54    1
    77    54    57    1
    78    54    53    1
    79    57    59    1
