@<TRIPOS>MOLECULE
tmp/4amjB06.pdb
 225 221 0 0 0
SMALL
GASTEIGER

@<TRIPOS>ATOM
      1  N         17.8030  -18.7390   20.7210 N.3    67  GLY67      -0.1225
      2  CA        18.2470  -17.4770   20.1140 C.3    67  GLY67       0.1811
      3  C         19.7710  -17.3270   20.1300 C.2    67  GLY67       0.2280
      4  O         20.3420  -16.6600   19.2680 O.2    67  GLY67      -0.2866
      5  N         21.2250  -19.0690   17.1270 N.3    70  LEU70      -0.1231
      6  CA        21.0960  -18.1820   15.9670 C.3    70  LEU70       0.1693
      7  C         22.1390  -17.0600   15.9390 C.2    70  LEU70       0.2591
      8  O         22.6250  -16.6830   14.8790 O.2    70  LEU70      -0.2718
      9  CB        19.6810  -17.5870   15.9320 C.3    70  LEU70       0.0284
     10  CG        19.2100  -16.8120   14.7050 C.3    70  LEU70       0.0019
     11  CD1       19.1950  -17.6910   13.4600 C.3    70  LEU70       0.0001
     12  CD2       17.8190  -16.2420   14.9580 C.3    70  LEU70       0.0001
     13  N         22.4690  -16.5080   17.1020 N.am   71  VAL71      -0.1980
     14  CA        23.4650  -15.4420   17.1810 C.3    71  VAL71       0.1595
     15  C         24.8690  -16.0420   16.9620 C.2    71  VAL71       0.2287
     16  O         25.6080  -15.5810   16.1210 O.2    71  VAL71      -0.2864
     17  CB        23.3570  -14.6650   18.5150 C.3    71  VAL71       0.0276
     18  CG1       24.4710  -13.6250   18.6620 C.3    71  VAL71       0.0022
     19  CG2       21.9920  -14.0000   18.6110 C.3    71  VAL71       0.0022
     20  N          9.3670  -21.7380   18.9190 N.3    86  TRP86      -0.1227
     21  CA        10.2570  -20.8410   19.5900 C.3    86  TRP86       0.1737
     22  C          9.7130  -19.4360   19.5440 C.2    86  TRP86       0.2596
     23  O          9.6900  -18.7440   20.5610 O.2    86  TRP86      -0.2718
     24  CB        11.6420  -20.9110   18.9510 C.3    86  TRP86       0.0564
     25  CG        12.5660  -19.8190   19.3910 C.ar   86  TRP86       0.0003
     26  CD1       13.0360  -19.5830   20.6800 C.ar   86  TRP86       0.0946
     27  CD2       13.1960  -18.7790   18.5570 C.ar   86  TRP86       0.0152
     28  NE1       13.8830  -18.5040   20.6990 N.ar   86  TRP86      -0.2442
     29  CE2       14.0180  -17.9720   19.4630 C.ar   86  TRP86       0.0810
     30  CE3       13.1750  -18.4610   17.2090 C.ar   86  TRP86       0.0012
     31  CZ2       14.7610  -16.8930   19.0180 C.ar   86  TRP86       0.0191
     32  CZ3       13.9210  -17.3640   16.7690 C.ar   86  TRP86       0.0001
     33  CH2       14.6990  -16.5970   17.6580 C.ar   86  TRP86       0.0015
     34  N          9.2800  -18.9910   18.3730 N.am   87  THR87      -0.1953
     35  CA         8.6970  -17.6380   18.2210 C.3    87  THR87       0.1897
     36  C          7.4150  -17.4590   19.0490 C.2    87  THR87       0.2313
     37  O          7.2230  -16.4120   19.6740 O.2    87  THR87      -0.2863
     38  CB         8.3910  -17.3190   16.7490 C.3    87  THR87       0.1794
     39  OG1        9.6060  -17.4440   16.0060 O.3    87  THR87      -0.2208
     40  CG2        7.8430  -15.8850   16.5650 C.3    87  THR87       0.0378
     41  N          8.4660  -17.0920   22.7300 N.3    90  ASP90      -0.1225
     42  CA         8.9890  -15.7240   22.8660 C.3    90  ASP90       0.1805
     43  C          7.8320  -14.7040   23.0660 C.2    90  ASP90       0.2597
     44  O          7.7790  -14.0000   24.0630 O.2    90  ASP90      -0.2718
     45  CB         9.7960  -15.4140   21.5940 C.3    90  ASP90       0.1424
     46  CG        10.7040  -14.1910   21.6930 C.2    90  ASP90       0.3668
     47  OD1       10.5430  -13.2750   22.5450 O.co2  90  ASP90      -0.2456
     48  OD2       11.6050  -14.1190   20.8170 O.co2  90  ASP90      -0.2456
     49  N          6.9000  -14.6440   22.1210 N.am   91  VAL91      -0.1980
     50  CA         5.7360  -13.7620   22.2300 C.3    91  VAL91       0.1595
     51  C          4.9180  -14.0310   23.5120 C.2    91  VAL91       0.2287
     52  O          4.5280  -13.0870   24.2310 O.2    91  VAL91      -0.2864
     53  CB         4.8700  -13.8460   20.9490 C.3    91  VAL91       0.0276
     54  CG1        3.5370  -13.0620   21.0830 C.3    91  VAL91       0.0022
     55  CG2        5.7140  -13.3250   19.7700 C.3    91  VAL91       0.0022
     56  N          6.6450  -12.4460   26.8330 N.3    94  VAL94      -0.1245
     57  CA         6.5320  -10.9960   26.9340 C.3    94  VAL94       0.1561
     58  C          5.1140  -10.6220   27.3620 C.2    94  VAL94       0.2260
     59  O          4.9310   -9.8070   28.2660 O.2    94  VAL94      -0.2867
     60  CB         6.9030  -10.2750   25.6100 C.3    94  VAL94       0.0252
     61  CG1        6.7560   -8.7520   25.7660 C.3    94  VAL94       0.0019
     62  CG2        8.3180  -10.6540   25.1880 C.3    94  VAL94       0.0019
     63  N         15.0170  -17.8150   10.4760 N.3   168  CYS168     -0.1221
     64  CA        13.8870  -17.7300   11.4100 C.3   168  CYS168      0.1808
     65  C         13.7600  -16.2800   11.8850 C.2   168  CYS168      0.2601
     66  O         13.6330  -16.0040   13.0610 O.2   168  CYS168     -0.2717
     67  CB        14.0780  -18.6750   12.5930 C.3   168  CYS168      0.0970
     68  SG        12.6250  -18.9030   13.6490 S.3   168  CYS168     -0.0800
     69  N         13.8410  -15.3620   10.9410 N.am  169  ASP169     -0.1959
     70  CA        13.5440  -13.9730   11.1820 C.3   169  ASP169      0.1840
     71  C         12.0330  -13.8260   11.3610 C.2   169  ASP169      0.2622
     72  O         11.2520  -14.3500   10.5590 O.2   169  ASP169     -0.2715
     73  CB        14.0210  -13.1040   10.0000 C.3   169  ASP169      0.1450
     74  CG        15.5440  -12.8580   10.0150 C.2   169  ASP169      0.3671
     75  OD1       16.2540  -13.4650   10.8520 O.co2 169  ASP169     -0.2456
     76  OD2       16.0320  -12.0610    9.1820 O.co2 169  ASP169     -0.2456
     77  N         11.6250  -13.0850   12.3930 N.am  170  PHE170     -0.1974
     78  CA        10.2060  -12.7990   12.6100 C.3   170  PHE170      0.1639
     79  C          9.8400  -11.5610   11.7780 C.2   170  PHE170      0.2290
     80  O          9.6170  -10.4670   12.2970 O.2   170  PHE170     -0.2864
     81  CB         9.9120  -12.6820   14.1230 C.3   170  PHE170      0.0560
     82  CG         8.4580  -12.7770   14.4830 C.ar  170  PHE170     -0.0200
     83  CD1        7.5970  -13.6840   13.8440 C.ar  170  PHE170     -0.0042
     84  CD2        7.9350  -11.9610   15.4740 C.ar  170  PHE170     -0.0042
     85  CE1        6.2500  -13.7460   14.1510 C.ar  170  PHE170     -0.0003
     86  CE2        6.5960  -12.0290   15.7950 C.ar  170  PHE170     -0.0003
     87  CZ         5.7520  -12.9190   15.1350 C.ar  170  PHE170     -0.0000
     88  N          7.2240   -9.7620    9.6490 N.3   172  THR172     -0.1218
     89  CA         5.7610   -9.8220    9.7590 C.3   172  THR172      0.1862
     90  C          5.1750   -8.7680    8.8710 C.2   172  THR172      0.2287
     91  O          5.8060   -7.7830    8.6060 O.2   172  THR172     -0.2866
     92  CB         5.2600   -9.5950   11.2440 C.3   172  THR172      0.1770
     93  OG1        5.3100   -8.2030   11.5960 O.3   172  THR172     -0.2211
     94  CG2        6.1220  -10.3690   12.2660 C.3   172  THR172      0.0375
     95  N         -0.1470   -7.1390   11.5630 N.3   176  TYR176     -0.1227
     96  CA         0.2260   -7.9290   12.7130 C.3   176  TYR176      0.1736
     97  C          1.1910   -7.1570   13.5850 C.2   176  TYR176      0.2595
     98  O          1.0600   -7.1460   14.8030 O.2   176  TYR176     -0.2718
     99  CB         0.8020   -9.2680   12.2760 C.3   176  TYR176      0.0548
    100  CG         1.2150  -10.1210   13.4210 C.ar  176  TYR176     -0.0200
    101  CD1        2.4700   -9.9970   13.9400 C.ar  176  TYR176     -0.0009
    102  CD2        0.3630  -11.1040   13.9710 C.ar  176  TYR176     -0.0009
    103  CE1        2.8740  -10.7590   15.0020 C.ar  176  TYR176      0.0417
    104  CE2        0.7720  -11.8700   15.0710 C.ar  176  TYR176      0.0417
    105  CZ         2.0170  -11.6860   15.5790 C.ar  176  TYR176      0.1957
    106  OH         2.5270  -12.4090   16.6470 O.3   176  TYR176     -0.2866
    107  N          2.1700   -6.4980   12.9810 N.am  177  ALA177     -0.1980
    108  CA         3.0930   -5.6640   13.7850 C.3   177  ALA177      0.1597
    109  C          2.3000   -4.7050   14.6540 C.2   177  ALA177      0.2287
    110  O          2.5260   -4.6380   15.8530 O.2   177  ALA177     -0.2864
    111  CB         4.1040   -4.8900   12.9320 C.3   177  ALA177      0.0319
    112  N         -0.6870   -6.8520   17.0690 N.3   180  SER180     -0.1202
    113  CA        -0.0890   -7.7100   18.0810 C.3   180  SER180      0.2020
    114  C          0.7050   -6.8980   19.1130 C.2   180  SER180      0.2619
    115  O          0.7010   -7.2720   20.3050 O.2   180  SER180     -0.2717
    116  CB         0.7970   -8.7900   17.4660 C.3   180  SER180      0.2103
    117  OG         1.4620   -9.5700   18.4720 O.3   180  SER180     -0.2182
    118  N          1.3770   -5.8270   18.6720 N.am  181  SER181     -0.1951
    119  CA         2.0780   -4.9240   19.5950 C.3   181  SER181      0.1924
    120  C          1.1150   -4.2040   20.5610 C.2   181  SER181      0.2314
    121  O          1.4010   -4.0590   21.7400 O.2   181  SER181     -0.2863
    122  CB         2.8830   -3.8640   18.8430 C.3   181  SER181      0.2116
    123  OG         3.9540   -4.4700   18.1840 O.3   181  SER181     -0.2180
    124  N         -0.5900   -7.2270   22.8900 N.3   184  SER184     -0.1217
    125  CA         0.3010   -7.8810   23.8050 C.3   184  SER184      0.1889
    126  C          1.0280   -6.8860   24.6750 C.2   184  SER184      0.2288
    127  O          1.3660   -7.2270   25.7940 O.2   184  SER184     -0.2866
    128  CB         1.3280   -8.7590   23.0800 C.3   184  SER184      0.2089
    129  OG         0.7670   -9.9430   22.6000 O.3   184  SER184     -0.2183
    130  N         11.9030   -3.1390   27.2990 N.3   244  TRP244     -0.1241
    131  CA        11.0640   -3.5230   26.1290 C.3   244  TRP244      0.1605
    132  C         10.5500   -2.3820   25.2860 C.2   244  TRP244      0.2264
    133  O         10.3650   -2.5390   24.0740 O.2   244  TRP244     -0.2867
    134  CB         9.9090   -4.4080   26.5530 C.3   244  TRP244      0.0550
    135  CG        10.3410   -5.8140   26.8220 C.ar  244  TRP244      0.0003
    136  CD1       10.4420   -6.4430   28.0660 C.ar  244  TRP244      0.0946
    137  CD2       10.7840   -6.8200   25.8430 C.ar  244  TRP244      0.0152
    138  NE1       10.8870   -7.7280   27.9220 N.ar  244  TRP244     -0.2442
    139  CE2       11.1280   -8.0050   26.6040 C.ar  244  TRP244      0.0810
    140  CE3       10.9570   -6.8350   24.4590 C.ar  244  TRP244      0.0012
    141  CZ2       11.5940   -9.1610   25.9920 C.ar  244  TRP244      0.0191
    142  CZ3       11.4260   -8.0030   23.8520 C.ar  244  TRP244      0.0001
    143  CH2       11.7520   -9.1390   24.6220 C.ar  244  TRP244      0.0015
    144  N         12.5760   -1.7310   21.8910 N.3   247  PHE247     -0.1227
    145  CA        12.1710   -2.7390   20.8950 C.3   247  PHE247      0.1736
    146  C         10.7900   -2.4730   20.2510 C.2   247  PHE247      0.2595
    147  O         10.6810   -2.4070   19.0070 O.2   247  PHE247     -0.2718
    148  CB        12.1890   -4.1280   21.5050 C.3   247  PHE247      0.0547
    149  CG        11.7170   -5.1980   20.5550 C.ar  247  PHE247     -0.0202
    150  CD1       12.5860   -5.7410   19.6040 C.ar  247  PHE247     -0.0042
    151  CD2       10.3880   -5.6310   20.5750 C.ar  247  PHE247     -0.0042
    152  CE1       12.1340   -6.7070   18.6940 C.ar  247  PHE247     -0.0003
    153  CE2        9.9430   -6.6090   19.6820 C.ar  247  PHE247     -0.0003
    154  CZ        10.8100   -7.1440   18.7290 C.ar  247  PHE247     -0.0000
    155  N          9.7440   -2.2790   21.0580 N.am  248  PHE248     -0.1976
    156  CA         8.4020   -2.0560   20.4880 C.3   248  PHE248      0.1639
    157  C          8.2160   -0.6910   19.7870 C.2   248  PHE248      0.2290
    158  O          7.3470   -0.5530   18.9200 O.2   248  PHE248     -0.2864
    159  CB         7.3190   -2.2860   21.5740 C.3   248  PHE248      0.0560
    160  CG         7.0650   -3.7560   21.8660 C.ar  248  PHE248     -0.0200
    161  CD1        6.3160   -4.5210   21.0110 C.ar  248  PHE248     -0.0042
    162  CD2        7.6050   -4.3640   22.9720 C.ar  248  PHE248     -0.0042
    163  CE1        6.0920   -5.8580   21.2630 C.ar  248  PHE248     -0.0003
    164  CE2        7.4030   -5.7070   23.2300 C.ar  248  PHE248     -0.0003
    165  CZ         6.6470   -6.4590   22.3620 C.ar  248  PHE248     -0.0000
    166  N          9.6730   -1.4000   16.5060 N.3   251  ASN251     -0.1240
    167  CA         8.7220   -2.2670   15.7920 C.3   251  ASN251      0.1653
    168  C          7.6890   -1.4270   15.0230 C.2   251  ASN251      0.2266
    169  O          7.3940   -1.7030   13.8510 O.2   251  ASN251     -0.2867
    170  CB         8.0540   -3.2190   16.8000 C.3   251  ASN251      0.1155
    171  CG         7.5380   -4.5000   16.1900 C.2   251  ASN251      0.2627
    172  OD1        6.5230   -5.0160   16.6570 O.2   251  ASN251     -0.2716
    173  ND2        8.2440   -5.0630   15.2040 N.am  251  ASN251     -0.0877
    174  N         17.8940   -3.0840   15.9640 N.3   266  PHE266     -0.1227
    175  CA        16.6450   -3.7650   16.2530 C.3   266  PHE266      0.1736
    176  C         16.9290   -5.0380   17.0570 C.2   266  PHE266      0.2595
    177  O         16.2830   -5.3020   18.0860 O.2   266  PHE266     -0.2718
    178  CB        15.9080   -4.0900   14.9430 C.3   266  PHE266      0.0547
    179  CG        14.4510   -4.4310   15.1110 C.ar  266  PHE266     -0.0202
    180  CD1       13.6890   -3.9070   16.1560 C.ar  266  PHE266     -0.0042
    181  CD2       13.8330   -5.2700   14.2060 C.ar  266  PHE266     -0.0042
    182  CE1       12.3520   -4.2330   16.3010 C.ar  266  PHE266     -0.0003
    183  CE2       12.4910   -5.6030   14.3440 C.ar  266  PHE266     -0.0003
    184  CZ        11.7470   -5.0790   15.3900 C.ar  266  PHE266     -0.0000
    185  N         17.9290   -5.7980   16.6200 N.am  267  VAL267     -0.1980
    186  CA        18.2710   -7.0530   17.2900 C.3   267  VAL267      0.1595
    187  C         18.9260   -6.7580   18.6470 C.2   267  VAL267      0.2287
    188  O         18.7160   -7.5020   19.6100 O.2   267  VAL267     -0.2864
    189  CB        19.1420   -7.9450   16.3830 C.3   267  VAL267      0.0276
    190  CG1       19.7080   -9.1250   17.1640 C.3   267  VAL267      0.0022
    191  CG2       18.3210   -8.3920   15.1710 C.3   267  VAL267      0.0022
    192  N         16.1640   -6.1350   21.0110 N.3   270  ASN270     -0.1225
    193  CA        15.5140   -7.3800   21.3480 C.3   270  ASN270      0.1785
    194  C         16.2980   -8.0560   22.4450 C.2   270  ASN270      0.2597
    195  O         15.7020   -8.6170   23.3690 O.2   270  ASN270     -0.2718
    196  CB        15.3780   -8.2960   20.1050 C.3   270  ASN270      0.1169
    197  CG        14.2860   -9.3760   20.2480 C.2   270  ASN270      0.2627
    198  OD1       13.7970   -9.8980   19.2460 O.2   270  ASN270     -0.2716
    199  ND2       13.9060   -9.7180   21.4880 N.am  270  ASN270     -0.0877
    200  N         17.6310   -7.9930   22.3610 N.am  271  TRP271     -0.1976
    201  CA        18.4880   -8.5830   23.4070 C.3   271  TRP271      0.1640
    202  C         18.4300   -7.8720   24.7490 C.2   271  TRP271      0.2290
    203  O         18.5070   -8.5410   25.7830 O.2   271  TRP271     -0.2864
    204  CB        19.9370   -8.7900   22.9350 C.3   271  TRP271      0.0576
    205  CG        19.9960  -10.0380   22.1030 C.ar  271  TRP271      0.0006
    206  CD1       19.8630  -10.1340   20.7240 C.ar  271  TRP271      0.0946
    207  CD2       20.0950  -11.4160   22.5670 C.ar  271  TRP271      0.0152
    208  NE1       19.9020  -11.4360   20.3190 N.ar  271  TRP271     -0.2442
    209  CE2       20.0270  -12.2510   21.3800 C.ar  271  TRP271      0.0810
    210  CE3       20.2020  -12.0160   23.7960 C.ar  271  TRP271      0.0012
    211  CZ2       20.0890  -13.6170   21.4470 C.ar  271  TRP271      0.0191
    212  CZ3       20.2900  -13.4070   23.8600 C.ar  271  TRP271      0.0001
    213  CH2       20.2330  -14.1900   22.7030 C.ar  271  TRP271      0.0015
    214  N         15.3910   -9.4250   26.2340 N.3   274  TYR274     -0.1241
    215  CA        15.7250  -10.7300   26.8140 C.3   274  TYR274      0.1605
    216  C         16.4770  -10.6210   28.1590 C.2   274  TYR274      0.2264
    217  O         16.2360  -11.4130   29.1100 O.2   274  TYR274     -0.2867
    218  CB        16.5860  -11.5540   25.8480 C.3   274  TYR274      0.0534
    219  CG        15.9190  -12.1950   24.6270 C.ar  274  TYR274     -0.0201
    220  CD1       14.5290  -12.3370   24.5140 C.ar  274  TYR274     -0.0009
    221  CD2       16.7140  -12.6530   23.5520 C.ar  274  TYR274     -0.0009
    222  CE1       13.9560  -12.9240   23.4000 C.ar  274  TYR274      0.0417
    223  CE2       16.1370  -13.2340   22.4270 C.ar  274  TYR274      0.0417
    224  CZ        14.7510  -13.3770   22.3580 C.ar  274  TYR274      0.1957
    225  OH        14.1710  -13.9640   21.2400 O.3   274  TYR274     -0.2866
@<TRIPOS>BOND
     1    91    90    2
     2    90    89    1
     3    76    74   ar
     4    88    89    1
     5    89    92    1
     6    73    74    1
     7    73    70    1
     8    74    75   ar
     9    63    64    1
    10    72    71    2
    11    69    70    1
    12    69    65   am
    13    70    71    1
    14    92    93    1
    15    92    94    1
    16    71    77   am
    17    64    65    1
    18    64    67    1
    19    95    96    1
    20    79    80    2
    21    79    78    1
    22    65    66    2
    23    99    96    1
    24    99   100    1
    25    77    78    1
    26    67    68    1
    27    78    81    1
    28    96    97    1
    29   111   108    1
    30   107    97   am
    31   107   108    1
    32   100   101   ar
    33   100   102   ar
    34    11    10    1
    35    97    98    2
    36   108   109    1
    37    83    85   ar
    38    83    82   ar
    39   169   168    2
    40   101   103   ar
    41   102   104   ar
    42    81    82    1
    43    85    87   ar
    44   181   183   ar
    45   181   179   ar
    46   183   184   ar
    47    82    84   ar
    48   109   110    2
    49    10    12    1
    50    10     9    1
    51     8     7    2
    52   178   179    1
    53   178   175    1
    54   103   105   ar
    55   168   167    1
    56   104   105   ar
    57   179   180   ar
    58    87    86   ar
    59   191   189    1
    60   173   171   am
    61   184   182   ar
    62    84    86   ar
    63   105   106    1
    64   167   166    1
    65   167   170    1
    66     9     6    1
    67     7     6    1
    68     7    13   am
    69   174   175    1
    70     6     5    1
    71    39    38    1
    72    16    15    2
    73   180   182   ar
    74   171   172    2
    75   171   170    1
    76   175   176    1
    77   189   190    1
    78   189   186    1
    79    40    38    1
    80   185   176   am
    81   185   186    1
    82    38    35    1
    83    32    30   ar
    84    32    33   ar
    85    15    14    1
    86   176   177    2
    87   112   113    1
    88    13    14    1
    89    14    17    1
    90    30    27   ar
    91   186   187    1
    92   116   113    1
    93   116   117    1
    94    33    31   ar
    95   113   114    1
    96   123   122    1
    97    35    34    1
    98    35    36    1
    99    34    22   am
   100    17    19    1
   101    17    18    1
   102    27    25   ar
   103    27    29   ar
   104   187   188    2
   105   118   114   am
   106   118   119    1
   107   152   154   ar
   108   152   150   ar
   109   154   153   ar
   110   122   119    1
   111    20    21    1
   112   158   157    2
   113    24    25    1
   114    24    21    1
   115   147   146    2
   116    31    29   ar
   117    36    37    2
   118   114   115    2
   119   198   197    2
   120     4     3    2
   121    25    26   ar
   122    29    28   ar
   123    22    21    1
   124    22    23    2
   125   119   120    1
   126   150   149   ar
   127   153   151   ar
   128    55    53    1
   129   157   156    1
   130   196   197    1
   131   196   193    1
   132     2     3    1
   133     2     1    1
   134   197   199   am
   135   146   145    1
   136   146   155   am
   137   208   206   ar
   138   208   209   ar
   139   156   155    1
   140   156   159    1
   141   149   151   ar
   142   149   148    1
   143   120   121    2
   144    26    28   ar
   145   206   205   ar
   146    48    46   ar
   147   145   148    1
   148   145   144    1
   149    53    54    1
   150    53    50    1
   151   161   163   ar
   152   161   160   ar
   153   192   193    1
   154   225   224    1
   155   163   165   ar
   156   193   194    1
   157   209   211   ar
   158   209   207   ar
   159   211   213   ar
   160   159   160    1
   161    45    46    1
   162    45    42    1
   163    46    47   ar
   164   160   162   ar
   165   205   207   ar
   166   205   204    1
   167    49    50    1
   168    49    43   am
   169    50    51    1
   170   224   223   ar
   171   224   222   ar
   172   200   194   am
   173   200   201    1
   174   165   164   ar
   175   223   221   ar
   176   194   195    2
   177   207   210   ar
   178   129   128    1
   179   213   212   ar
   180    41    42    1
   181    42    43    1
   182   124   125    1
   183   204   201    1
   184   162   164   ar
   185    43    44    2
   186   128   125    1
   187   222   220   ar
   188   201   202    1
   189    51    52    2
   190   221   219   ar
   191   210   212   ar
   192   125   126    1
   193   142   140   ar
   194   142   143   ar
   195   133   132    2
   196   140   137   ar
   197   220   219   ar
   198   143   141   ar
   199   219   218    1
   200   126   127    2
   201   202   203    2
   202    62    60    1
   203   132   131    1
   204    60    61    1
   205    60    57    1
   206   137   139   ar
   207   137   135   ar
   208   218   215    1
   209   141   139   ar
   210   131   134    1
   211   131   130    1
   212   214   215    1
   213   134   135    1
   214   139   138   ar
   215   215   216    1
   216   135   136   ar
   217    56    57    1
   218    57    58    1
   219    58    59    2
   220   138   136   ar
   221   216   217    2
