@<TRIPOS>MOLECULE
tmp/4amjB07.pdb
 101 94 0 0 0
SMALL
GASTEIGER

@<TRIPOS>ATOM
      1  N          0.0400   -4.4000   39.7520 N.3   105  ALA105     -0.1245
      2  CA        -0.2810   -2.9910   39.9900 C.3   105  ALA105      0.1562
      3  C         -1.6880   -2.8600   40.5490 C.2   105  ALA105      0.2260
      4  O         -1.8860   -2.0940   41.4770 O.2   105  ALA105     -0.2867
      5  CB        -0.1500   -2.1830   38.7180 C.3   105  ALA105      0.0290
      6  N         -2.0650   -4.0880   44.2120 N.3   108  ARG108     -0.1245
      7  CA        -1.5620   -3.1340   45.1920 C.3   108  ARG108      0.1563
      8  C         -2.5110   -1.9400   45.3250 C.2   108  ARG108      0.2260
      9  O         -2.7580   -1.4500   46.4280 O.2   108  ARG108     -0.2867
     10  CB        -0.1520   -2.6640   44.8530 C.3   108  ARG108      0.0307
     11  CG         0.9150   -3.7460   44.9270 C.3   108  ARG108      0.0489
     12  CD         1.1380   -4.3070   46.3210 C.3   108  ARG108      0.2205
     13  NE         0.1100   -5.2820   46.6820 N.pl3 108  ARG108     -0.0865
     14  CZ        -0.2360   -5.6390   47.9230 C.cat 108  ARG108      0.5346
     15  NH1        0.3290   -5.1130   49.0010 N.pl3 108  ARG108      0.1354
     16  NH2       -1.1850   -6.5340   48.0860 N.pl3 108  ARG108      0.1354
     17  N         -0.1540    2.3400   38.3180 N.3   196  ALA196     -0.1245
     18  CA         0.9980    2.5630   39.1780 C.3   196  ALA196      0.1562
     19  C          1.0830    4.0270   39.6630 C.2   196  ALA196      0.2260
     20  O          1.5000    4.2760   40.7870 O.2   196  ALA196     -0.2867
     21  CB         2.3110    2.1520   38.4890 C.3   196  ALA196      0.0290
     22  N         -1.3080    4.4570   42.4250 N.3   199  VAL199     -0.1231
     23  CA        -0.8420    3.8070   43.6400 C.3   199  VAL199      0.1692
     24  C          0.1120    4.7840   44.3180 C.2   199  VAL199      0.2592
     25  O          0.0940    4.9270   45.5170 O.2   199  VAL199     -0.2718
     26  CB        -0.1680    2.4550   43.3350 C.3   199  VAL199      0.0266
     27  CG1        0.6090    1.9110   44.5250 C.3   199  VAL199      0.0020
     28  CG2       -1.2130    1.4540   42.8900 C.3   199  VAL199      0.0020
     29  N          0.9170    5.4720   43.5180 N.am  200  TYR200     -0.1976
     30  CA         1.8750    6.4490   44.0210 C.3   200  TYR200      0.1639
     31  C          1.1620    7.6130   44.7260 C.2   200  TYR200      0.2290
     32  O          1.5120    7.9700   45.8410 O.2   200  TYR200     -0.2864
     33  CB         2.7090    6.9650   42.8530 C.3   200  TYR200      0.0560
     34  CG         3.7640    7.9850   43.2110 C.ar  200  TYR200     -0.0198
     35  CD1        4.9900    7.5880   43.7290 C.ar  200  TYR200     -0.0009
     36  CD2        3.5440    9.3430   43.0040 C.ar  200  TYR200     -0.0009
     37  CE1        5.9640    8.5140   44.0480 C.ar  200  TYR200      0.0417
     38  CE2        4.5110   10.2790   43.3150 C.ar  200  TYR200      0.0417
     39  CZ         5.7170    9.8610   43.8330 C.ar  200  TYR200      0.1957
     40  OH         6.6780   10.7970   44.1360 O.3   200  TYR200     -0.2866
     41  N         -0.1940    6.3280   47.9900 N.3   203  ALA203     -0.1231
     42  CA         0.8800    6.1650   48.9600 C.3   203  ALA203      0.1694
     43  C          1.2420    7.5320   49.5880 C.2   203  ALA203      0.2591
     44  O          1.5170    7.6260   50.7760 O.2   203  ALA203     -0.2718
     45  CB         2.0980    5.5290   48.3100 C.3   203  ALA203      0.0304
     46  N          1.2270    8.5820   48.7730 N.am  204  LYS204     -0.1980
     47  CA         1.5770    9.9160   49.2320 C.3   204  LYS204      0.1596
     48  C          0.5230   10.5200   50.1670 C.2   204  LYS204      0.2287
     49  O          0.8600   11.2650   51.0860 O.2   204  LYS204     -0.2864
     50  CB         1.8350   10.8680   48.0550 C.3   204  LYS204      0.0298
     51  CG         3.3090   11.0260   47.7260 C.3   204  LYS204      0.0038
     52  CD         3.5570   12.0330   46.6180 C.3   204  LYS204      0.0206
     53  CE         3.0420   13.4160   46.9930 C.3   204  LYS204      0.1093
     54  NZ         3.6170   14.5000   46.1430 N.3   204  LYS204     -0.1314
     55  N          6.1240    1.0020   51.9840 N.3   227  HIS227     -0.1241
     56  CA         6.4960    1.8660   50.8740 C.3   227  HIS227      0.1621
     57  C          7.7470    1.4550   50.1380 C.2   227  HIS227      0.2264
     58  O          7.8690    1.6960   48.9350 O.2   227  HIS227     -0.2867
     59  CB         6.5790    3.2990   51.3540 C.3   227  HIS227      0.0745
     60  CG         5.2280    3.9470   51.4980 C.ar  227  HIS227      0.0817
     61  ND1        5.0400    5.2630   51.3390 N.ar  227  HIS227     -0.2268
     62  CD2        3.9600    3.3900   51.7240 C.ar  227  HIS227      0.1154
     63  CE1        3.7270    5.5520   51.4890 C.ar  227  HIS227      0.1986
     64  NE2        3.0680    4.4030   51.7170 N.ar  227  HIS227     -0.2212
     65  N          6.6770   -1.4080   47.9680 N.3   230  LEU230     -0.1231
     66  CA         5.9930   -0.8020   46.8510 C.3   230  LEU230      0.1693
     67  C          6.9880   -0.2600   45.8140 C.2   230  LEU230      0.2591
     68  O          6.7380   -0.3320   44.6090 O.2   230  LEU230     -0.2718
     69  CB         5.0660    0.3230   47.3060 C.3   230  LEU230      0.0284
     70  CG         3.6720   -0.0210   47.8430 C.3   230  LEU230      0.0019
     71  CD1        2.8900    1.2540   48.1210 C.3   230  LEU230      0.0001
     72  CD2        2.8960   -0.9100   46.8810 C.3   230  LEU230      0.0001
     73  N          8.0900    0.3070   46.2890 N.am  231  LYS231     -0.1980
     74  CA         9.0890    0.9110   45.4230 C.3   231  LYS231      0.1596
     75  C          9.8630   -0.2020   44.6660 C.2   231  LYS231      0.2287
     76  O         10.2050   -0.0330   43.5090 O.2   231  LYS231     -0.2864
     77  CB        10.0410    1.7720   46.2500 C.3   231  LYS231      0.0298
     78  CG        10.8150    2.8160   45.4570 C.3   231  LYS231      0.0038
     79  CD        11.6830    3.6750   46.3750 C.3   231  LYS231      0.0206
     80  CE        12.7710    4.4260   45.6120 C.3   231  LYS231      0.1093
     81  NZ        13.9820    4.6860   46.4540 N.3   231  LYS231     -0.1314
     82  N          8.4750   -3.0360   43.6910 N.3   233  LEU233     -0.1231
     83  CA         7.5120   -3.3070   42.6010 C.3   233  LEU233      0.1693
     84  C          7.5490   -2.2390   41.5340 C.2   233  LEU233      0.2592
     85  O          7.5190   -2.5430   40.3570 O.2   233  LEU233     -0.2718
     86  CB         6.0950   -3.4740   43.1240 C.3   233  LEU233      0.0284
     87  CG         5.9480   -4.6640   44.0820 C.3   233  LEU233      0.0019
     88  CD1        4.5180   -4.7530   44.5950 C.3   233  LEU233      0.0001
     89  CD2        6.3830   -5.9520   43.4270 C.3   233  LEU233      0.0001
     90  N          7.6620   -0.9820   41.9350 N.am  234  GLY234     -0.1957
     91  CA         7.7130    0.1070   40.9680 C.3   234  GLY234      0.1869
     92  C          8.9670    0.0200   40.1140 C.2   234  GLY234      0.2309
     93  O          8.9520    0.3950   38.9450 O.2   234  GLY234     -0.2863
     94  N          8.6300   -2.7750   37.4070 N.3   237  MET237     -0.1245
     95  CA         7.7710   -2.2250   36.3380 C.3   237  MET237      0.1570
     96  C          8.5190   -1.2540   35.4150 C.2   237  MET237      0.2261
     97  O          8.3910   -1.3250   34.1840 O.2   237  MET237     -0.2867
     98  CB         6.5590   -1.5090   36.9140 C.3   237  MET237      0.0387
     99  CG         5.6450   -2.4340   37.6960 C.3   237  MET237      0.0595
    100  SD         4.1760   -1.6770   38.4390 S.3   237  MET237     -0.1393
    101  CE         3.6090   -3.1170   39.3460 C.3   237  MET237      0.0692
@<TRIPOS>BOND
     1    97    96    2
     2    96    95    1
     3    95    98    1
     4    95    94    1
     5    98    99    1
     6    99   100    1
     7    17    18    1
     8   100   101    1
     9    21    18    1
    10     5     2    1
    11    93    92    2
    12    18    19    1
    13    19    20    2
    14     1     2    1
    15     2     3    1
    16    92    91    1
    17    85    84    2
    18     3     4    2
    19    91    90    1
    20    84    90   am
    21    84    83    1
    22    22    23    1
    23    83    86    1
    24    83    82    1
    25    33    34    1
    26    33    30    1
    27    28    26    1
    28    36    34   ar
    29    36    38   ar
    30    86    87    1
    31    34    35   ar
    32    38    39   ar
    33    26    23    1
    34    26    27    1
    35    89    87    1
    36    76    75    2
    37    29    30    1
    38    29    24   am
    39    23    24    1
    40    35    37   ar
    41    39    37   ar
    42    39    40    1
    43    30    31    1
    44    87    88    1
    45     6     7    1
    46    24    25    2
    47    68    67    2
    48    75    74    1
    49    31    32    2
    50    10    11    1
    51    10     7    1
    52    11    12    1
    53     7     8    1
    54     8     9    2
    55    74    77    1
    56    74    73    1
    57    78    77    1
    58    78    79    1
    59    80    79    1
    60    80    81    1
    61    67    73   am
    62    67    66    1
    63    54    53    1
    64    12    13    1
    65    52    53    1
    66    52    51    1
    67    13    14    2
    68    66    69    1
    69    66    65    1
    70    72    70    1
    71    69    70    1
    72    51    50    1
    73    70    71    1
    74    14    16    1
    75    14    15    1
    76    41    42    1
    77    50    47    1
    78    45    42    1
    79    46    47    1
    80    46    43   am
    81    58    57    2
    82    42    43    1
    83    47    48    1
    84    43    44    2
    85    57    56    1
    86    48    49    2
    87    56    59    1
    88    56    55    1
    89    61    63   ar
    90    61    60   ar
    91    59    60    1
    92    63    64   ar
    93    60    62   ar
    94    64    62   ar
