@<TRIPOS>MOLECULE
tmp/4amyA00.pdb
 159 152 0 0 0
SMALL
GASTEIGER

@<TRIPOS>ATOM
      1  N         49.0530   42.5200   89.1620 N.3   173  PHE173     -0.1241
      2  CA        48.4370   41.3590   89.8350 C.3   173  PHE173      0.1605
      3  C         49.1410   41.0040   91.1550 C.2   173  PHE173      0.2264
      4  O         49.5290   39.8590   91.4080 O.2   173  PHE173     -0.2867
      5  CB        48.3470   40.1580   88.8790 C.3   173  PHE173      0.0534
      6  CG        47.6370   40.4840   87.5810 C.ar  173  PHE173     -0.0203
      7  CD1       46.3070   40.9540   87.5870 C.ar  173  PHE173     -0.0042
      8  CD2       48.2870   40.3120   86.3650 C.ar  173  PHE173     -0.0042
      9  CE1       45.6530   41.2720   86.3850 C.ar  173  PHE173     -0.0003
     10  CE2       47.6350   40.6360   85.1540 C.ar  173  PHE173     -0.0003
     11  CZ        46.3230   41.1090   85.1740 C.ar  173  PHE173     -0.0000
     12  N         52.2440   32.3840   89.5560 N.3   235  MET235     -0.1245
     13  CA        52.1630   33.6800   90.2380 C.3   235  MET235      0.1570
     14  C         52.0720   33.4330   91.7440 C.2   235  MET235      0.2261
     15  O         51.1040   32.7970   92.2070 O.2   235  MET235     -0.2867
     16  CB        50.9340   34.4320   89.7500 C.3   235  MET235      0.0387
     17  CG        51.0020   34.7040   88.2490 C.3   235  MET235      0.0595
     18  SD        49.4270   35.1960   87.5360 S.3   235  MET235     -0.1393
     19  CE        49.1250   36.7850   88.3320 C.3   235  MET235      0.0692
     20  N         49.5450   30.4580   92.1080 N.3   252  ARG252     -0.1245
     21  CA        48.4860   30.1630   91.1640 C.3   252  ARG252      0.1563
     22  C         49.0730   29.9490   89.7670 C.2   252  ARG252      0.2260
     23  O         50.1380   30.4580   89.4370 O.2   252  ARG252     -0.2867
     24  CB        47.5080   31.3320   91.1100 C.3   252  ARG252      0.0307
     25  CG        46.9860   31.8370   92.4650 C.3   252  ARG252      0.0489
     26  CD        45.6100   31.2940   92.7750 C.3   252  ARG252      0.2205
     27  NE        45.1120   31.8430   94.0410 N.pl3 252  ARG252     -0.0865
     28  CZ        44.1080   31.3250   94.7630 C.cat 252  ARG252      0.5346
     29  NH1       43.4600   30.2250   94.3660 N.pl3 252  ARG252      0.1354
     30  NH2       43.7590   31.9160   95.9030 N.pl3 252  ARG252      0.1354
     31  N         46.9400   30.0950   86.2350 N.3   254  GLY254     -0.1210
     32  CA        45.6430   30.0860   85.5780 C.3   254  GLY254      0.1956
     33  C         44.5880   30.5730   86.5430 C.2   254  GLY254      0.2612
     34  O         44.8960   30.8810   87.7040 O.2   254  GLY254     -0.2717
     35  N         43.3470   30.6380   86.0860 N.am  255  CYS255     -0.1970
     36  CA        42.2890   31.2090   86.9130 C.3   255  CYS255      0.1712
     37  C         41.5260   30.2030   87.7770 C.2   255  CYS255      0.2296
     38  O         40.6230   30.6040   88.5100 O.2   255  CYS255     -0.2864
     39  CB        41.3330   32.0300   86.0430 C.3   255  CYS255      0.0983
     40  SG        42.0790   33.6310   85.5670 S.3   255  CYS255     -0.0798
     41  N         27.1620   36.2020   82.5570 N.3   473  TYR473     -0.1241
     42  CA        28.6230   36.1120   82.4880 C.3   473  TYR473      0.1605
     43  C         28.9480   34.6640   82.1560 C.2   473  TYR473      0.2264
     44  O         29.2500   34.3650   80.9980 O.2   473  TYR473     -0.2867
     45  CB        29.2500   36.6030   83.7860 C.3   473  TYR473      0.0534
     46  CG        30.7690   36.6050   83.8290 C.ar  473  TYR473     -0.0201
     47  CD1       31.5050   37.5680   83.1340 C.ar  473  TYR473     -0.0009
     48  CD2       31.4630   35.6330   84.5650 C.ar  473  TYR473     -0.0009
     49  CE1       32.8950   37.6000   83.2060 C.ar  473  TYR473      0.0417
     50  CE2       32.8610   35.6230   84.6090 C.ar  473  TYR473      0.0417
     51  CZ        33.5680   36.6200   83.9390 C.ar  473  TYR473      0.1957
     52  OH        34.9430   36.6190   84.0030 O.3   473  TYR473     -0.2866
     53  N         34.5630   31.1890   85.1130 N.3   476  PHE476     -0.1241
     54  CA        35.5850   31.5130   86.1000 C.3   476  PHE476      0.1605
     55  C         35.1140   31.4220   87.5450 C.2   476  PHE476      0.2264
     56  O         35.6330   32.1380   88.3960 O.2   476  PHE476     -0.2867
     57  CB        36.2390   32.8760   85.7610 C.3   476  PHE476      0.0534
     58  CG        36.9210   32.8770   84.4160 C.ar  476  PHE476     -0.0203
     59  CD1       38.2210   32.3630   84.2770 C.ar  476  PHE476     -0.0042
     60  CD2       36.2290   33.3000   83.2730 C.ar  476  PHE476     -0.0042
     61  CE1       38.8560   32.3360   83.0270 C.ar  476  PHE476     -0.0003
     62  CE2       36.8490   33.2520   82.0170 C.ar  476  PHE476     -0.0003
     63  CZ        38.1570   32.7710   81.8980 C.ar  476  PHE476     -0.0000
     64  N         32.6990   32.6220   88.9780 N.3   478  ILE478     -0.1245
     65  CA        32.1550   33.8940   89.4840 C.3   478  ILE478      0.1561
     66  C         30.6450   33.7970   89.5820 C.2   478  ILE478      0.2260
     67  O         29.9920   33.4040   88.6080 O.2   478  ILE478     -0.2867
     68  CB        32.5070   35.0310   88.5120 C.3   478  ILE478      0.0252
     69  CG1       34.0370   35.1510   88.3610 C.3   478  ILE478      0.0019
     70  CG2       31.8820   36.3910   88.9370 C.3   478  ILE478      0.0019
     71  CD1       34.7280   35.5800   89.6250 C.3   478  ILE478      0.0001
     72  N         33.4960   41.0920   79.2150 N.3   554  SER554     -0.1202
     73  CA        34.6970   40.2850   79.3910 C.3   554  SER554      0.2020
     74  C         34.3960   38.9110   78.8430 C.2   554  SER554      0.2618
     75  O         34.1120   38.7910   77.6650 O.2   554  SER554     -0.2717
     76  CB        35.0830   40.2590   80.8850 C.3   554  SER554      0.2103
     77  OG        36.4560   39.8990   81.0670 O.3   554  SER554     -0.2182
     78  N         34.4380   37.8900   79.7020 N.am  555  ASN555     -0.1974
     79  CA        33.9190   36.5510   79.4070 C.3   555  ASN555      0.1688
     80  C         32.4200   36.6060   79.0790 C.2   555  ASN555      0.2292
     81  O         31.9130   35.7980   78.3010 O.2   555  ASN555     -0.2864
     82  CB        34.1690   35.6120   80.6160 C.3   555  ASN555      0.1181
     83  CG        33.4550   34.2690   80.4740 C.2   555  ASN555      0.2629
     84  OD1       33.8130   33.4480   79.6340 O.2   555  ASN555     -0.2716
     85  ND2       32.4100   34.0730   81.2680 N.am  555  ASN555     -0.0877
     86  N         36.1670   38.9140   74.9660 N.3   580  VAL580     -0.1245
     87  CA        37.1440   38.0070   74.3730 C.3   580  VAL580      0.1561
     88  C         36.5140   37.4050   73.1280 C.2   580  VAL580      0.2260
     89  O         35.5930   36.6020   73.2170 O.2   580  VAL580     -0.2867
     90  CB        37.5210   36.8570   75.3280 C.3   580  VAL580      0.0252
     91  CG1       38.7790   36.1070   74.8160 C.3   580  VAL580      0.0019
     92  CG2       37.6980   37.3870   76.7820 C.3   580  VAL580      0.0019
     93  N         47.6730   38.9930   79.9280 N.3   591  ILE591     -0.1245
     94  CA        47.4320   37.9820   80.9960 C.3   591  ILE591      0.1561
     95  C         46.4860   36.8630   80.4630 C.2   591  ILE591      0.2260
     96  O         46.0480   35.9690   81.1970 O.2   591  ILE591     -0.2867
     97  CB        46.8980   38.6320   82.3220 C.3   591  ILE591      0.0252
     98  CG1       47.0840   37.7020   83.5470 C.3   591  ILE591      0.0019
     99  CG2       45.3700   38.8930   82.2380 C.3   591  ILE591      0.0019
    100  CD1       48.5050   37.4420   83.9700 C.3   591  ILE591      0.0001
    101  N         46.3000   33.0030   81.3810 N.3   594  ALA594     -0.1231
    102  CA        45.6730   32.5990   82.6210 C.3   594  ALA594      0.1694
    103  C         44.2310   32.0690   82.4420 C.2   594  ALA594      0.2592
    104  O         43.7220   31.3530   83.3130 O.2   594  ALA594     -0.2718
    105  CB        45.7200   33.7530   83.6290 C.3   594  ALA594      0.0304
    106  N         43.6010   32.3460   81.2960 N.am  595  TRP595     -0.1976
    107  CA        42.2090   31.9190   81.0620 C.3   595  TRP595      0.1640
    108  C         42.0500   30.5500   80.4090 C.2   595  TRP595      0.2290
    109  O         40.9210   30.1290   80.2120 O.2   595  TRP595     -0.2864
    110  CB        41.4110   32.9390   80.2200 C.3   595  TRP595      0.0576
    111  CG        41.6620   34.3660   80.5710 C.ar  595  TRP595      0.0006
    112  CD1       41.8870   34.8800   81.8100 C.ar  595  TRP595      0.0946
    113  CD2       41.7030   35.4690   79.6530 C.ar  595  TRP595      0.0152
    114  NE1       42.0970   36.2410   81.7210 N.ar  595  TRP595     -0.2442
    115  CE2       41.9790   36.6300   80.4120 C.ar  595  TRP595      0.0810
    116  CE3       41.5530   35.5780   78.2590 C.ar  595  TRP595      0.0012
    117  CZ2       42.1220   37.9030   79.8270 C.ar  595  TRP595      0.0191
    118  CZ3       41.6740   36.8610   77.6680 C.ar  595  TRP595      0.0001
    119  CH2       41.9650   37.9960   78.4490 C.ar  595  TRP595      0.0015
    120  N         39.0170   27.9790   79.2120 N.3   599  TYR599     -0.1241
    121  CA        38.7680   27.8700   77.7640 C.3   599  TYR599      0.1605
    122  C         39.4730   26.7300   77.0550 C.2   599  TYR599      0.2264
    123  O         39.0400   26.3110   75.9710 O.2   599  TYR599     -0.2867
    124  CB        39.1760   29.1560   77.0610 C.3   599  TYR599      0.0534
    125  CG        38.4050   30.3830   77.4870 C.ar  599  TYR599     -0.0201
    126  CD1       37.0330   30.3160   77.7530 C.ar  599  TYR599     -0.0009
    127  CD2       39.0570   31.6240   77.5980 C.ar  599  TYR599     -0.0009
    128  CE1       36.3220   31.4600   78.1350 C.ar  599  TYR599      0.0417
    129  CE2       38.3690   32.7860   77.9820 C.ar  599  TYR599      0.0417
    130  CZ        37.0020   32.6920   78.2490 C.ar  599  TYR599      0.1957
    131  OH        36.3160   33.8270   78.5960 O.3   599  TYR599     -0.2866
    132  N         43.5570   44.1270   80.1620 N.3   643  ARG643     -0.1231
    133  CA        42.9710   42.8510   80.6100 C.3   643  ARG643      0.1694
    134  C         42.5630   42.0200   79.3770 C.2   643  ARG643      0.2591
    135  O         43.0710   40.9160   79.1740 O.2   643  ARG643     -0.2718
    136  CB        41.7970   43.0500   81.5490 C.3   643  ARG643      0.0321
    137  CG        41.2750   41.6810   82.1460 C.3   643  ARG643      0.0489
    138  CD        42.3250   41.0280   83.0560 C.3   643  ARG643      0.2205
    139  NE        42.5750   41.9480   84.1690 N.pl3 643  ARG643     -0.0865
    140  CZ        41.7730   42.0500   85.2110 C.cat 643  ARG643      0.5346
    141  NH1       40.6980   41.2710   85.2830 N.pl3 643  ARG643      0.1354
    142  NH2       42.0340   42.9400   86.1670 N.pl3 643  ARG643      0.1354
    143  N         41.6630   42.5780   78.5700 N.am  644  VAL644     -0.1980
    144  CA        41.2110   41.9760   77.3370 C.3   644  VAL644      0.1595
    145  C         41.6110   42.9260   76.1980 C.2   644  VAL644      0.2287
    146  O         40.9130   43.9120   75.9130 O.2   644  VAL644     -0.2864
    147  CB        39.7050   41.6980   77.3670 C.3   644  VAL644      0.0276
    148  CG1       39.1640   41.2600   75.9800 C.3   644  VAL644      0.0022
    149  CG2       39.3860   40.5910   78.3900 C.3   644  VAL644      0.0022
    150  N         39.7800   48.0420   81.2970 N.3   680  HIS680     -0.1241
    151  CA        38.8110   46.9640   81.3160 C.3   680  HIS680      0.1621
    152  C         37.5410   47.3630   82.0680 C.2   680  HIS680      0.2264
    153  O         36.4590   46.8360   81.8200 O.2   680  HIS680     -0.2867
    154  CB        39.4200   45.7180   81.9390 C.3   680  HIS680      0.0745
    155  CG        38.6630   44.4670   81.6310 C.ar  680  HIS680      0.0817
    156  ND1       38.4120   44.0690   80.3380 N.ar  680  HIS680     -0.2268
    157  CD2       38.1380   43.5080   82.4350 C.ar  680  HIS680      0.1154
    158  CE1       37.7350   42.9350   80.3550 C.ar  680  HIS680      0.1986
    159  NE2       37.5600   42.5700   81.6130 N.ar  680  HIS680     -0.2212
@<TRIPOS>BOND
     1    88    89    2
     2    88    87    1
     3    87    86    1
     4    87    90    1
     5    91    90    1
     6    90    92    1
     7   146   145    2
     8   123   122    2
     9   148   147    1
    10   145   144    1
    11   122   121    1
    12   124   125    1
    13   124   121    1
    14   144   147    1
    15   144   143    1
    16   147   149    1
    17   125   127   ar
    18   125   126   ar
    19   127   129   ar
    20    75    74    2
    21   118   116   ar
    22   118   119   ar
    23   126   128   ar
    24   121   120    1
    25   129   130   ar
    26   128   130   ar
    27   130   131    1
    28   116   113   ar
    29    81    80    2
    30   119   117   ar
    31   143   134   am
    32    74    73    1
    33    74    78   am
    34    80    79    1
    35   135   134    2
    36    72    73    1
    37   134   133    1
    38    73    76    1
    39    79    78    1
    40    79    82    1
    41    84    83    2
    42   113   115   ar
    43   113   111   ar
    44   117   115   ar
    45    93    94    1
    46   132   133    1
    47   109   108    2
    48   110   111    1
    49   110   107    1
    50   156   158   ar
    51   156   155   ar
    52   158   159   ar
    53   108   107    1
    54   115   114   ar
    55    95    94    1
    56    95    96    2
    57    83    82    1
    58    83    85   am
    59   111   112   ar
    60   133   136    1
    61    76    77    1
    62    94    97    1
    63    44    43    2
    64   107   106    1
    65   106   103   am
    66   150   151    1
    67   151   154    1
    68   151   152    1
    69   101   102    1
    70   136   137    1
    71   159   157   ar
    72   155   154    1
    73   155   157   ar
    74   114   112   ar
    75   153   152    2
    76    63    62   ar
    77    63    61   ar
    78    62    60   ar
    79   137   138    1
    80    43    42    1
    81    99    97    1
    82    97    98    1
    83   103   102    1
    84   103   104    2
    85    42    41    1
    86    42    45    1
    87   102   105    1
    88    61    59   ar
    89   138   139    1
    90    47    49   ar
    91    47    46   ar
    92    49    51   ar
    93    60    58   ar
    94    98   100    1
    95    45    46    1
    96    46    48   ar
    97    51    52    1
    98    51    50   ar
    99   139   140    2
   100    59    58   ar
   101    58    57    1
   102    48    50   ar
   103    53    54    1
   104    10    11   ar
   105    10     8   ar
   106    11     9   ar
   107   140   141    1
   108   140   142    1
   109    40    39    1
   110    32    31    1
   111    32    33    1
   112    57    54    1
   113    39    36    1
   114    35    33   am
   115    35    36    1
   116    54    55    1
   117     8     6   ar
   118     9     7   ar
   119    33    34    2
   120    36    37    1
   121    18    17    1
   122    18    19    1
   123    55    56    2
   124     6     7   ar
   125     6     5    1
   126    37    38    2
   127    17    16    1
   128    69    68    1
   129    69    71    1
   130    68    70    1
   131    68    65    1
   132    67    66    2
   133     5     2    1
   134    64    65    1
   135     1     2    1
   136    23    22    2
   137    65    66    1
   138    12    13    1
   139    16    13    1
   140    22    21    1
   141     2     3    1
   142    13    14    1
   143    24    21    1
   144    24    25    1
   145     3     4    2
   146    21    20    1
   147    14    15    2
   148    25    26    1
   149    26    27    1
   150    27    28    2
   151    29    28    1
   152    28    30    1
