@<TRIPOS>MOLECULE
tmp/4amzA00.pdb
 159 152 0 0 0
SMALL
GASTEIGER

@<TRIPOS>ATOM
      1  N         49.2220   42.4580   89.0550 N.3   173  PHE173     -0.1241
      2  CA        48.6560   41.2760   89.7330 C.3   173  PHE173      0.1605
      3  C         49.3450   40.9560   91.0560 C.2   173  PHE173      0.2264
      4  O         49.7060   39.8070   91.3480 O.2   173  PHE173     -0.2867
      5  CB        48.6020   40.0780   88.7660 C.3   173  PHE173      0.0534
      6  CG        48.0590   40.4570   87.3880 C.ar  173  PHE173     -0.0203
      7  CD1       46.8070   41.0910   87.2690 C.ar  173  PHE173     -0.0042
      8  CD2       48.8010   40.2180   86.2360 C.ar  173  PHE173     -0.0042
      9  CE1       46.3030   41.4590   86.0230 C.ar  173  PHE173     -0.0003
     10  CE2       48.2850   40.5880   84.9650 C.ar  173  PHE173     -0.0003
     11  CZ        47.0460   41.2150   84.8750 C.ar  173  PHE173     -0.0000
     12  N         52.4280   32.3560   89.6310 N.3   235  MET235     -0.1245
     13  CA        52.2990   33.6570   90.2860 C.3   235  MET235      0.1570
     14  C         52.1940   33.3870   91.7740 C.2   235  MET235      0.2261
     15  O         51.2380   32.7360   92.2290 O.2   235  MET235     -0.2867
     16  CB        51.0610   34.4090   89.7850 C.3   235  MET235      0.0387
     17  CG        51.0790   34.6400   88.2970 C.3   235  MET235      0.0595
     18  SD        49.5010   35.1470   87.6230 S.3   235  MET235     -0.1393
     19  CE        49.4010   36.8820   88.0880 C.3   235  MET235      0.0692
     20  N         49.5770   30.4830   92.0830 N.3   252  ARG252     -0.1245
     21  CA        48.5080   30.2400   91.1220 C.3   252  ARG252      0.1563
     22  C         49.1220   30.0290   89.7440 C.2   252  ARG252      0.2260
     23  O         50.1800   30.5680   89.4290 O.2   252  ARG252     -0.2867
     24  CB        47.5220   31.4280   91.0280 C.3   252  ARG252      0.0307
     25  CG        46.9900   32.0020   92.3520 C.3   252  ARG252      0.0489
     26  CD        45.6180   31.4810   92.6570 C.3   252  ARG252      0.2205
     27  NE        45.1670   31.8550   94.0020 N.pl3 252  ARG252     -0.0865
     28  CZ        44.1310   31.2990   94.6360 C.cat 252  ARG252      0.5346
     29  NH1       43.4090   30.3330   94.0660 N.pl3 252  ARG252      0.1354
     30  NH2       43.8200   31.7080   95.8640 N.pl3 252  ARG252      0.1354
     31  N         46.9400   30.1700   86.1830 N.3   254  GLY254     -0.1210
     32  CA        45.6100   30.1780   85.5970 C.3   254  GLY254      0.1956
     33  C         44.5670   30.7040   86.5650 C.2   254  GLY254      0.2612
     34  O         44.8920   31.2390   87.6470 O.2   254  GLY254     -0.2717
     35  N         43.3050   30.5440   86.1770 N.am  255  CYS255     -0.1970
     36  CA        42.2030   31.1560   86.9110 C.3   255  CYS255      0.1712
     37  C         41.3940   30.1750   87.7490 C.2   255  CYS255      0.2296
     38  O         40.4190   30.5630   88.3870 O.2   255  CYS255     -0.2864
     39  CB        41.3090   31.9360   85.9640 C.3   255  CYS255      0.0983
     40  SG        42.0660   33.5130   85.4990 S.3   255  CYS255     -0.0798
     41  N         27.1350   36.2410   82.5640 N.3   473  TYR473     -0.1241
     42  CA        28.6160   36.1340   82.5200 C.3   473  TYR473      0.1605
     43  C         29.0020   34.6930   82.1480 C.2   473  TYR473      0.2264
     44  O         29.3220   34.4170   80.9870 O.2   473  TYR473     -0.2867
     45  CB        29.2590   36.5950   83.8350 C.3   473  TYR473      0.0534
     46  CG        30.7830   36.6440   83.8340 C.ar  473  TYR473     -0.0201
     47  CD1       31.4840   37.6050   83.0790 C.ar  473  TYR473     -0.0009
     48  CD2       31.5200   35.7410   84.6110 C.ar  473  TYR473     -0.0009
     49  CE1       32.8930   37.6610   83.1000 C.ar  473  TYR473      0.0417
     50  CE2       32.9090   35.7640   84.6250 C.ar  473  TYR473      0.0417
     51  CZ        33.5870   36.7320   83.8800 C.ar  473  TYR473      0.1957
     52  OH        34.9570   36.7390   83.9420 O.3   473  TYR473     -0.2866
     53  N         34.6170   31.2070   85.0820 N.3   476  PHE476     -0.1241
     54  CA        35.6540   31.5810   86.0360 C.3   476  PHE476      0.1605
     55  C         35.1950   31.5080   87.4880 C.2   476  PHE476      0.2264
     56  O         35.7460   32.2090   88.3560 O.2   476  PHE476     -0.2867
     57  CB        36.2200   32.9720   85.6650 C.3   476  PHE476      0.0534
     58  CG        36.8720   32.9710   84.3170 C.ar  476  PHE476     -0.0203
     59  CD1       38.1950   32.5160   84.1740 C.ar  476  PHE476     -0.0042
     60  CD2       36.1370   33.3080   83.1750 C.ar  476  PHE476     -0.0042
     61  CE1       38.8080   32.4540   82.9070 C.ar  476  PHE476     -0.0003
     62  CE2       36.7300   33.2480   81.9130 C.ar  476  PHE476     -0.0003
     63  CZ        38.0640   32.8180   81.7690 C.ar  476  PHE476     -0.0000
     64  N         32.7830   32.7330   88.8970 N.3   478  ILE478     -0.1245
     65  CA        32.2480   34.0090   89.4060 C.3   478  ILE478      0.1561
     66  C         30.7240   33.9050   89.5570 C.2   478  ILE478      0.2260
     67  O         30.0450   33.5610   88.5970 O.2   478  ILE478     -0.2867
     68  CB        32.6060   35.2110   88.4770 C.3   478  ILE478      0.0252
     69  CG1       34.1310   35.3100   88.2710 C.3   478  ILE478      0.0019
     70  CG2       31.9810   36.5530   89.0210 C.3   478  ILE478      0.0019
     71  CD1       34.9140   35.5210   89.6050 C.3   478  ILE478      0.0001
     72  N         33.5670   41.1550   79.2250 N.3   554  SER554     -0.1202
     73  CA        34.7570   40.3040   79.3840 C.3   554  SER554      0.2020
     74  C         34.3840   38.9180   78.9030 C.2   554  SER554      0.2618
     75  O         34.0020   38.7860   77.7690 O.2   554  SER554     -0.2717
     76  CB        35.2530   40.3160   80.8400 C.3   554  SER554      0.2103
     77  OG        36.6040   39.9140   80.9490 O.3   554  SER554     -0.2182
     78  N         34.4480   37.9020   79.7690 N.am  555  ASN555     -0.1974
     79  CA        33.9120   36.5790   79.4550 C.3   555  ASN555      0.1688
     80  C         32.4100   36.6690   79.1020 C.2   555  ASN555      0.2292
     81  O         31.9220   35.9050   78.2860 O.2   555  ASN555     -0.2864
     82  CB        34.1710   35.6060   80.6260 C.3   555  ASN555      0.1181
     83  CG        33.4770   34.2760   80.4450 C.2   555  ASN555      0.2629
     84  OD1       33.8100   33.4880   79.5430 O.2   555  ASN555     -0.2716
     85  ND2       32.4810   34.0250   81.2890 N.am  555  ASN555     -0.0877
     86  N         36.1620   38.9050   75.0140 N.3   580  VAL580     -0.1245
     87  CA        37.1550   37.9890   74.4180 C.3   580  VAL580      0.1561
     88  C         36.5590   37.4010   73.1370 C.2   580  VAL580      0.2260
     89  O         35.6510   36.5670   73.2130 O.2   580  VAL580     -0.2867
     90  CB        37.5410   36.8330   75.4010 C.3   580  VAL580      0.0252
     91  CG1       38.7720   36.0680   74.8710 C.3   580  VAL580      0.0019
     92  CG2       37.7960   37.3980   76.8500 C.3   580  VAL580      0.0019
     93  N         47.7030   38.9900   80.0630 N.3   591  ILE591     -0.1245
     94  CA        47.4110   37.9630   81.1060 C.3   591  ILE591      0.1561
     95  C         46.4630   36.8650   80.5380 C.2   591  ILE591      0.2260
     96  O         45.9860   35.9910   81.2750 O.2   591  ILE591     -0.2867
     97  CB        46.8280   38.6090   82.4040 C.3   591  ILE591      0.0252
     98  CG1       46.8270   37.6240   83.6000 C.3   591  ILE591      0.0019
     99  CG2       45.3750   39.1000   82.1870 C.3   591  ILE591      0.0019
    100  CD1       48.2030   37.0200   83.9440 C.3   591  ILE591      0.0001
    101  N         46.3090   33.1110   81.4240 N.3   594  ALA594     -0.1231
    102  CA        45.6770   32.6270   82.6730 C.3   594  ALA594      0.1694
    103  C         44.2580   32.0630   82.4600 C.2   594  ALA594      0.2592
    104  O         43.7710   31.2930   83.2900 O.2   594  ALA594     -0.2718
    105  CB        45.6730   33.7330   83.7480 C.3   594  ALA594      0.0304
    106  N         43.6210   32.3770   81.3340 N.am  595  TRP595     -0.1976
    107  CA        42.2280   31.9440   81.0930 C.3   595  TRP595      0.1640
    108  C         42.0800   30.5780   80.4430 C.2   595  TRP595      0.2290
    109  O         40.9550   30.1320   80.2650 O.2   595  TRP595     -0.2864
    110  CB        41.4060   32.9830   80.2580 C.3   595  TRP595      0.0576
    111  CG        41.6740   34.4150   80.6260 C.ar  595  TRP595      0.0006
    112  CD1       41.9630   34.9120   81.8750 C.ar  595  TRP595      0.0946
    113  CD2       41.7110   35.5290   79.7310 C.ar  595  TRP595      0.0152
    114  NE1       42.1990   36.2740   81.8020 N.ar  595  TRP595     -0.2442
    115  CE2       42.0290   36.6790   80.4990 C.ar  595  TRP595      0.0810
    116  CE3       41.4930   35.6710   78.3470 C.ar  595  TRP595      0.0012
    117  CZ2       42.1650   37.9510   79.9320 C.ar  595  TRP595      0.0191
    118  CZ3       41.6100   36.9710   77.7720 C.ar  595  TRP595      0.0001
    119  CH2       41.9520   38.0790   78.5750 C.ar  595  TRP595      0.0015
    120  N         38.9950   27.9660   79.2080 N.3   599  TYR599     -0.1241
    121  CA        38.7140   27.8450   77.7780 C.3   599  TYR599      0.1605
    122  C         39.4550   26.7190   77.0550 C.2   599  TYR599      0.2264
    123  O         39.0250   26.2720   75.9860 O.2   599  TYR599     -0.2867
    124  CB        39.0710   29.1600   77.0850 C.3   599  TYR599      0.0534
    125  CG        38.3080   30.3880   77.5250 C.ar  599  TYR599     -0.0201
    126  CD1       36.9350   30.3340   77.8230 C.ar  599  TYR599     -0.0009
    127  CD2       38.9630   31.6210   77.6180 C.ar  599  TYR599     -0.0009
    128  CE1       36.2190   31.5060   78.2060 C.ar  599  TYR599      0.0417
    129  CE2       38.2780   32.7900   77.9650 C.ar  599  TYR599      0.0417
    130  CZ        36.8990   32.7230   78.2730 C.ar  599  TYR599      0.1957
    131  OH        36.2560   33.8880   78.6270 O.3   599  TYR599     -0.2866
    132  N         43.5650   44.1370   80.1560 N.3   643  ARG643     -0.1231
    133  CA        43.0010   42.8450   80.6140 C.3   643  ARG643      0.1694
    134  C         42.5860   41.9810   79.4000 C.2   643  ARG643      0.2591
    135  O         43.1170   40.8800   79.1840 O.2   643  ARG643     -0.2718
    136  CB        41.8360   43.0300   81.6020 C.3   643  ARG643      0.0321
    137  CG        41.3210   41.7070   82.2110 C.3   643  ARG643      0.0489
    138  CD        42.3820   41.0400   83.0650 C.3   643  ARG643      0.2205
    139  NE        42.6770   41.8750   84.2320 N.pl3 643  ARG643     -0.0865
    140  CZ        41.9510   41.9170   85.3430 C.cat 643  ARG643      0.5346
    141  NH1       40.8690   41.1380   85.4960 N.pl3 643  ARG643      0.1354
    142  NH2       42.3230   42.7460   86.3330 N.pl3 643  ARG643      0.1354
    143  N         41.6800   42.5220   78.5840 N.am  644  VAL644     -0.1980
    144  CA        41.2840   41.9200   77.3060 C.3   644  VAL644      0.1595
    145  C         41.6760   42.9280   76.2210 C.2   644  VAL644      0.2287
    146  O         40.9720   43.9250   75.9820 O.2   644  VAL644     -0.2864
    147  CB        39.7660   41.5900   77.2730 C.3   644  VAL644      0.0276
    148  CG1       39.3060   41.0300   75.9050 C.3   644  VAL644      0.0022
    149  CG2       39.4130   40.5810   78.3820 C.3   644  VAL644      0.0022
    150  N         39.7960   48.1370   81.3380 N.3   680  HIS680     -0.1241
    151  CA        38.8660   47.0180   81.3130 C.3   680  HIS680      0.1621
    152  C         37.5680   47.3820   82.0260 C.2   680  HIS680      0.2264
    153  O         36.5040   46.8230   81.7660 O.2   680  HIS680     -0.2867
    154  CB        39.4770   45.7760   81.9520 C.3   680  HIS680      0.0745
    155  CG        38.7640   44.5180   81.5640 C.ar  680  HIS680      0.0817
    156  ND1       38.5640   44.1580   80.2460 N.ar  680  HIS680     -0.2268
    157  CD2       38.1920   43.5480   82.3140 C.ar  680  HIS680      0.1154
    158  CE1       37.9100   43.0110   80.2080 C.ar  680  HIS680      0.1986
    159  NE2       37.6830   42.6150   81.4480 N.ar  680  HIS680     -0.2212
@<TRIPOS>BOND
     1    88    89    2
     2    88    87    1
     3    87    86    1
     4    87    90    1
     5    91    90    1
     6    90    92    1
     7   148   147    1
     8   146   145    2
     9   123   122    2
    10   145   144    1
    11   122   121    1
    12   124   125    1
    13   124   121    1
    14   147   144    1
    15   147   149    1
    16   144   143    1
    17   125   127   ar
    18   125   126   ar
    19   127   129   ar
    20    75    74    2
    21   118   116   ar
    22   118   119   ar
    23   121   120    1
    24   126   128   ar
    25   129   130   ar
    26   128   130   ar
    27   130   131    1
    28    81    80    2
    29   116   113   ar
    30   119   117   ar
    31   143   134   am
    32    74    73    1
    33    74    78   am
    34    80    79    1
    35   135   134    2
    36    72    73    1
    37    73    76    1
    38   134   133    1
    39    79    78    1
    40    79    82    1
    41    84    83    2
    42   113   115   ar
    43   113   111   ar
    44   117   115   ar
    45    93    94    1
    46   132   133    1
    47   158   156   ar
    48   158   159   ar
    49   156   155   ar
    50   110   111    1
    51   110   107    1
    52   109   108    2
    53   108   107    1
    54    83    82    1
    55    83    85   am
    56   115   114   ar
    57    95    94    1
    58    95    96    2
    59   133   136    1
    60   111   112   ar
    61    76    77    1
    62    44    43    2
    63   107   106    1
    64    94    97    1
    65   151   150    1
    66   151   154    1
    67   151   152    1
    68   106   103   am
    69   101   102    1
    70   159   157   ar
    71   155   154    1
    72   155   157   ar
    73   136   137    1
    74   153   152    2
    75    63    62   ar
    76    63    61   ar
    77   114   112   ar
    78    62    60   ar
    79    43    42    1
    80    99    97    1
    81   137   138    1
    82    97    98    1
    83   103   102    1
    84   103   104    2
    85    42    41    1
    86    42    45    1
    87   102   105    1
    88    61    59   ar
    89   138   139    1
    90    47    49   ar
    91    47    46   ar
    92    49    51   ar
    93    60    58   ar
    94    98   100    1
    95    46    45    1
    96    46    48   ar
    97    51    52    1
    98    51    50   ar
    99    59    58   ar
   100   139   140    2
   101    58    57    1
   102    48    50   ar
   103    11    10   ar
   104    11     9   ar
   105    10     8   ar
   106    53    54    1
   107   140   141    1
   108   140   142    1
   109    40    39    1
   110    32    31    1
   111    32    33    1
   112    57    54    1
   113    39    36    1
   114     9     7   ar
   115    54    55    1
   116    35    33   am
   117    35    36    1
   118     8     6   ar
   119    33    34    2
   120    36    37    1
   121     7     6   ar
   122     6     5    1
   123    55    56    2
   124    18    19    1
   125    18    17    1
   126    37    38    2
   127    69    68    1
   128    69    71    1
   129    17    16    1
   130    68    70    1
   131    68    65    1
   132    67    66    2
   133     5     2    1
   134    64    65    1
   135     1     2    1
   136    65    66    1
   137    23    22    2
   138    12    13    1
   139     2     3    1
   140    22    21    1
   141    16    13    1
   142    13    14    1
   143    24    21    1
   144    24    25    1
   145     3     4    2
   146    21    20    1
   147    14    15    2
   148    25    26    1
   149    26    27    1
   150    27    28    2
   151    29    28    1
   152    28    30    1
