@<TRIPOS>MOLECULE
tmp/4an0A00.pdb
 159 152 0 0 0
SMALL
GASTEIGER

@<TRIPOS>ATOM
      1  N         49.3820   42.6820   89.5510 N.3   173  PHE173     -0.1241
      2  CA        48.7820   41.5350   90.2250 C.3   173  PHE173      0.1605
      3  C         49.4590   41.1870   91.5540 C.2   173  PHE173      0.2264
      4  O         49.7910   40.0200   91.8380 O.2   173  PHE173     -0.2867
      5  CB        48.7120   40.3520   89.2860 C.3   173  PHE173      0.0534
      6  CG        48.1910   40.7130   87.9120 C.ar  173  PHE173     -0.0203
      7  CD1       46.9510   41.3520   87.7650 C.ar  173  PHE173     -0.0042
      8  CD2       48.9250   40.4030   86.7760 C.ar  173  PHE173     -0.0042
      9  CE1       46.4860   41.6790   86.5080 C.ar  173  PHE173     -0.0003
     10  CE2       48.4670   40.7260   85.5290 C.ar  173  PHE173     -0.0003
     11  CZ        47.2620   41.3970   85.3830 C.ar  173  PHE173     -0.0000
     12  N         52.5080   32.5480   90.1150 N.3   235  MET235     -0.1245
     13  CA        52.4090   33.8400   90.7930 C.3   235  MET235      0.1570
     14  C         52.3620   33.5930   92.2780 C.2   235  MET235      0.2261
     15  O         51.4690   32.8960   92.7480 O.2   235  MET235     -0.2867
     16  CB        51.1640   34.5830   90.3080 C.3   235  MET235      0.0387
     17  CG        51.2310   34.8740   88.8200 C.3   235  MET235      0.0595
     18  SD        49.6470   35.3370   88.0490 S.3   235  MET235     -0.1393
     19  CE        49.3510   36.9740   88.6250 C.3   235  MET235      0.0692
     20  N         49.7870   30.6540   92.5230 N.3   252  ARG252     -0.1245
     21  CA        48.7440   30.4370   91.5120 C.3   252  ARG252      0.1563
     22  C         49.3640   30.2310   90.1430 C.2   252  ARG252      0.2260
     23  O         50.3960   30.7980   89.8110 O.2   252  ARG252     -0.2867
     24  CB        47.7920   31.6390   91.4240 C.3   252  ARG252      0.0307
     25  CG        47.2350   32.1190   92.7640 C.3   252  ARG252      0.0489
     26  CD        45.8660   31.6430   93.0250 C.3   252  ARG252      0.2205
     27  NE        45.4900   31.9810   94.3990 N.pl3 252  ARG252     -0.0865
     28  CZ        44.4330   31.4880   95.0690 C.cat 252  ARG252      0.5346
     29  NH1       43.5900   30.5990   94.5090 N.pl3 252  ARG252      0.1354
     30  NH2       44.2310   31.8810   96.3310 N.pl3 252  ARG252      0.1354
     31  N         47.2640   30.3700   86.5910 N.3   254  GLY254     -0.1210
     32  CA        45.9160   30.4260   86.0510 C.3   254  GLY254      0.1956
     33  C         44.8360   30.8170   87.0560 C.2   254  GLY254      0.2612
     34  O         45.1120   31.1650   88.2220 O.2   254  GLY254     -0.2717
     35  N         43.5910   30.7410   86.5970 N.am  255  CYS255     -0.1970
     36  CA        42.4790   31.3860   87.3020 C.3   255  CYS255      0.1712
     37  C         41.6630   30.4020   88.1120 C.2   255  CYS255      0.2296
     38  O         40.7220   30.7930   88.7810 O.2   255  CYS255     -0.2864
     39  CB        41.5890   32.1470   86.2990 C.3   255  CYS255      0.0983
     40  SG        42.2740   33.7980   85.8870 S.3   255  CYS255     -0.0798
     41  N         27.3960   36.3390   82.6990 N.3   473  TYR473     -0.1241
     42  CA        28.8660   36.2170   82.6560 C.3   473  TYR473      0.1605
     43  C         29.2930   34.7650   82.3380 C.2   473  TYR473      0.2264
     44  O         29.6640   34.4490   81.1980 O.2   473  TYR473     -0.2867
     45  CB        29.4300   36.7210   83.9800 C.3   473  TYR473      0.0534
     46  CG        30.9550   36.7910   84.1110 C.ar  473  TYR473     -0.0201
     47  CD1       31.6960   37.8550   83.5750 C.ar  473  TYR473     -0.0009
     48  CD2       31.6470   35.8130   84.8350 C.ar  473  TYR473     -0.0009
     49  CE1       33.1100   37.9380   83.7610 C.ar  473  TYR473      0.0417
     50  CE2       33.0310   35.8760   85.0120 C.ar  473  TYR473      0.0417
     51  CZ        33.7530   36.9450   84.4840 C.ar  473  TYR473      0.1957
     52  OH        35.1220   36.9750   84.7210 O.3   473  TYR473     -0.2866
     53  N         34.8290   31.3690   85.3680 N.3   476  PHE476     -0.1241
     54  CA        35.8390   31.7300   86.3480 C.3   476  PHE476      0.1605
     55  C         35.3840   31.6110   87.8050 C.2   476  PHE476      0.2264
     56  O         35.9590   32.2540   88.7070 O.2   476  PHE476     -0.2867
     57  CB        36.4030   33.1320   86.0100 C.3   476  PHE476      0.0534
     58  CG        37.0750   33.1580   84.6690 C.ar  476  PHE476     -0.0203
     59  CD1       38.4190   32.7490   84.5380 C.ar  476  PHE476     -0.0042
     60  CD2       36.3510   33.5020   83.5070 C.ar  476  PHE476     -0.0042
     61  CE1       39.0320   32.7150   83.2860 C.ar  476  PHE476     -0.0003
     62  CE2       36.9650   33.4810   82.2780 C.ar  476  PHE476     -0.0003
     63  CZ        38.3070   33.0760   82.1700 C.ar  476  PHE476     -0.0000
     64  N         32.9630   32.8530   89.2260 N.3   478  ILE478     -0.1245
     65  CA        32.3860   34.1100   89.7380 C.3   478  ILE478      0.1561
     66  C         30.8370   33.9930   89.8520 C.2   478  ILE478      0.2260
     67  O         30.1420   33.7280   88.8540 O.2   478  ILE478     -0.2867
     68  CB        32.7240   35.3420   88.8230 C.3   478  ILE478      0.0252
     69  CG1       34.2420   35.4580   88.5180 C.3   478  ILE478      0.0019
     70  CG2       32.1510   36.6640   89.4150 C.3   478  ILE478      0.0019
     71  CD1       35.0900   35.6070   89.7250 C.3   478  ILE478      0.0001
     72  N         33.8360   41.3760   79.5350 N.3   554  SER554     -0.1202
     73  CA        35.0650   40.5470   79.5990 C.3   554  SER554      0.2020
     74  C         34.6700   39.1160   79.2290 C.2   554  SER554      0.2618
     75  O         34.2960   38.9010   78.1050 O.2   554  SER554     -0.2717
     76  CB        35.7860   40.6640   80.9570 C.3   554  SER554      0.2103
     77  OG        37.0160   39.8920   81.1010 O.3   554  SER554     -0.2182
     78  N         34.7000   38.1670   80.1760 N.am  555  ASN555     -0.1974
     79  CA        34.1640   36.8320   79.9070 C.3   555  ASN555      0.1688
     80  C         32.6810   36.9020   79.5170 C.2   555  ASN555      0.2292
     81  O         32.2060   36.0700   78.7430 O.2   555  ASN555     -0.2864
     82  CB        34.3600   35.8760   81.1010 C.3   555  ASN555      0.1181
     83  CG        33.7220   34.4990   80.8620 C.2   555  ASN555      0.2629
     84  OD1       34.1590   33.7590   79.9820 O.2   555  ASN555     -0.2716
     85  ND2       32.6830   34.1630   81.6420 N.am  555  ASN555     -0.0877
     86  N         36.5210   39.1200   75.3430 N.3   580  VAL580     -0.1245
     87  CA        37.5160   38.2500   74.7240 C.3   580  VAL580      0.1561
     88  C         36.9250   37.6660   73.4210 C.2   580  VAL580      0.2260
     89  O         36.0270   36.8110   73.4790 O.2   580  VAL580     -0.2867
     90  CB        37.8590   37.0690   75.6700 C.3   580  VAL580      0.0252
     91  CG1       39.1220   36.3580   75.2290 C.3   580  VAL580      0.0019
     92  CG2       37.9830   37.5760   77.1040 C.3   580  VAL580      0.0019
     93  N         48.0060   39.1630   80.4150 N.3   591  ILE591     -0.1245
     94  CA        47.7470   38.1510   81.4450 C.3   591  ILE591      0.1561
     95  C         46.7970   37.0530   80.8760 C.2   591  ILE591      0.2260
     96  O         46.2670   36.1970   81.6210 O.2   591  ILE591     -0.2867
     97  CB        47.1530   38.7930   82.7350 C.3   591  ILE591      0.0252
     98  CG1       47.1950   37.8220   83.9390 C.3   591  ILE591      0.0019
     99  CG2       45.6840   39.2690   82.5050 C.3   591  ILE591      0.0019
    100  CD1       48.5910   37.1450   84.2420 C.3   591  ILE591      0.0001
    101  N         46.6840   33.3330   81.8180 N.3   594  ALA594     -0.1231
    102  CA        46.0310   32.8640   83.0450 C.3   594  ALA594      0.1694
    103  C         44.6210   32.3180   82.8000 C.2   594  ALA594      0.2592
    104  O         44.0980   31.6480   83.6620 O.2   594  ALA594     -0.2718
    105  CB        45.9900   33.9790   84.1370 C.3   594  ALA594      0.0304
    106  N         44.0080   32.6010   81.6510 N.am  595  TRP595     -0.1976
    107  CA        42.5930   32.1970   81.4100 C.3   595  TRP595      0.1640
    108  C         42.3990   30.8050   80.8160 C.2   595  TRP595      0.2290
    109  O         41.2590   30.3380   80.7160 O.2   595  TRP595     -0.2864
    110  CB        41.8270   33.2260   80.5420 C.3   595  TRP595      0.0576
    111  CG        42.1180   34.6520   80.9050 C.ar  595  TRP595      0.0006
    112  CD1       42.4710   35.1370   82.1450 C.ar  595  TRP595      0.0946
    113  CD2       42.1060   35.7740   80.0240 C.ar  595  TRP595      0.0152
    114  NE1       42.6890   36.5000   82.0750 N.ar  595  TRP595     -0.2442
    115  CE2       42.4790   36.9140   80.7860 C.ar  595  TRP595      0.0810
    116  CE3       41.8440   35.9300   78.6500 C.ar  595  TRP595      0.0012
    117  CZ2       42.5910   38.1890   80.2240 C.ar  595  TRP595      0.0191
    118  CZ3       41.9590   37.2260   78.0880 C.ar  595  TRP595      0.0001
    119  CH2       42.3200   38.3230   78.8770 C.ar  595  TRP595      0.0015
    120  N         39.3660   28.2450   79.6140 N.3   599  TYR599     -0.1241
    121  CA        39.0630   28.1770   78.1740 C.3   599  TYR599      0.1605
    122  C         39.7390   27.0500   77.3890 C.2   599  TYR599      0.2264
    123  O         39.2540   26.6760   76.3210 O.2   599  TYR599     -0.2867
    124  CB        39.4310   29.4850   77.4950 C.3   599  TYR599      0.0534
    125  CG        38.6670   30.7110   77.9320 C.ar  599  TYR599     -0.0201
    126  CD1       37.2970   30.6480   78.2330 C.ar  599  TYR599     -0.0009
    127  CD2       39.3060   31.9550   77.9620 C.ar  599  TYR599     -0.0009
    128  CE1       36.5740   31.8060   78.6090 C.ar  599  TYR599      0.0417
    129  CE2       38.6090   33.1200   78.3480 C.ar  599  TYR599      0.0417
    130  CZ        37.2460   33.0380   78.6670 C.ar  599  TYR599      0.1957
    131  OH        36.5790   34.1880   78.9950 O.3   599  TYR599     -0.2866
    132  N         43.8640   44.3180   80.4490 N.3   643  ARG643     -0.1231
    133  CA        43.2920   43.0360   80.9240 C.3   643  ARG643      0.1694
    134  C         42.8510   42.2320   79.6930 C.2   643  ARG643      0.2591
    135  O         43.3640   41.1460   79.4440 O.2   643  ARG643     -0.2718
    136  CB        42.1440   43.2030   81.9110 C.3   643  ARG643      0.0321
    137  CG        41.6270   41.8590   82.4400 C.3   643  ARG643      0.0489
    138  CD        42.6220   41.1720   83.4220 C.3   643  ARG643      0.2205
    139  NE        42.8400   42.0360   84.5830 N.pl3 643  ARG643     -0.0865
    140  CZ        42.0540   42.0370   85.6560 C.cat 643  ARG643      0.5346
    141  NH1       41.0370   41.1730   85.7400 N.pl3 643  ARG643      0.1354
    142  NH2       42.3100   42.8740   86.6510 N.pl3 643  ARG643      0.1354
    143  N         41.9290   42.7970   78.9090 N.am  644  VAL644     -0.1980
    144  CA        41.5560   42.2010   77.6210 C.3   644  VAL644      0.1595
    145  C         41.9760   43.1780   76.5240 C.2   644  VAL644      0.2287
    146  O         41.2680   44.1680   76.2240 O.2   644  VAL644     -0.2864
    147  CB        40.0490   41.8560   77.5500 C.3   644  VAL644      0.0276
    148  CG1       39.6890   41.2000   76.2180 C.3   644  VAL644      0.0022
    149  CG2       39.6480   40.9240   78.7180 C.3   644  VAL644      0.0022
    150  N         40.1240   48.3580   81.5750 N.3   680  HIS680     -0.1241
    151  CA        39.1840   47.2620   81.6570 C.3   680  HIS680      0.1621
    152  C         37.8740   47.6550   82.3310 C.2   680  HIS680      0.2264
    153  O         36.7910   47.1530   81.9870 O.2   680  HIS680     -0.2867
    154  CB        39.7910   46.0860   82.3810 C.3   680  HIS680      0.0745
    155  CG        39.0490   44.8110   82.1500 C.ar  680  HIS680      0.0817
    156  ND1       38.8510   44.2850   80.8890 N.ar  680  HIS680     -0.2268
    157  CD2       38.4660   43.9520   83.0220 C.ar  680  HIS680      0.1154
    158  CE1       38.1530   43.1690   80.9930 C.ar  680  HIS680      0.1986
    159  NE2       37.9020   42.9450   82.2770 N.ar  680  HIS680     -0.2212
@<TRIPOS>BOND
     1    88    89    2
     2    88    87    1
     3    87    86    1
     4    87    90    1
     5    91    90    1
     6    90    92    1
     7   148   147    1
     8   146   145    2
     9   123   122    2
    10   145   144    1
    11   122   121    1
    12   124   125    1
    13   124   121    1
    14   147   144    1
    15   147   149    1
    16   144   143    1
    17   125   127   ar
    18   125   126   ar
    19   127   129   ar
    20   118   116   ar
    21   118   119   ar
    22    75    74    2
    23   121   120    1
    24   126   128   ar
    25   129   130   ar
    26   128   130   ar
    27   116   113   ar
    28   130   131    1
    29    81    80    2
    30   119   117   ar
    31   143   134   am
    32    74    73    1
    33    74    78   am
    34   135   134    2
    35    80    79    1
    36    72    73    1
    37    73    76    1
    38   134   133    1
    39    79    78    1
    40    79    82    1
    41    84    83    2
    42   113   115   ar
    43   113   111   ar
    44   117   115   ar
    45    93    94    1
    46   132   133    1
    47   110   111    1
    48   110   107    1
    49   109   108    2
    50   115   114   ar
    51   108   107    1
    52    83    82    1
    53    83    85   am
    54    95    94    1
    55    95    96    2
    56   156   158   ar
    57   156   155   ar
    58   111   112   ar
    59   133   136    1
    60    76    77    1
    61   158   159   ar
    62    44    43    2
    63   107   106    1
    64    94    97    1
    65   150   151    1
    66   106   103   am
    67   151   152    1
    68   151   154    1
    69   101   102    1
    70   136   137    1
    71   153   152    2
    72   114   112   ar
    73   155   154    1
    74   155   157   ar
    75    63    62   ar
    76    63    61   ar
    77   159   157   ar
    78    62    60   ar
    79    43    42    1
    80   137   138    1
    81    99    97    1
    82    42    41    1
    83    42    45    1
    84    97    98    1
    85   103   102    1
    86   103   104    2
    87   102   105    1
    88    61    59   ar
    89   138   139    1
    90    60    58   ar
    91    47    49   ar
    92    47    46   ar
    93    49    51   ar
    94    98   100    1
    95    45    46    1
    96    46    48   ar
    97    51    52    1
    98    51    50   ar
    99    59    58   ar
   100   139   140    2
   101    58    57    1
   102    48    50   ar
   103    53    54    1
   104    11    10   ar
   105    11     9   ar
   106    10     8   ar
   107   140   141    1
   108   140   142    1
   109    40    39    1
   110    57    54    1
   111    32    31    1
   112    32    33    1
   113    39    36    1
   114    54    55    1
   115     9     7   ar
   116    35    33   am
   117    35    36    1
   118     8     6   ar
   119    33    34    2
   120    36    37    1
   121     7     6   ar
   122    55    56    2
   123     6     5    1
   124    18    19    1
   125    18    17    1
   126    37    38    2
   127    69    68    1
   128    69    71    1
   129    17    16    1
   130    68    70    1
   131    68    65    1
   132    67    66    2
   133    64    65    1
   134     5     2    1
   135     1     2    1
   136    65    66    1
   137    23    22    2
   138    12    13    1
   139    22    21    1
   140     2     3    1
   141    16    13    1
   142    13    14    1
   143    24    21    1
   144    24    25    1
   145    21    20    1
   146     3     4    2
   147    14    15    2
   148    25    26    1
   149    26    27    1
   150    27    28    2
   151    29    28    1
   152    28    30    1
