@<TRIPOS>MOLECULE
tmp/4an1A00.pdb
 159 152 0 0 0
SMALL
GASTEIGER

@<TRIPOS>ATOM
      1  N         48.8560   42.2310   87.4240 N.3   173  PHE173     -0.1241
      2  CA        48.3250   41.0450   88.1070 C.3   173  PHE173      0.1605
      3  C         49.0750   40.7450   89.3890 C.2   173  PHE173      0.2264
      4  O         49.4630   39.5890   89.6390 O.2   173  PHE173     -0.2867
      5  CB        48.3450   39.8280   87.1650 C.3   173  PHE173      0.0534
      6  CG        47.7760   40.1350   85.8080 C.ar  173  PHE173     -0.0203
      7  CD1       46.5120   40.7250   85.6940 C.ar  173  PHE173     -0.0042
      8  CD2       48.5290   39.9110   84.6580 C.ar  173  PHE173     -0.0042
      9  CE1       45.9690   41.0460   84.4000 C.ar  173  PHE173     -0.0003
     10  CE2       48.0270   40.2480   83.3890 C.ar  173  PHE173     -0.0003
     11  CZ        46.7390   40.7910   83.2680 C.ar  173  PHE173     -0.0000
     12  N         52.2000   32.1780   87.9500 N.3   235  MET235     -0.1245
     13  CA        52.1260   33.4710   88.6350 C.3   235  MET235      0.1570
     14  C         52.0680   33.2280   90.1290 C.2   235  MET235      0.2261
     15  O         51.1110   32.6150   90.6160 O.2   235  MET235     -0.2867
     16  CB        50.8690   34.2300   88.1870 C.3   235  MET235      0.0387
     17  CG        50.8450   34.4480   86.6830 C.3   235  MET235      0.0595
     18  SD        49.2070   34.8670   86.0370 S.3   235  MET235     -0.1393
     19  CE        49.1440   36.5560   86.5860 C.3   235  MET235      0.0692
     20  N         49.4080   30.2210   90.5070 N.3   252  ARG252     -0.1245
     21  CA        48.3020   29.9370   89.6030 C.3   252  ARG252      0.1563
     22  C         48.9020   29.7480   88.2360 C.2   252  ARG252      0.2260
     23  O         49.9560   30.3200   87.9230 O.2   252  ARG252     -0.2867
     24  CB        47.3540   31.1330   89.5030 C.3   252  ARG252      0.0307
     25  CG        46.8600   31.6980   90.7990 C.3   252  ARG252      0.0489
     26  CD        45.6900   30.9190   91.2810 C.3   252  ARG252      0.2205
     27  NE        45.0740   31.5590   92.4370 N.pl3 252  ARG252     -0.0865
     28  CZ        43.9280   31.1530   92.9770 C.cat 252  ARG252      0.5346
     29  NH1       43.2710   30.1280   92.4520 N.pl3 252  ARG252      0.1354
     30  NH2       43.4270   31.7800   94.0330 N.pl3 252  ARG252      0.1354
     31  N         46.7100   29.9110   84.7300 N.3   254  GLY254     -0.1210
     32  CA        45.3640   30.0290   84.1680 C.3   254  GLY254      0.1956
     33  C         44.3310   30.5280   85.1720 C.2   254  GLY254      0.2612
     34  O         44.6600   30.8910   86.3010 O.2   254  GLY254     -0.2717
     35  N         43.0690   30.4690   84.7560 N.am  255  CYS255     -0.1970
     36  CA        41.9480   30.9790   85.5410 C.3   255  CYS255      0.1712
     37  C         41.1580   29.9870   86.4040 C.2   255  CYS255      0.2296
     38  O         40.2460   30.4140   87.0760 O.2   255  CYS255     -0.2864
     39  CB        40.9790   31.6720   84.6020 C.3   255  CYS255      0.0983
     40  SG        41.6980   33.2190   84.0520 S.3   255  CYS255     -0.0798
     41  N         26.6260   35.9020   81.6140 N.3   473  TYR473     -0.1241
     42  CA        28.1030   35.8120   81.4520 C.3   473  TYR473      0.1605
     43  C         28.4680   34.3620   81.1300 C.2   473  TYR473      0.2264
     44  O         28.7770   34.0430   79.9850 O.2   473  TYR473     -0.2867
     45  CB        28.7980   36.2850   82.7320 C.3   473  TYR473      0.0534
     46  CG        30.3170   36.2960   82.7370 C.ar  473  TYR473     -0.0201
     47  CD1       31.0380   37.2700   82.0180 C.ar  473  TYR473     -0.0009
     48  CD2       31.0340   35.3810   83.5240 C.ar  473  TYR473     -0.0009
     49  CE1       32.4380   37.3130   82.0360 C.ar  473  TYR473      0.0417
     50  CE2       32.4420   35.4090   83.5650 C.ar  473  TYR473      0.0417
     51  CZ        33.1290   36.3660   82.8270 C.ar  473  TYR473      0.1957
     52  OH        34.5130   36.3930   82.8930 O.3   473  TYR473     -0.2866
     53  N         34.2160   31.0080   83.9650 N.3   476  PHE476     -0.1241
     54  CA        35.2850   31.4120   84.8930 C.3   476  PHE476      0.1605
     55  C         34.8710   31.2970   86.3500 C.2   476  PHE476      0.2264
     56  O         35.4480   31.9380   87.2370 O.2   476  PHE476     -0.2867
     57  CB        35.8170   32.8160   84.5040 C.3   476  PHE476      0.0534
     58  CG        36.4280   32.8050   83.1190 C.ar  476  PHE476     -0.0203
     59  CD1       37.7520   32.3760   82.9510 C.ar  476  PHE476     -0.0042
     60  CD2       35.6250   32.9880   82.0020 C.ar  476  PHE476     -0.0042
     61  CE1       38.3210   32.2530   81.6620 C.ar  476  PHE476     -0.0003
     62  CE2       36.1610   32.8600   80.6990 C.ar  476  PHE476     -0.0003
     63  CZ        37.5170   32.5010   80.5400 C.ar  476  PHE476     -0.0000
     64  N         32.4070   32.4100   87.8510 N.3   478  ILE478     -0.1245
     65  CA        31.8660   33.6510   88.3690 C.3   478  ILE478      0.1561
     66  C         30.3820   33.5220   88.5260 C.2   478  ILE478      0.2260
     67  O         29.6760   33.1560   87.5810 O.2   478  ILE478     -0.2867
     68  CB        32.1910   34.8770   87.4610 C.3   478  ILE478      0.0252
     69  CG1       33.7290   35.0420   87.2940 C.3   478  ILE478      0.0019
     70  CG2       31.4190   36.1990   87.9330 C.3   478  ILE478      0.0019
     71  CD1       34.4810   35.2250   88.5640 C.3   478  ILE478      0.0001
     72  N         32.9110   40.7740   77.9740 N.3   554  SER554     -0.1202
     73  CA        34.1230   39.9620   78.1080 C.3   554  SER554      0.2020
     74  C         33.8000   38.5530   77.6350 C.2   554  SER554      0.2618
     75  O         33.4820   38.3510   76.4610 O.2   554  SER554     -0.2717
     76  CB        34.6030   40.0030   79.5630 C.3   554  SER554      0.2103
     77  OG        35.9890   39.6290   79.7080 O.3   554  SER554     -0.2182
     78  N         33.8610   37.5770   78.5360 N.am  555  ASN555     -0.1974
     79  CA        33.3450   36.2330   78.2390 C.3   555  ASN555      0.1688
     80  C         31.8270   36.3320   77.9330 C.2   555  ASN555      0.2292
     81  O         31.3060   35.5310   77.2090 O.2   555  ASN555     -0.2864
     82  CB        33.6090   35.2920   79.4420 C.3   555  ASN555      0.1181
     83  CG        32.8860   33.9500   79.3170 C.2   555  ASN555      0.2629
     84  OD1       33.2090   33.1480   78.4550 O.2   555  ASN555     -0.2716
     85  ND2       31.8730   33.7270   80.1670 N.am  555  ASN555     -0.0877
     86  N         35.4040   38.4940   73.7470 N.3   580  VAL580     -0.1245
     87  CA        36.3860   37.5860   73.1500 C.3   580  VAL580      0.1561
     88  C         35.7360   36.9980   71.8900 C.2   580  VAL580      0.2260
     89  O         34.8550   36.1300   71.9770 O.2   580  VAL580     -0.2867
     90  CB        36.7750   36.4530   74.0990 C.3   580  VAL580      0.0252
     91  CG1       37.9960   35.6350   73.5210 C.3   580  VAL580      0.0019
     92  CG2       37.0890   37.0050   75.5000 C.3   580  VAL580      0.0019
     93  N         47.1140   38.6800   78.5480 N.3   591  ILE591     -0.1245
     94  CA        46.8580   37.6470   79.5750 C.3   591  ILE591      0.1561
     95  C         45.9340   36.5080   79.0240 C.2   591  ILE591      0.2260
     96  O         45.5000   35.6130   79.7610 O.2   591  ILE591     -0.2867
     97  CB        46.3240   38.2830   80.8740 C.3   591  ILE591      0.0252
     98  CG1       46.4040   37.3130   82.0740 C.3   591  ILE591      0.0019
     99  CG2       44.8630   38.7750   80.7210 C.3   591  ILE591      0.0019
    100  CD1       47.8040   36.7590   82.3730 C.3   591  ILE591      0.0001
    101  N         45.8300   32.7720   79.8970 N.3   594  ALA594     -0.1231
    102  CA        45.2060   32.3130   81.1400 C.3   594  ALA594      0.1694
    103  C         43.8050   31.7150   80.9360 C.2   594  ALA594      0.2592
    104  O         43.3030   30.9840   81.8260 O.2   594  ALA594     -0.2718
    105  CB        45.1090   33.4880   82.1180 C.3   594  ALA594      0.0304
    106  N         43.1450   32.0220   79.8070 N.am  595  TRP595     -0.1976
    107  CA        41.7370   31.5850   79.6420 C.3   595  TRP595      0.1640
    108  C         41.6110   30.1730   79.0640 C.2   595  TRP595      0.2290
    109  O         40.4880   29.6720   78.9080 O.2   595  TRP595     -0.2864
    110  CB        40.9490   32.5810   78.7450 C.3   595  TRP595      0.0576
    111  CG        41.1900   34.0450   79.1500 C.ar  595  TRP595      0.0006
    112  CD1       41.4920   34.5170   80.4090 C.ar  595  TRP595      0.0946
    113  CD2       41.1620   35.1890   78.2910 C.ar  595  TRP595      0.0152
    114  NE1       41.6790   35.8880   80.3710 N.ar  595  TRP595     -0.2442
    115  CE2       41.4720   36.3220   79.0860 C.ar  595  TRP595      0.0810
    116  CE3       40.9310   35.3630   76.9160 C.ar  595  TRP595      0.0012
    117  CZ2       41.5400   37.6170   78.5600 C.ar  595  TRP595      0.0191
    118  CZ3       41.0050   36.6620   76.3830 C.ar  595  TRP595      0.0001
    119  CH2       41.3300   37.7670   77.1980 C.ar  595  TRP595      0.0015
    120  N         38.4880   27.6610   77.9820 N.3   599  TYR599     -0.1241
    121  CA        38.1520   27.5700   76.5620 C.3   599  TYR599      0.1605
    122  C         38.8300   26.4400   75.8300 C.2   599  TYR599      0.2264
    123  O         38.3060   25.9530   74.7950 O.2   599  TYR599     -0.2867
    124  CB        38.5320   28.8740   75.8600 C.3   599  TYR599      0.0534
    125  CG        37.7720   30.1020   76.3040 C.ar  599  TYR599     -0.0201
    126  CD1       36.4020   30.0370   76.6660 C.ar  599  TYR599     -0.0009
    127  CD2       38.4110   31.3500   76.3130 C.ar  599  TYR599     -0.0009
    128  CE1       35.7080   31.1920   77.0200 C.ar  599  TYR599      0.0417
    129  CE2       37.7330   32.4960   76.6530 C.ar  599  TYR599      0.0417
    130  CZ        36.3880   32.4140   77.0290 C.ar  599  TYR599      0.1957
    131  OH        35.7400   33.5820   77.3490 O.3   599  TYR599     -0.2866
    132  N         43.0100   43.8080   78.6520 N.3   643  ARG643     -0.1231
    133  CA        42.5090   42.5310   79.1360 C.3   643  ARG643      0.1694
    134  C         42.0160   41.6780   77.9610 C.2   643  ARG643      0.2591
    135  O         42.4920   40.5620   77.7580 O.2   643  ARG643     -0.2718
    136  CB        41.4100   42.7040   80.2070 C.3   643  ARG643      0.0321
    137  CG        40.9080   41.3300   80.7840 C.3   643  ARG643      0.0489
    138  CD        41.9670   40.6370   81.6840 C.3   643  ARG643      0.2205
    139  NE        42.2440   41.5190   82.8040 N.pl3 643  ARG643     -0.0865
    140  CZ        41.5130   41.6160   83.9130 C.cat 643  ARG643      0.5346
    141  NH1       40.4770   40.8080   84.1300 N.pl3 643  ARG643      0.1354
    142  NH2       41.8740   42.4960   84.8410 N.pl3 643  ARG643      0.1354
    143  N         41.0680   42.2190   77.1960 N.am  644  VAL644     -0.1980
    144  CA        40.6170   41.5890   75.9780 C.3   644  VAL644      0.1595
    145  C         41.0170   42.5750   74.8660 C.2   644  VAL644      0.2287
    146  O         40.3370   43.5970   74.6720 O.2   644  VAL644     -0.2864
    147  CB        39.0980   41.3300   75.9980 C.3   644  VAL644      0.0276
    148  CG1       38.6360   40.7820   74.6280 C.3   644  VAL644      0.0022
    149  CG2       38.7570   40.2720   77.0610 C.3   644  VAL644      0.0022
    150  N         39.2160   47.7690   79.9010 N.3   680  HIS680     -0.1241
    151  CA        38.2540   46.6730   79.9610 C.3   680  HIS680      0.1621
    152  C         36.9840   47.0550   80.7440 C.2   680  HIS680      0.2264
    153  O         35.8920   46.5080   80.5010 O.2   680  HIS680     -0.2867
    154  CB        38.9120   45.4120   80.5600 C.3   680  HIS680      0.0745
    155  CG        38.1700   44.1490   80.2460 C.ar  680  HIS680      0.0817
    156  ND1       37.8620   43.7680   78.9580 N.ar  680  HIS680     -0.2268
    157  CD2       37.6710   43.1820   81.0550 C.ar  680  HIS680      0.1154
    158  CE1       37.2240   42.6070   78.9880 C.ar  680  HIS680      0.1986
    159  NE2       37.1120   42.2270   80.2490 N.ar  680  HIS680     -0.2212
@<TRIPOS>BOND
     1    88    89    2
     2    88    87    1
     3    87    86    1
     4    87    90    1
     5    91    90    1
     6    90    92    1
     7   148   147    1
     8   146   145    2
     9   123   122    2
    10   145   144    1
    11   122   121    1
    12   124   125    1
    13   124   121    1
    14   144   147    1
    15   144   143    1
    16   147   149    1
    17   125   127   ar
    18   125   126   ar
    19   127   129   ar
    20   118   116   ar
    21   118   119   ar
    22    75    74    2
    23   121   120    1
    24   129   130   ar
    25   126   128   ar
    26   116   113   ar
    27   128   130   ar
    28   130   131    1
    29   143   134   am
    30   119   117   ar
    31    81    80    2
    32    74    73    1
    33    74    78   am
    34   135   134    2
    35    80    79    1
    36   134   133    1
    37    72    73    1
    38    73    76    1
    39    79    78    1
    40    79    82    1
    41   113   115   ar
    42   113   111   ar
    43    84    83    2
    44    93    94    1
    45   117   115   ar
    46   132   133    1
    47   110   111    1
    48   110   107    1
    49   109   108    2
    50   156   158   ar
    51   156   155   ar
    52   158   159   ar
    53    95    94    1
    54    95    96    2
    55   108   107    1
    56   115   114   ar
    57   133   136    1
    58   111   112   ar
    59    83    82    1
    60    83    85   am
    61    76    77    1
    62    94    97    1
    63   107   106    1
    64   106   103   am
    65   101   102    1
    66   150   151    1
    67   151   154    1
    68   151   152    1
    69    44    43    2
    70   136   137    1
    71   155   154    1
    72   155   157   ar
    73   159   157   ar
    74   114   112   ar
    75   153   152    2
    76    63    62   ar
    77    63    61   ar
    78    62    60   ar
    79    99    97    1
    80   137   138    1
    81    97    98    1
    82   103   102    1
    83   103   104    2
    84    43    42    1
    85   102   105    1
    86    42    41    1
    87    42    45    1
    88    61    59   ar
    89   138   139    1
    90    60    58   ar
    91    47    49   ar
    92    47    46   ar
    93    49    51   ar
    94    98   100    1
    95    45    46    1
    96    46    48   ar
    97   139   140    2
    98    51    52    1
    99    51    50   ar
   100    59    58   ar
   101    58    57    1
   102    11    10   ar
   103    11     9   ar
   104    10     8   ar
   105    48    50   ar
   106   140   141    1
   107   140   142    1
   108    53    54    1
   109    40    39    1
   110    32    31    1
   111    32    33    1
   112     9     7   ar
   113    57    54    1
   114    39    36    1
   115     8     6   ar
   116    35    33   am
   117    35    36    1
   118    54    55    1
   119    33    34    2
   120    36    37    1
   121     7     6   ar
   122     6     5    1
   123    18    19    1
   124    18    17    1
   125    55    56    2
   126    37    38    2
   127    17    16    1
   128     5     2    1
   129    69    68    1
   130    69    71    1
   131     1     2    1
   132    68    70    1
   133    68    65    1
   134    67    66    2
   135    64    65    1
   136    23    22    2
   137    12    13    1
   138     2     3    1
   139    16    13    1
   140    22    21    1
   141    65    66    1
   142    13    14    1
   143     3     4    2
   144    24    21    1
   145    24    25    1
   146    21    20    1
   147    14    15    2
   148    25    26    1
   149    26    27    1
   150    27    28    2
   151    29    28    1
   152    28    30    1
