@<TRIPOS>MOLECULE
tmp/4an2A00.pdb
 205 192 0 0 0
SMALL
GASTEIGER

@<TRIPOS>ATOM
      1  N        -25.2040   16.0830   -9.6370 N.3    21  ASN21      -0.1240
      2  CA       -24.2640   15.0880   -9.1430 C.3    21  ASN21       0.1653
      3  C        -24.8450   13.7200   -9.2130 C.2    21  ASN21       0.2266
      4  O        -25.1420   13.1080   -8.1990 O.2    21  ASN21      -0.2867
      5  CB       -23.7900   15.4380   -7.7390 C.3    21  ASN21       0.1155
      6  CG       -22.9880   16.7230   -7.7370 C.2    21  ASN21       0.2627
      7  OD1      -23.4610   17.7870   -7.2660 O.2    21  ASN21      -0.2716
      8  ND2      -21.7840   16.6570   -8.3170 N.am   21  ASN21      -0.0877
      9  N        -36.0970   12.8510  -12.9870 N.3    40  LYS40      -0.1245
     10  CA       -34.6700   12.8100  -12.8370 C.3    40  LYS40       0.1561
     11  C        -34.1970   11.4130  -13.2010 C.2    40  LYS40       0.2260
     12  O        -34.7010   10.4010  -12.6340 O.2    40  LYS40      -0.2867
     13  CB       -34.3890   13.1990  -11.4090 C.3    40  LYS40       0.0271
     14  CG       -33.0990   12.8180  -10.8100 C.3    40  LYS40       0.0035
     15  CD       -32.8520   13.9680   -9.8060 C.3    40  LYS40       0.0206
     16  CE       -31.9890   13.6080   -8.6760 C.3    40  LYS40       0.1093
     17  NZ       -31.5030   14.8970   -8.1000 N.3    40  LYS40      -0.1314
     18  N        -31.0240    8.9960  -13.1100 N.3    42  ILE42      -0.1245
     19  CA       -29.7430    8.5750  -12.5370 C.3    42  ILE42       0.1561
     20  C        -29.2020    7.2350  -13.1150 C.2    42  ILE42       0.2260
     21  O        -29.7660    6.1300  -12.8440 O.2    42  ILE42      -0.2867
     22  CB       -29.8600    8.3470  -10.9700 C.3    42  ILE42       0.0252
     23  CG1      -31.0860    9.0620  -10.3830 C.3    42  ILE42       0.0019
     24  CG2      -28.5160    8.7290  -10.2120 C.3    42  ILE42       0.0019
     25  CD1      -31.1740    9.0060   -8.8770 C.3    42  ILE42       0.0001
     26  N        -37.6670    3.7420   -2.6570 N.3    58  LEU58      -0.1245
     27  CA       -38.1670    5.0170   -3.0970 C.3    58  LEU58       0.1561
     28  C        -39.6780    5.1420   -3.0410 C.2    58  LEU58       0.2260
     29  O        -40.1930    6.2250   -3.3230 O.2    58  LEU58      -0.2867
     30  CB       -37.7660    5.2600   -4.5320 C.3    58  LEU58       0.0270
     31  CG       -36.3320    5.6930   -4.7360 C.3    58  LEU58       0.0019
     32  CD1      -36.0020    5.7070   -6.2520 C.3    58  LEU58       0.0001
     33  CD2      -36.0480    7.0610   -4.0600 C.3    58  LEU58       0.0001
     34  N        -41.6920    7.5540   -0.8610 N.3    61  LEU61      -0.1245
     35  CA       -42.0420    8.9220   -1.2190 C.3    61  LEU61       0.1561
     36  C        -43.5390    9.1190   -1.4600 C.2    61  LEU61       0.2260
     37  O        -44.0520   10.2380   -1.2690 O.2    61  LEU61      -0.2867
     38  CB       -41.2280    9.4540   -2.3970 C.3    61  LEU61       0.0270
     39  CG       -39.7200    9.6440   -2.1870 C.3    61  LEU61       0.0019
     40  CD1      -38.8970    9.8900   -3.4980 C.3    61  LEU61       0.0001
     41  CD2      -39.5090   10.7590   -1.1810 C.3    61  LEU61       0.0001
     42  N        -44.9920   10.9630    1.3910 N.3    64  CYS64      -0.1235
     43  CA       -44.6430   12.3240    1.7410 C.3    64  CYS64       0.1677
     44  C        -45.7420   13.2540    1.2740 C.2    64  CYS64       0.2270
     45  O        -46.0090   13.4080    0.0520 O.2    64  CYS64      -0.2867
     46  CB       -43.3410   12.7190    1.0860 C.3    64  CYS64       0.0956
     47  SG       -42.0190   11.8770    1.8590 S.3    64  CYS64      -0.0801
     48  N        -41.5560   18.6490   -2.1460 N.3    70  VAL70      -0.1231
     49  CA       -41.8920   18.3750   -3.5350 C.3    70  VAL70       0.1692
     50  C        -42.6560   17.0270   -3.6080 C.2    70  VAL70       0.2593
     51  O        -42.3570   16.0560   -2.8490 O.2    70  VAL70      -0.2718
     52  CB       -40.6070   18.3200   -4.3910 C.3    70  VAL70       0.0266
     53  CG1      -40.9090   18.3420   -5.8640 C.3    70  VAL70       0.0020
     54  CG2      -39.7250   19.4940   -4.0130 C.3    70  VAL70       0.0020
     55  N        -43.7010   17.0230   -4.4380 N.am   71  GLY71      -0.1942
     56  CA       -44.5920   15.8690   -4.5150 C.3    71  GLY71       0.2014
     57  C        -43.9590   14.7500   -5.3090 C.2    71  GLY71       0.2638
     58  O        -43.3150   15.0240   -6.3290 O.2    71  GLY71      -0.2714
     59  N        -44.1560   13.5120   -4.8320 N.am   72  PHE72      -0.1973
     60  CA       -43.8100   12.2390   -5.5450 C.3    72  PHE72       0.1639
     61  C        -44.9060   11.5350   -6.3850 C.2    72  PHE72       0.2290
     62  O        -45.9690   11.1520   -5.8300 O.2    72  PHE72      -0.2864
     63  CB       -43.4370   11.1790   -4.5280 C.3    72  PHE72       0.0560
     64  CG       -42.7230    9.9830   -5.1170 C.ar   72  PHE72      -0.0200
     65  CD1      -41.6140   10.1580   -6.0170 C.ar   72  PHE72      -0.0042
     66  CD2      -43.0970    8.6730   -4.7410 C.ar   72  PHE72      -0.0042
     67  CE1      -40.8840    9.0580   -6.5010 C.ar   72  PHE72      -0.0003
     68  CE2      -42.3630    7.5430   -5.2390 C.ar   72  PHE72      -0.0003
     69  CZ       -41.2600    7.7440   -6.1040 C.ar   72  PHE72      -0.0000
     70  N        -36.7370    9.1030  -11.1760 N.3    84  ILE84      -0.1245
     71  CA       -37.5670    9.6340  -10.0930 C.3    84  ILE84       0.1561
     72  C        -38.4490   10.6990  -10.7130 C.2    84  ILE84       0.2260
     73  O        -37.9330   11.6620  -11.3170 O.2    84  ILE84      -0.2867
     74  CB       -36.7350   10.1940   -8.9230 C.3    84  ILE84       0.0252
     75  CG1      -35.7830    9.1320   -8.4310 C.3    84  ILE84       0.0019
     76  CG2      -37.6130   10.6390   -7.7970 C.3    84  ILE84       0.0019
     77  CD1      -34.8820    9.6270   -7.3600 C.3    84  ILE84       0.0001
     78  N        -41.4410   13.4850  -10.1660 N.3    86  MET86      -0.1245
     79  CA       -41.8470   14.4040   -9.1200 C.3    86  MET86       0.1570
     80  C        -42.6350   15.6140   -9.6340 C.2    86  MET86       0.2261
     81  O        -42.6580   15.8930  -10.8370 O.2    86  MET86      -0.2867
     82  CB       -40.6400   14.7910   -8.2150 C.3    86  MET86       0.0387
     83  CG       -39.5360   15.4310   -8.9700 C.3    86  MET86       0.0595
     84  SD       -37.9950   15.8230   -8.0830 S.3    86  MET86      -0.1393
     85  CE       -36.8700   15.3360   -9.3900 C.3    86  MET86       0.0692
     86  N        -28.6290   16.8980    2.2960 N.3   133  ASP133     -0.1239
     87  CA       -27.9800   17.7690    1.3400 C.3   133  ASP133      0.1674
     88  C        -28.7140   19.1220    1.1480 C.2   133  ASP133      0.2266
     89  O        -29.1090   19.4960    0.0260 O.2   133  ASP133     -0.2867
     90  CB       -27.7150   17.0220    0.0170 C.3   133  ASP133      0.1410
     91  CG       -26.6690   17.7530   -0.8820 C.2   133  ASP133      0.3668
     92  OD1      -25.7110   18.3490   -0.3280 O.co2 133  ASP133     -0.2456
     93  OD2      -26.8050   17.7570   -2.1390 O.co2 133  ASP133     -0.2456
     94  N        -29.1200   22.7100    0.3790 N.3   135  LYS135     -0.1245
     95  CA       -28.3130   23.6580   -0.3260 C.3   135  LYS135      0.1561
     96  C        -29.2030   24.3720   -1.2940 C.2   135  LYS135      0.2260
     97  O        -30.2440   23.8580   -1.6600 O.2   135  LYS135     -0.2867
     98  CB       -27.1160   22.9660   -0.9910 C.3   135  LYS135      0.0271
     99  CG       -27.3940   22.2050   -2.2530 C.3   135  LYS135      0.0035
    100  CD       -26.2200   21.2660   -2.5910 C.3   135  LYS135      0.0206
    101  CE       -26.4910   20.4970   -3.8410 C.3   135  LYS135      0.1093
    102  NZ       -25.7310   19.2040   -3.8770 N.3   135  LYS135     -0.1314
    103  N        -31.2340   22.2550   -4.0210 N.3   138  ASN138     -0.1240
    104  CA       -32.1740   21.3280   -3.5040 C.3   138  ASN138      0.1653
    105  C        -33.3150   22.0690   -2.8250 C.2   138  ASN138      0.2266
    106  O        -34.0320   21.4770   -2.0480 O.2   138  ASN138     -0.2867
    107  CB       -31.4920   20.3330   -2.5180 C.3   138  ASN138      0.1155
    108  CG       -30.5590   19.4000   -3.2240 C.2   138  ASN138      0.2627
    109  OD1      -30.5620   19.3120   -4.4540 O.2   138  ASN138     -0.2716
    110  ND2      -29.7270   18.7470   -2.4830 N.am  138  ASN138     -0.0877
    111  N        -36.4840   19.2650   -2.2400 N.3   150  CYS150     -0.1221
    112  CA       -36.3250   18.0010   -2.9810 C.3   150  CYS150      0.1808
    113  C        -34.9900   17.3050   -2.6910 C.2   150  CYS150      0.2601
    114  O        -34.1980   17.7900   -1.9140 O.2   150  CYS150     -0.2717
    115  CB       -36.4320   18.2490   -4.4730 C.3   150  CYS150      0.0970
    116  SG       -35.0580   19.2550   -4.8920 S.3   150  CYS150     -0.0800
    117  N        -34.7680   16.1400   -3.3040 N.am  151  ASP151     -0.1959
    118  CA       -33.4970   15.3850   -3.2750 C.3   151  ASP151      0.1840
    119  C        -33.0420   15.0560   -1.8990 C.2   151  ASP151      0.2622
    120  O        -31.8360   15.1230   -1.6550 O.2   151  ASP151     -0.2715
    121  CB       -32.3040   16.0890   -3.9700 C.3   151  ASP151      0.1450
    122  CG       -32.5110   16.3170   -5.4740 C.2   151  ASP151      0.3671
    123  OD1      -33.6550   16.1890   -5.9860 O.co2 151  ASP151     -0.2456
    124  OD2      -31.5260   16.6860   -6.1520 O.co2 151  ASP151     -0.2456
    125  N        -33.9530   14.6790   -1.0040 N.am  152  PHE152     -0.1960
    126  CA       -33.5580   14.2790    0.3780 C.3   152  PHE152      0.1771
    127  C        -33.3310   12.7800    0.4830 C.2   152  PHE152      0.2620
    128  O        -33.7190   12.0590   -0.4050 O.2   152  PHE152     -0.2715
    129  CB       -34.6220   14.7170    1.4210 C.3   152  PHE152      0.0574
    130  CG       -36.0170   14.5600    0.9640 C.ar  152  PHE152     -0.0200
    131  CD1      -36.6260   15.5620    0.2410 C.ar  152  PHE152     -0.0042
    132  CD2      -36.7060   13.4030    1.2350 C.ar  152  PHE152     -0.0042
    133  CE1      -37.9610   15.4510   -0.1890 C.ar  152  PHE152     -0.0003
    134  CE2      -38.0000   13.2580    0.8270 C.ar  152  PHE152     -0.0003
    135  CZ       -38.6440   14.3100    0.1040 C.ar  152  PHE152     -0.0000
    136  N        -32.7390   12.2900    1.5660 N.am  153  GLY153     -0.1940
    137  CA       -32.2810   10.8970    1.5840 C.3   153  GLY153      0.2014
    138  C        -33.2640    9.8410    2.0540 C.2   153  GLY153      0.2639
    139  O        -33.1110    9.3410    3.1450 O.2   153  GLY153     -0.2714
    140  N        -34.2740    9.5180    1.2330 N.am  154  VAL154     -0.1963
    141  CA       -35.3280    8.4940    1.5560 C.3   154  VAL154      0.1727
    142  C        -34.7310    7.1140    1.5860 C.2   154  VAL154      0.2616
    143  O        -34.9360    6.3510    2.5160 O.2   154  VAL154     -0.2715
    144  CB       -36.4630    8.3870    0.4940 C.3   154  VAL154      0.0290
    145  CG1      -37.8040    8.7210    1.0680 C.3   154  VAL154      0.0023
    146  CG2      -36.1280    9.1800   -0.8000 C.3   154  VAL154      0.0023
    147  N        -33.9470    6.8290    0.5560 N.am  155  SER155     -0.1950
    148  CA       -33.4010    5.5100    0.2900 C.3   155  SER155      0.1924
    149  C        -31.9770    5.3200    0.8090 C.2   155  SER155      0.2314
    150  O        -31.0170    5.8160    0.2300 O.2   155  SER155     -0.2863
    151  CB       -33.4360    5.3280   -1.2250 C.3   155  SER155      0.2116
    152  OG       -33.1830    4.0000   -1.5870 O.3   155  SER155     -0.2180
    153  N        -29.6720    4.1600   -2.0800 N.3   158  LEU158     -0.1231
    154  CA       -29.3490    5.1960   -3.0530 C.3   158  LEU158      0.1693
    155  C        -28.3470    6.1840   -2.4900 C.2   158  LEU158      0.2591
    156  O        -27.5200    6.7480   -3.2060 O.2   158  LEU158     -0.2718
    157  CB       -30.5960    5.9910   -3.3840 C.3   158  LEU158      0.0284
    158  CG       -30.8670    6.2790   -4.8280 C.3   158  LEU158      0.0019
    159  CD1      -31.7640    7.4590   -4.9440 C.3   158  LEU158      0.0001
    160  CD2      -29.6190    6.3730   -5.6680 C.3   158  LEU158      0.0001
    161  N        -28.4830    6.4690   -1.2130 N.am  159  ILE159     -0.1980
    162  CA       -27.4660    7.2600   -0.5430 C.3   159  ILE159      0.1595
    163  C        -26.2050    6.4370   -0.7920 C.2   159  ILE159      0.2287
    164  O        -25.2700    6.9400   -1.4310 O.2   159  ILE159     -0.2864
    165  CB       -27.7770    7.4220    0.9530 C.3   159  ILE159      0.0276
    166  CG1      -28.9520    8.3900    1.1140 C.3   159  ILE159      0.0022
    167  CG2      -26.5430    7.8250    1.7600 C.3   159  ILE159      0.0022
    168  CD1      -29.7260    8.1990    2.4410 C.3   159  ILE159      0.0001
    169  N        -24.9400    6.3790   -4.0940 N.3   162  MET162     -0.1245
    170  CA       -24.4080    7.6750   -4.4480 C.3   162  MET162      0.1570
    171  C        -23.1400    8.0600   -3.6960 C.2   162  MET162      0.2261
    172  O        -22.3500    8.7840   -4.2420 O.2   162  MET162     -0.2867
    173  CB       -25.4900    8.7560   -4.4500 C.3   162  MET162      0.0387
    174  CG       -25.8490    9.1810   -5.9040 C.3   162  MET162      0.0595
    175  SD       -27.5520    9.7080   -6.2460 S.3   162  MET162     -0.1393
    176  CE       -27.3470   10.5280   -7.8200 C.3   162  MET162      0.0692
    177  N        -20.1220    9.4370   -5.4380 N.3   166  PHE166     -0.1227
    178  CA       -19.8750   10.8090   -4.9310 C.3   166  PHE166      0.1736
    179  C        -20.1830   10.9530   -3.4250 C.2   166  PHE166      0.2595
    180  O        -21.2850   10.6030   -2.9580 O.2   166  PHE166     -0.2718
    181  CB       -20.7680   11.9110   -5.5520 C.3   166  PHE166      0.0547
    182  CG       -21.2100   11.7000   -6.9650 C.ar  166  PHE166     -0.0202
    183  CD1      -22.1470   10.7030   -7.2960 C.ar  166  PHE166     -0.0042
    184  CD2      -20.8080   12.6090   -7.9470 C.ar  166  PHE166     -0.0042
    185  CE1      -22.5960   10.5450   -8.6150 C.ar  166  PHE166     -0.0003
    186  CE2      -21.2560   12.4740   -9.2700 C.ar  166  PHE166     -0.0003
    187  CZ       -22.1440   11.4380   -9.6080 C.ar  166  PHE166     -0.0000
    188  N        -19.2500   11.5440   -2.6800 N.am  167  VAL167     -0.1966
    189  CA       -19.6040   12.2470   -1.4260 C.3   167  VAL167      0.1727
    190  C        -19.6910   13.7680   -1.7920 C.2   167  VAL167      0.2617
    191  O        -18.9280   14.6120   -1.3090 O.2   167  VAL167     -0.2715
    192  CB       -18.7060   11.7720   -0.1730 C.3   167  VAL167      0.0290
    193  CG1      -17.2770   11.2720   -0.5580 C.3   167  VAL167      0.0023
    194  CG2      -18.6520   12.7840    0.9230 C.3   167  VAL167      0.0023
    195  N        -20.6550   14.0610   -2.6810 N.am  168  GLY168     -0.1940
    196  CA       -20.7290   15.2570   -3.5490 C.3   168  GLY168      0.2014
    197  C        -20.4650   16.6520   -3.0140 C.2   168  GLY168      0.2639
    198  O        -19.4430   17.2610   -3.3720 O.2   168  GLY168     -0.2714
    199  N        -21.3940   17.1860   -2.2080 N.am  169  THR169     -0.1950
    200  CA       -21.2420   18.5600   -1.6640 C.3   169  THR169      0.1897
    201  C        -20.5120   18.5870   -0.3460 C.2   169  THR169      0.2313
    202  O        -21.1060   18.9240    0.6880 O.2   169  THR169     -0.2863
    203  CB       -22.5540   19.4310   -1.4990 C.3   169  THR169      0.1794
    204  OG1      -23.7260   18.6690   -1.8040 O.3   169  THR169     -0.2208
    205  CG2      -22.4770   20.7100   -2.3850 C.3   169  THR169      0.0378
@<TRIPOS>BOND
     1    11    10    1
     2    11    12    2
     3    20    21    2
     4    20    19    1
     5    18    19    1
     6     9    10    1
     7    10    13    1
     8    19    22    1
     9    13    14    1
    10    73    72    2
    11    70    71    1
    12    22    23    1
    13    22    24    1
    14    81    80    2
    15    14    15    1
    16    72    71    1
    17    23    25    1
    18    78    79    1
    19    71    74    1
    20    15    16    1
    21     1     2    1
    22    80    79    1
    23   187   186   ar
    24   187   185   ar
    25    85    84    1
    26   186   184   ar
    27     3     2    1
    28     3     4    2
    29     2     5    1
    30    79    82    1
    31    83    82    1
    32    83    84    1
    33    74    75    1
    34    74    76    1
    35    16    17    1
    36   185   183   ar
    37    75    77    1
    38     8     6   am
    39   184   182   ar
    40   176   175    1
    41     5     6    1
    42     6     7    2
    43   183   182   ar
    44   182   181    1
    45    67    69   ar
    46    67    65   ar
    47    61    62    2
    48    61    60    1
    49    58    57    2
    50    32    31    1
    51   175   174    1
    52   124   122   ar
    53    69    68   ar
    54    65    64   ar
    55   123   122   ar
    56   174   173    1
    57    53    52    1
    58   160   158    1
    59   181   178    1
    60    60    59    1
    61    60    63    1
    62   122   121    1
    63   177   178    1
    64    57    59   am
    65    57    56    1
    66    68    66   ar
    67    64    66   ar
    68    64    63    1
    69   159   158    1
    70   178   179    1
    71   116   115    1
    72   158   157    1
    73    31    30    1
    74    31    33    1
    75    30    27    1
    76    56    55    1
    77   115   112    1
    78   109   108    2
    79   173   170    1
    80   170   169    1
    81   170   171    1
    82    55    50   am
    83    52    54    1
    84    52    49    1
    85   172   171    2
    86   103   104    1
    87   121   118    1
    88   102   101    1
    89   101   100    1
    90    50    49    1
    91    50    51    2
    92   196   197    1
    93   196   195    1
    94    49    48    1
    95   104   105    1
    96   104   107    1
    97    40    39    1
    98   179   180    2
    99   179   188   am
   100   157   154    1
   101   198   197    2
   102    29    28    2
   103   117   118    1
   104   117   113   am
   105   118   119    1
   106   108   107    1
   107   108   110   am
   108   156   155    2
   109    27    28    1
   110    27    26    1
   111   154   155    1
   112   154   153    1
   113   197   199   am
   114   112   113    1
   115   112   111    1
   116   105   106    2
   117   113   114    2
   118   195   190   am
   119   188   189    1
   120   100    99    1
   121   155   161   am
   122    38    39    1
   123    38    35    1
   124   205   203    1
   125    99    98    1
   126   199   200    1
   127    39    41    1
   128    93    91   ar
   129   119   120    2
   130   119   125   am
   131   204   203    1
   132   190   189    1
   133   190   191    2
   134   200   203    1
   135   200   201    1
   136    97    96    2
   137   152   151    1
   138    36    37    2
   139    36    35    1
   140   164   163    2
   141   189   192    1
   142    96    95    1
   143   151   148    1
   144    35    34    1
   145   161   162    1
   146   125   126    1
   147    98    95    1
   148    91    92   ar
   149    91    90    1
   150   146   144    1
   151   163   162    1
   152   193   192    1
   153   162   165    1
   154   128   127    2
   155   201   202    2
   156    95    94    1
   157   133   135   ar
   158   133   131   ar
   159   192   194    1
   160    90    87    1
   161    89    88    2
   162    45    44    2
   163   135   134   ar
   164   150   149    2
   165   131   130   ar
   166   148   147    1
   167   148   149    1
   168   126   127    1
   169   126   129    1
   170   127   136   am
   171   144   145    1
   172   144   141    1
   173   147   142   am
   174   134   132   ar
   175   165   166    1
   176   165   167    1
   177   130   132   ar
   178   130   129    1
   179    46    43    1
   180    46    47    1
   181   166   168    1
   182    88    87    1
   183   140   141    1
   184   140   138   am
   185    44    43    1
   186    87    86    1
   187    42    43    1
   188   141   142    1
   189   136   137    1
   190   137   138    1
   191   142   143    2
   192   138   139    2
