@<TRIPOS>MOLECULE
tmp/4an9A01.pdb
 173 162 0 0 0
SMALL
GASTEIGER

@<TRIPOS>ATOM
      1  N        -29.3720  -24.4470  -13.3780 N.3    40  LYS40      -0.1245
      2  CA       -28.7590  -23.2270  -12.8880 C.3    40  LYS40       0.1561
      3  C        -27.2660  -23.3160  -13.1140 C.2    40  LYS40       0.2260
      4  O        -26.5670  -24.0710  -12.4510 O.2    40  LYS40      -0.2867
      5  CB       -29.1350  -23.0010  -11.4080 C.3    40  LYS40       0.0271
      6  CG       -28.2610  -22.0210  -10.6390 C.3    40  LYS40       0.0035
      7  CD       -29.0950  -20.9760   -9.9120 C.3    40  LYS40       0.0206
      8  CE       -28.2330  -20.0690   -8.9880 C.3    40  LYS40       0.1093
      9  NZ       -28.8110  -19.8000   -7.6170 N.3    40  LYS40      -0.1314
     10  N        -23.7490  -21.7670  -12.7420 N.3    42  ILE42      -0.1245
     11  CA       -22.8890  -20.8220  -12.0290 C.3    42  ILE42       0.1561
     12  C        -21.4630  -20.8090  -12.6040 C.2    42  ILE42       0.2260
     13  O        -20.6860  -21.7150  -12.2820 O.2    42  ILE42      -0.2867
     14  CB       -22.7690  -21.2200  -10.5030 C.3    42  ILE42       0.0252
     15  CG1      -24.1060  -21.1490   -9.7690 C.3    42  ILE42       0.0019
     16  CG2      -21.7630  -20.3300   -9.7540 C.3    42  ILE42       0.0019
     17  CD1      -24.0840  -21.8980   -8.4430 C.3    42  ILE42       0.0001
     18  N        -22.4160  -30.5600   -2.5140 N.3    58  LEU58      -0.1245
     19  CA       -23.7790  -30.4230   -2.9350 C.3    58  LEU58       0.1561
     20  C        -24.6040  -31.6800   -2.8420 C.2    58  LEU58       0.2260
     21  O        -25.7940  -31.5950   -2.5950 O.2    58  LEU58      -0.2867
     22  CB       -23.8220  -29.9420   -4.3680 C.3    58  LEU58       0.0270
     23  CG       -23.4400  -28.4900   -4.6960 C.3    58  LEU58       0.0019
     24  CD1      -23.8020  -28.2680   -6.1330 C.3    58  LEU58       0.0001
     25  CD2      -24.1920  -27.5070   -3.8340 C.3    58  LEU58       0.0001
     26  N        -27.6690  -32.1530   -0.8740 N.3    61  LEU61      -0.1245
     27  CA       -28.9820  -31.6290   -1.2260 C.3    61  LEU61       0.1561
     28  C        -29.9760  -32.7400   -1.4170 C.2    61  LEU61       0.2260
     29  O        -31.1780  -32.5340   -1.2370 O.2    61  LEU61      -0.2867
     30  CB       -28.9310  -30.7160   -2.4560 C.3    61  LEU61       0.0270
     31  CG       -28.5410  -29.2530   -2.1650 C.3    61  LEU61       0.0019
     32  CD1      -28.6510  -28.3030   -3.3660 C.3    61  LEU61       0.0001
     33  CD2      -29.3850  -28.7190   -1.0240 C.3    61  LEU61       0.0001
     34  N        -37.1740  -26.2400   -2.2960 N.3    70  VAL70      -0.1231
     35  CA       -37.1400  -26.7150   -3.6880 C.3    70  VAL70       0.1692
     36  C        -36.4300  -28.0960   -3.6770 C.2    70  VAL70       0.2593
     37  O        -35.6290  -28.3640   -2.7810 O.2    70  VAL70      -0.2718
     38  CB       -36.5240  -25.6550   -4.6420 C.3    70  VAL70       0.0266
     39  CG1      -36.8610  -25.9250   -6.1540 C.3    70  VAL70       0.0020
     40  CG2      -37.1030  -24.3240   -4.2790 C.3    70  VAL70       0.0020
     41  N        -36.8110  -29.0080   -4.5810 N.am   71  GLY71      -0.1942
     42  CA       -36.2150  -30.3480   -4.5820 C.3    71  GLY71       0.2014
     43  C        -35.0190  -30.4220   -5.5150 C.2    71  GLY71       0.2638
     44  O        -35.0810  -29.8260   -6.6110 O.2    71  GLY71      -0.2714
     45  N        -33.9740  -31.1710   -5.0950 N.am   72  PHE72      -0.1973
     46  CA       -32.6530  -31.3140   -5.7880 C.3    72  PHE72       0.1639
     47  C        -32.6840  -32.4780   -6.7890 C.2    72  PHE72       0.2290
     48  O        -33.4590  -33.3960   -6.5780 O.2    72  PHE72      -0.2864
     49  CB       -31.6070  -31.6190   -4.6970 C.3    72  PHE72       0.0560
     50  CG       -30.1530  -31.7110   -5.1750 C.ar   72  PHE72      -0.0200
     51  CD1      -29.5350  -30.6610   -5.8790 C.ar   72  PHE72      -0.0042
     52  CD2      -29.3880  -32.8320   -4.8670 C.ar   72  PHE72      -0.0042
     53  CE1      -28.1790  -30.7380   -6.2710 C.ar   72  PHE72      -0.0003
     54  CE2      -28.0490  -32.9120   -5.2680 C.ar   72  PHE72      -0.0003
     55  CZ       -27.4470  -31.8520   -5.9660 C.ar   72  PHE72      -0.0000
     56  N        -26.4590  -26.8700  -11.2390 N.3    84  ILE84      -0.1245
     57  CA       -27.2980  -27.3870  -10.1430 C.3    84  ILE84       0.1561
     58  C        -28.6570  -27.6280  -10.7650 C.2    84  ILE84       0.2260
     59  O        -29.3330  -26.6670  -11.2030 O.2    84  ILE84      -0.2867
     60  CB       -27.3960  -26.4020   -8.9720 C.3    84  ILE84       0.0252
     61  CG1      -26.0230  -26.2160   -8.3460 C.3    84  ILE84       0.0019
     62  CG2      -28.4400  -26.8220   -7.9490 C.3    84  ILE84       0.0019
     63  CD1      -25.9610  -25.1140   -7.2210 C.3    84  ILE84       0.0001
     64  N        -32.3910  -28.7230  -10.3380 N.3    86  MET86      -0.1245
     65  CA       -33.3760  -28.6240   -9.2640 C.3    86  MET86       0.1570
     66  C        -34.7830  -28.6930   -9.8310 C.2    86  MET86       0.2261
     67  O        -34.9830  -28.6100  -11.0680 O.2    86  MET86      -0.2867
     68  CB       -33.1610  -27.3350   -8.4290 C.3    86  MET86       0.0387
     69  CG       -33.6020  -26.0300   -9.0600 C.3    86  MET86       0.0595
     70  SD       -32.6380  -24.6000   -8.5080 S.3    86  MET86      -0.1393
     71  CE       -33.6850  -23.7160   -7.2770 C.3    86  MET86       0.0692
     72  N        -28.6960  -18.0510    4.4250 N.3   132  ARG132     -0.1231
     73  CA       -27.6030  -17.2060    3.9230 C.3   132  ARG132      0.1694
     74  C        -27.9370  -16.0830    2.9020 C.2   132  ARG132      0.2592
     75  O        -27.1640  -15.1780    2.7930 O.2   132  ARG132     -0.2718
     76  CB       -26.4870  -18.0680    3.3400 C.3   132  ARG132      0.0321
     77  CG       -25.5600  -18.6600    4.3480 C.3   132  ARG132      0.0489
     78  CD       -24.1700  -18.7360    3.7350 C.3   132  ARG132      0.2205
     79  NE       -23.2810  -17.8070    4.3900 N.pl3 132  ARG132     -0.0865
     80  CZ       -22.5950  -18.1150    5.4850 C.cat 132  ARG132      0.5346
     81  NH1      -22.6960  -19.3450    5.9910 N.pl3 132  ARG132      0.1354
     82  NH2      -21.8240  -17.2080    6.0740 N.pl3 132  ARG132      0.1354
     83  N        -29.0330  -16.1650    2.1410 N.am  133  ASP133     -0.1974
     84  CA       -29.4660  -15.1010    1.2240 C.3   133  ASP133      0.1709
     85  C        -30.9800  -15.2380    1.0370 C.2   133  ASP133      0.2293
     86  O        -31.4680  -15.5400   -0.0720 O.2   133  ASP133     -0.2864
     87  CB       -28.7590  -15.2220   -0.1390 C.3   133  ASP133      0.1436
     88  CG       -28.8790  -13.9280   -1.0220 C.2   133  ASP133      0.3671
     89  OD1      -29.2630  -12.8520   -0.4940 O.co2 133  ASP133     -0.2456
     90  OD2      -28.5970  -13.9720   -2.2580 O.co2 133  ASP133     -0.2456
     91  N        -34.0790  -13.7510    0.1910 N.3   135  LYS135     -0.1245
     92  CA       -34.6350  -12.5930   -0.3940 C.3   135  LYS135      0.1561
     93  C        -35.8270  -12.9630   -1.3050 C.2   135  LYS135      0.2260
     94  O        -36.0210  -14.1210   -1.6930 O.2   135  LYS135     -0.2867
     95  CB       -33.5230  -11.8620   -1.1050 C.3   135  LYS135      0.0271
     96  CG       -33.0450  -12.4980   -2.4310 C.3   135  LYS135      0.0035
     97  CD       -31.9790  -11.6000   -3.1140 C.3   135  LYS135      0.0206
     98  CE       -30.8160  -12.4850   -3.6180 C.3   135  LYS135      0.1093
     99  NZ       -29.8680  -11.8230   -4.5650 N.3   135  LYS135     -0.1314
    100  N        -35.2820  -15.6540   -4.0310 N.3   138  ASN138     -0.1240
    101  CA       -34.8710  -16.9410   -3.5180 C.3   138  ASN138      0.1653
    102  C        -36.0130  -17.6750   -2.8600 C.2   138  ASN138      0.2266
    103  O        -35.7930  -18.7120   -2.2530 O.2   138  ASN138     -0.2867
    104  CB       -33.5970  -16.8600   -2.6770 C.3   138  ASN138      0.1155
    105  CG       -32.3800  -16.4260   -3.5050 C.2   138  ASN138      0.2627
    106  OD1      -32.3660  -16.5590   -4.7460 O.2   138  ASN138     -0.2716
    107  ND2      -31.3910  -15.8570   -2.8370 N.am  138  ASN138     -0.0877
    108  N        -35.1570  -21.7300   -2.1040 N.3   150  CYS150     -0.1221
    109  CA       -33.8970  -22.2400   -2.6740 C.3   150  CYS150      0.1808
    110  C        -32.7310  -21.2570   -2.5850 C.2   150  CYS150      0.2601
    111  O        -32.9360  -20.1220   -2.2220 O.2   150  CYS150     -0.2717
    112  CB       -34.0770  -22.6300   -4.1460 C.3   150  CYS150      0.0970
    113  SG       -34.1640  -21.1570   -5.0230 S.3   150  CYS150     -0.0800
    114  N        -31.5390  -21.6960   -2.9860 N.am  151  ASP151     -0.1959
    115  CA       -30.2990  -20.9110   -3.0130 C.3   151  ASP151      0.1840
    116  C        -29.8160  -20.6990   -1.6190 C.2   151  ASP151      0.2622
    117  O        -29.2590  -19.6620   -1.2990 O.2   151  ASP151     -0.2715
    118  CB       -30.4340  -19.5450   -3.7000 C.3   151  ASP151      0.1450
    119  CG       -30.7700  -19.6380   -5.1690 C.2   151  ASP151      0.3671
    120  OD1      -30.9580  -20.7480   -5.7170 O.co2 151  ASP151     -0.2456
    121  OD2      -30.8470  -18.5570   -5.7850 O.co2 151  ASP151     -0.2456
    122  N        -30.0520  -21.6890   -0.7730 N.am  152  PHE152     -0.1960
    123  CA       -29.4720  -21.6920    0.5850 C.3   152  PHE152      0.1771
    124  C        -28.0710  -22.2810    0.4970 C.2   152  PHE152      0.2620
    125  O        -27.7240  -22.8950   -0.5160 O.2   152  PHE152     -0.2715
    126  CB       -30.3480  -22.4540    1.5930 C.3   152  PHE152      0.0574
    127  CG       -30.9320  -23.7710    1.0660 C.ar  152  PHE152     -0.0200
    128  CD1      -31.9580  -23.7730    0.1200 C.ar  152  PHE152     -0.0042
    129  CD2      -30.4450  -25.0080    1.5500 C.ar  152  PHE152     -0.0042
    130  CE1      -32.4810  -24.9960   -0.3550 C.ar  152  PHE152     -0.0003
    131  CE2      -30.9360  -26.2240    1.0940 C.ar  152  PHE152     -0.0003
    132  CZ       -31.9510  -26.2320    0.1460 C.ar  152  PHE152     -0.0000
    133  N        -27.2670  -22.0640    1.5320 N.am  153  GLY153     -0.1940
    134  CA       -25.8370  -22.3400    1.4750 C.3   153  GLY153      0.2014
    135  C        -25.4900  -23.6900    2.0570 C.2   153  GLY153      0.2639
    136  O        -25.1000  -23.7810    3.2550 O.2   153  GLY153     -0.2714
    137  N        -25.6670  -24.7270    1.2250 N.am  154  VAL154     -0.1963
    138  CA       -25.4420  -26.1080    1.6340 C.3   154  VAL154      0.1727
    139  C        -23.9760  -26.3640    1.7500 C.2   154  VAL154      0.2616
    140  O        -23.5370  -26.9750    2.7380 O.2   154  VAL154     -0.2715
    141  CB       -25.8930  -27.1670    0.5880 C.3   154  VAL154      0.0290
    142  CG1      -26.8670  -28.1290    1.1880 C.3   154  VAL154      0.0023
    143  CG2      -26.3540  -26.5320   -0.7630 C.3   154  VAL154      0.0023
    144  N        -23.2510  -25.9080    0.7060 N.am  155  SER155     -0.1950
    145  CA       -21.8380  -26.1800    0.4510 C.3   155  SER155      0.1924
    146  C        -20.9150  -25.0640    0.9530 C.2   155  SER155      0.2314
    147  O        -20.8670  -23.9650    0.3460 O.2   155  SER155     -0.2863
    148  CB       -21.6350  -26.3430   -1.0340 C.3   155  SER155      0.2116
    149  OG       -20.2610  -26.2170   -1.3100 O.3   155  SER155     -0.2180
    150  N        -18.7300  -23.6420   -1.8020 N.3   158  LEU158     -0.1231
    151  CA       -19.4900  -22.8370   -2.7450 C.3   158  LEU158      0.1693
    152  C        -19.7370  -21.4710   -2.1200 C.2   158  LEU158      0.2591
    153  O        -19.5900  -20.4400   -2.7830 O.2   158  LEU158     -0.2718
    154  CB       -20.7970  -23.4990   -3.0980 C.3   158  LEU158      0.0284
    155  CG       -21.0910  -23.4560   -4.5910 C.3   158  LEU158      0.0019
    156  CD1      -22.6060  -23.4100   -4.9130 C.3   158  LEU158      0.0001
    157  CD2      -20.3770  -22.3110   -5.2520 C.3   158  LEU158      0.0001
    158  N        -20.0910  -21.4650   -0.8310 N.am  159  ILE159     -0.1980
    159  CA       -20.2140  -20.2190   -0.0780 C.3   159  ILE159      0.1595
    160  C        -18.9170  -19.4140   -0.1770 C.2   159  ILE159      0.2287
    161  O        -18.9690  -18.2390   -0.5830 O.2   159  ILE159     -0.2864
    162  CB       -20.5280  -20.4710    1.4120 C.3   159  ILE159      0.0276
    163  CG1      -22.0060  -20.8620    1.6040 C.3   159  ILE159      0.0022
    164  CG2      -20.1480  -19.2590    2.2970 C.3   159  ILE159      0.0022
    165  CD1      -22.3450  -21.3800    3.0250 C.3   159  ILE159      0.0001
    166  N        -17.8270  -17.8400   -3.3300 N.3   162  MET162     -0.1245
    167  CA       -18.8130  -16.9840   -3.9260 C.3   162  MET162      0.1570
    168  C        -18.6310  -15.6340   -3.2720 C.2   162  MET162      0.2261
    169  O        -18.8030  -14.6130   -3.9050 O.2   162  MET162     -0.2867
    170  CB       -20.1990  -17.5910   -3.7150 C.3   162  MET162      0.0387
    171  CG       -21.1980  -17.3350   -4.8570 C.3   162  MET162      0.0595
    172  SD       -22.3190  -18.7200   -5.2140 S.3   162  MET162     -0.1393
    173  CE       -23.2830  -18.0390   -6.5840 C.3   162  MET162      0.0692
@<TRIPOS>BOND
     1     1     2    1
     2     3     2    1
     3     3     4    2
     4     2     5    1
     5    10    11    1
     6    12    13    2
     7    12    11    1
     8    11    14    1
     9     5     6    1
    10    56    57    1
    11    59    58    2
    12    67    66    2
    13    58    57    1
    14     6     7    1
    15    14    15    1
    16    14    16    1
    17    64    65    1
    18    57    60    1
    19     7     8    1
    20    66    65    1
    21    15    17    1
    22    65    68    1
    23    69    70    1
    24    69    68    1
    25     8     9    1
    26    60    61    1
    27    60    62    1
    28    70    71    1
    29    61    63    1
    30    47    48    2
    31    47    46    1
    32    44    43    2
    33   173   172    1
    34    53    55   ar
    35    53    51   ar
    36    39    38    1
    37    24    23    1
    38    55    54   ar
    39    51    50   ar
    40    46    45    1
    41    46    49    1
    42   121   119   ar
    43   120   119   ar
    44    43    45   am
    45    43    42    1
    46    54    52   ar
    47   157   155    1
    48   172   171    1
    49    50    52   ar
    50    50    49    1
    51   119   118    1
    52   113   112    1
    53   156   155    1
    54   171   170    1
    55   106   105    2
    56    23    22    1
    57    23    25    1
    58    38    40    1
    59    38    35    1
    60   155   154    1
    61    42    41    1
    62    41    36   am
    63    99    98    1
    64    22    19    1
    65   112   109    1
    66   100   101    1
    67   167   170    1
    68   167   166    1
    69   167   168    1
    70   169   168    2
    71   118   115    1
    72    35    36    1
    73    35    34    1
    74    36    37    2
    75    98    97    1
    76   101   102    1
    77   101   104    1
    78   105   107   am
    79   105   104    1
    80    32    31    1
    81    97    96    1
    82   154   151    1
    83   115   114    1
    84   115   116    1
    85   114   110   am
    86    19    20    1
    87    19    18    1
    88   102   103    2
    89    20    21    2
    90   153   152    2
    91   151   152    1
    92   151   150    1
    93   109   110    1
    94   109   108    1
    95   110   111    2
    96    30    31    1
    97    30    27    1
    98    96    95    1
    99    90    88   ar
   100    31    33    1
   101   152   158   am
   102    94    93    2
   103   116   117    2
   104   116   122   am
   105    28    29    2
   106    28    27    1
   107   149   148    1
   108    93    92    1
   109    27    26    1
   110    95    92    1
   111   148   145    1
   112    88    89   ar
   113    88    87    1
   114   158   159    1
   115   122   123    1
   116   143   141    1
   117   161   160    2
   118   125   124    2
   119    92    91    1
   120   130   128   ar
   121   130   132   ar
   122   160   159    1
   123    87    84    1
   124   159   162    1
   125    86    85    2
   126   128   127   ar
   127   132   131   ar
   128   147   146    2
   129   145   144    1
   130   145   146    1
   131   124   123    1
   132   124   133   am
   133   123   126    1
   134   141   142    1
   135   141   138    1
   136   144   139   am
   137    85    84    1
   138   127   129   ar
   139   127   126    1
   140   131   129   ar
   141    84    83    1
   142   137   138    1
   143   137   135   am
   144   162   163    1
   145   162   164    1
   146   134   133    1
   147   134   135    1
   148   163   165    1
   149   138   139    1
   150   139   140    2
   151   135   136    2
   152    83    74   am
   153    75    74    2
   154    74    73    1
   155    76    73    1
   156    76    77    1
   157    78    77    1
   158    78    79    1
   159    73    72    1
   160    79    80    2
   161    80    81    1
   162    80    82    1
