@<TRIPOS>MOLECULE
tmp/4an9A00.pdb
 180 168 0 0 0
SMALL
GASTEIGER

@<TRIPOS>ATOM
      1  N        -35.7040  -19.1560  -17.8030 N.3    17  LEU17      -0.1231
      2  CA       -36.5950  -18.9310  -16.6490 C.3    17  LEU17       0.1693
      3  C        -36.3000  -17.6070  -15.9570 C.2    17  LEU17       0.2593
      4  O        -37.1360  -17.0890  -15.1920 O.2    17  LEU17      -0.2718
      5  CB       -36.4740  -20.0620  -15.6250 C.3    17  LEU17       0.0284
      6  CG       -37.0880  -21.4180  -15.9660 C.3    17  LEU17       0.0019
      7  CD1      -36.6670  -22.4280  -14.9310 C.3    17  LEU17       0.0001
      8  CD2      -38.6200  -21.3560  -16.0830 C.3    17  LEU17       0.0001
      9  N        -35.1090  -17.0720  -16.2360 N.am   18  GLY18      -0.1942
     10  CA       -34.6390  -15.8200  -15.6740 C.3    18  GLY18       0.2014
     11  C        -33.1410  -15.9440  -15.5040 C.2    18  GLY18       0.2639
     12  O        -32.5490  -17.0130  -15.8280 O.2    18  GLY18      -0.2714
     13  N        -32.5350  -14.8490  -15.0070 N.am   19  ALA19      -0.1963
     14  CA       -31.0700  -14.7190  -14.7600 C.3    19  ALA19       0.1728
     15  C        -30.8210  -13.5700  -13.7900 C.2    19  ALA19       0.2617
     16  O        -31.7560  -12.8640  -13.4430 O.2    19  ALA19      -0.2715
     17  CB       -30.2610  -14.5310  -16.0760 C.3    19  ALA19       0.0334
     18  N        -29.5720  -13.4120  -13.3540 N.am   20  GLY20      -0.1940
     19  CA       -29.1840  -12.4530  -12.3120 C.3    20  GLY20       0.2014
     20  C        -27.6730  -12.3940  -12.1070 C.2    20  GLY20       0.2639
     21  O        -26.9000  -13.1040  -12.7670 O.2    20  GLY20      -0.2714
     22  N        -27.2430  -11.5460  -11.1820 N.am   21  ASN21      -0.1958
     23  CA       -25.8160  -11.2650  -11.0270 C.3    21  ASN21       0.1819
     24  C        -24.9140  -12.4390  -11.4060 C.2    21  ASN21       0.2622
     25  O        -24.0800  -12.2900  -12.3110 O.2    21  ASN21      -0.2715
     26  CB       -25.5060  -10.7200   -9.6390 C.3    21  ASN21       0.1195
     27  CG       -26.2780   -9.4300   -9.3430 C.2    21  ASN21       0.2630
     28  OD1      -26.4170   -8.5590  -10.2080 O.2    21  ASN21      -0.2716
     29  ND2      -26.7930   -9.3080   -8.1150 N.am   21  ASN21      -0.0877
     30  N        -25.1290  -13.6070  -10.7730 N.am   22  GLY22      -0.1940
     31  CA       -24.2610  -14.8150  -10.9240 C.3    22  GLY22       0.2014
     32  C        -24.6410  -15.9160  -11.9230 C.2    22  GLY22       0.2639
     33  O        -24.3550  -17.0920  -11.6800 O.2    22  GLY22      -0.2714
     34  N        -25.2620  -15.5580  -13.0500 N.am   23  GLY23      -0.1954
     35  CA       -25.5400  -16.5520  -14.1010 C.3    23  GLY23       0.1869
     36  C        -26.9300  -16.5490  -14.7410 C.2    23  GLY23       0.2309
     37  O        -27.5740  -15.4930  -14.8760 O.2    23  GLY23      -0.2863
     38  N        -30.7800  -19.1020  -15.6700 N.3    25  VAL25      -0.1245
     39  CA       -31.5900  -20.2700  -15.3330 C.3    25  VAL25       0.1561
     40  C        -32.5490  -20.6580  -16.4240 C.2    25  VAL25       0.2260
     41  O        -33.4200  -19.8760  -16.8380 O.2    25  VAL25      -0.2867
     42  CB       -32.2930  -20.1410  -14.0060 C.3    25  VAL25       0.0252
     43  CG1      -33.2910  -21.2270  -13.8410 C.3    25  VAL25       0.0019
     44  CG2      -31.2870  -20.2870  -12.9110 C.3    25  VAL25       0.0019
     45  N        -35.3050  -27.2830  -13.4810 N.3    38  ALA38      -0.1245
     46  CA       -34.7250  -25.9560  -13.7060 C.3    38  ALA38       0.1562
     47  C        -33.2230  -26.1050  -13.5710 C.2    38  ALA38       0.2260
     48  O        -32.7270  -26.7080  -12.5690 O.2    38  ALA38      -0.2867
     49  CB       -35.2430  -24.9720  -12.7370 C.3    38  ALA38       0.0290
     50  N        -29.3720  -24.4470  -13.3780 N.3    40  LYS40      -0.1245
     51  CA       -28.7590  -23.2270  -12.8880 C.3    40  LYS40       0.1561
     52  C        -27.2660  -23.3160  -13.1140 C.2    40  LYS40       0.2260
     53  O        -26.5670  -24.0710  -12.4510 O.2    40  LYS40      -0.2867
     54  CB       -29.1350  -23.0010  -11.4080 C.3    40  LYS40       0.0271
     55  CG       -28.2610  -22.0210  -10.6390 C.3    40  LYS40       0.0035
     56  CD       -29.0950  -20.9760   -9.9120 C.3    40  LYS40       0.0206
     57  CE       -28.2330  -20.0690   -8.9880 C.3    40  LYS40       0.1093
     58  NZ       -28.8110  -19.8000   -7.6170 N.3    40  LYS40      -0.1314
     59  N        -37.1740  -26.2400   -2.2960 N.3    70  VAL70      -0.1245
     60  CA       -37.1400  -26.7150   -3.6880 C.3    70  VAL70       0.1561
     61  C        -36.4300  -28.0960   -3.6770 C.2    70  VAL70       0.2260
     62  O        -35.6290  -28.3640   -2.7810 O.2    70  VAL70      -0.2867
     63  CB       -36.5240  -25.6550   -4.6420 C.3    70  VAL70       0.0252
     64  CG1      -36.8610  -25.9250   -6.1540 C.3    70  VAL70       0.0019
     65  CG2      -37.1030  -24.3240   -4.2790 C.3    70  VAL70       0.0019
     66  N        -32.3910  -28.7230  -10.3380 N.3    86  MET86      -0.1230
     67  CA       -33.3760  -28.6240   -9.2640 C.3    86  MET86       0.1702
     68  C        -34.7830  -28.6930   -9.8310 C.2    86  MET86       0.2592
     69  O        -34.9830  -28.6100  -11.0680 O.2    86  MET86      -0.2718
     70  CB       -33.1610  -27.3350   -8.4290 C.3    86  MET86       0.0401
     71  CG       -33.6020  -26.0300   -9.0600 C.3    86  MET86       0.0596
     72  SD       -32.6380  -24.6000   -8.5080 S.3    86  MET86      -0.1393
     73  CE       -33.6850  -23.7160   -7.2770 C.3    86  MET86       0.0692
     74  N        -35.7400  -28.8420   -8.9170 N.am   87  GLU87      -0.1966
     75  CA       -37.1670  -28.9010   -9.2300 C.3    87  GLU87       0.1733
     76  C        -37.6170  -27.6480   -9.9660 C.2    87  GLU87       0.2616
     77  O        -37.2070  -26.5360   -9.5660 O.2    87  GLU87      -0.2715
     78  CB       -37.9490  -28.9870   -7.9140 C.3    87  GLU87       0.0429
     79  CG       -39.4390  -28.8320   -8.0880 C.3    87  GLU87       0.1163
     80  CD       -40.1990  -28.8720   -6.7710 C.2    87  GLU87       0.3649
     81  OE1      -39.5780  -29.0080   -5.6630 O.co2  87  GLU87      -0.2457
     82  OE2      -41.4420  -28.7400   -6.8520 O.co2  87  GLU87      -0.2457
     83  N        -38.4740  -27.7880  -10.9800 N.am   88  HIS88      -0.1959
     84  CA       -38.9700  -26.5850  -11.6970 C.3    88  HIS88       0.1787
     85  C        -40.2440  -25.9700  -11.0960 C.2    88  HIS88       0.2620
     86  O        -41.2830  -26.5830  -11.1170 O.2    88  HIS88      -0.2715
     87  CB       -39.1450  -26.8470  -13.2120 C.3    88  HIS88       0.0785
     88  CG       -40.1860  -25.9840  -13.8730 C.ar   88  HIS88       0.0821
     89  ND1      -41.4050  -26.4760  -14.3020 N.ar   88  HIS88      -0.2267
     90  CD2      -40.1920  -24.6640  -14.1780 C.ar   88  HIS88       0.1154
     91  CE1      -42.1160  -25.4980  -14.8360 C.ar   88  HIS88       0.1986
     92  NE2      -41.4070  -24.3870  -14.7650 N.ar   88  HIS88      -0.2212
     93  N        -40.1740  -24.7490  -10.5930 N.am   89  MET89      -0.1977
     94  CA       -41.3440  -24.0850  -10.0850 C.3    89  MET89       0.1605
     95  C        -41.9930  -23.2270  -11.1350 C.2    89  MET89       0.2287
     96  O        -41.5960  -22.1070  -11.3020 O.2    89  MET89      -0.2864
     97  CB       -40.9200  -23.2260   -8.9380 C.3    89  MET89       0.0413
     98  CG       -40.1190  -24.0290   -7.9700 C.3    89  MET89       0.0598
     99  SD       -41.1530  -25.0400   -6.9250 S.3    89  MET89      -0.1393
    100  CE       -42.0430  -23.8420   -5.8820 C.3    89  MET89       0.0692
    101  N        -41.9660  -19.0320  -11.2150 N.3    92  GLY92      -0.1210
    102  CA       -40.8200  -18.1680  -10.9790 C.3    92  GLY92       0.1956
    103  C        -40.7530  -17.8520   -9.5070 C.2    92  GLY92       0.2612
    104  O        -41.3010  -18.6050   -8.7170 O.2    92  GLY92      -0.2717
    105  N        -40.1020  -16.7490   -9.1170 N.am   93  SER93      -0.1952
    106  CA       -39.9400  -16.4350   -7.6950 C.3    93  SER93       0.1924
    107  C        -40.7240  -15.1850   -7.4020 C.2    93  SER93       0.2314
    108  O        -41.1420  -14.4810   -8.3160 O.2    93  SER93      -0.2863
    109  CB       -38.5000  -16.1350   -7.3780 C.3    93  SER93       0.2116
    110  OG       -38.2100  -14.8030   -7.8030 O.3    93  SER93      -0.2180
    111  N        -40.0630  -12.3890   -6.5650 N.3    95  ASP95      -0.1225
    112  CA       -39.5430  -11.2100   -7.1990 C.3    95  ASP95       0.1805
    113  C        -40.1830  -10.9850   -8.5730 C.2    95  ASP95       0.2597
    114  O        -40.6390   -9.8940   -8.8670 O.2    95  ASP95      -0.2718
    115  CB       -38.0500  -11.3290   -7.3730 C.3    95  ASP95       0.1424
    116  CG       -37.4410  -10.0250   -7.7440 C.2    95  ASP95       0.3668
    117  OD1      -37.3860   -9.1340   -6.8600 O.co2  95  ASP95      -0.2456
    118  OD2      -37.0840   -9.8810   -8.9210 O.co2  95  ASP95      -0.2456
    119  N        -40.2310  -12.0140   -9.4070 N.am   96  GLN96      -0.1979
    120  CA       -40.9950  -11.8790  -10.6080 C.3    96  GLN96       0.1601
    121  C        -42.4590  -11.6150  -10.3130 C.2    96  GLN96       0.2287
    122  O        -43.1170  -10.8610  -11.0580 O.2    96  GLN96      -0.2864
    123  CB       -40.8610  -13.1040  -11.4630 C.3    96  GLN96       0.0394
    124  CG       -39.5760  -13.1610  -12.2650 C.3    96  GLN96       0.0908
    125  CD       -39.1210  -14.5780  -12.3740 C.2    96  GLN96       0.2608
    126  OE1      -39.4840  -15.4050  -11.5280 O.2    96  GLN96      -0.2717
    127  NE2      -38.3370  -14.8950  -13.4050 N.am   96  GLN96      -0.0878
    128  N        -29.0330  -16.1650    2.1410 N.3   133  ASP133     -0.1239
    129  CA       -29.4660  -15.1010    1.2240 C.3   133  ASP133      0.1674
    130  C        -30.9800  -15.2380    1.0370 C.2   133  ASP133      0.2266
    131  O        -31.4680  -15.5400   -0.0720 O.2   133  ASP133     -0.2867
    132  CB       -28.7590  -15.2220   -0.1390 C.3   133  ASP133      0.1410
    133  CG       -28.8790  -13.9280   -1.0220 C.2   133  ASP133      0.3668
    134  OD1      -29.2630  -12.8520   -0.4940 O.co2 133  ASP133     -0.2456
    135  OD2      -28.5970  -13.9720   -2.2580 O.co2 133  ASP133     -0.2456
    136  N        -34.0790  -13.7510    0.1910 N.3   135  LYS135     -0.1245
    137  CA       -34.6350  -12.5930   -0.3940 C.3   135  LYS135      0.1561
    138  C        -35.8270  -12.9630   -1.3050 C.2   135  LYS135      0.2260
    139  O        -36.0210  -14.1210   -1.6930 O.2   135  LYS135     -0.2867
    140  CB       -33.5230  -11.8620   -1.1050 C.3   135  LYS135      0.0271
    141  CG       -33.0450  -12.4980   -2.4310 C.3   135  LYS135      0.0035
    142  CD       -31.9790  -11.6000   -3.1140 C.3   135  LYS135      0.0206
    143  CE       -30.8160  -12.4850   -3.6180 C.3   135  LYS135      0.1093
    144  NZ       -29.8680  -11.8230   -4.5650 N.3   135  LYS135     -0.1314
    145  N        -36.1740  -13.2820   -4.4210 N.3   137  SER137     -0.1202
    146  CA       -35.8970  -14.0130   -5.6750 C.3   137  SER137      0.2020
    147  C        -35.5190  -15.4480   -5.3320 C.2   137  SER137      0.2618
    148  O        -35.3840  -16.3230   -6.2160 O.2   137  SER137     -0.2717
    149  CB       -34.7310  -13.3630   -6.4710 C.3   137  SER137      0.2103
    150  OG       -33.4370  -13.6020   -5.8390 O.3   137  SER137     -0.2182
    151  N        -35.2820  -15.6540   -4.0310 N.am  138  ASN138     -0.1974
    152  CA       -34.8710  -16.9410   -3.5180 C.3   138  ASN138      0.1688
    153  C        -36.0130  -17.6750   -2.8600 C.2   138  ASN138      0.2292
    154  O        -35.7930  -18.7120   -2.2530 O.2   138  ASN138     -0.2864
    155  CB       -33.5970  -16.8600   -2.6770 C.3   138  ASN138      0.1181
    156  CG       -32.3800  -16.4260   -3.5050 C.2   138  ASN138      0.2629
    157  OD1      -32.3660  -16.5590   -4.7460 O.2   138  ASN138     -0.2716
    158  ND2      -31.3910  -15.8570   -2.8370 N.am  138  ASN138     -0.0877
    159  N        -39.5970  -19.3780   -4.1190 N.3   140  LEU140     -0.1245
    160  CA       -40.2950  -19.7360   -5.3600 C.3   140  LEU140      0.1561
    161  C        -41.7100  -20.3060   -5.1950 C.2   140  LEU140      0.2260
    162  O        -42.0500  -20.8600   -4.1630 O.2   140  LEU140     -0.2867
    163  CB       -39.4500  -20.7480   -6.1070 C.3   140  LEU140      0.0270
    164  CG       -37.9300  -20.5750   -6.1910 C.3   140  LEU140      0.0019
    165  CD1      -37.3400  -21.8040   -6.8770 C.3   140  LEU140      0.0001
    166  CD2      -37.5960  -19.3600   -6.9420 C.3   140  LEU140      0.0001
    167  N        -35.1570  -21.7300   -2.1040 N.3   150  CYS150     -0.1221
    168  CA       -33.8970  -22.2400   -2.6740 C.3   150  CYS150      0.1808
    169  C        -32.7310  -21.2570   -2.5850 C.2   150  CYS150      0.2601
    170  O        -32.9360  -20.1220   -2.2220 O.2   150  CYS150     -0.2717
    171  CB       -34.0770  -22.6300   -4.1460 C.3   150  CYS150      0.0970
    172  SG       -34.1640  -21.1570   -5.0230 S.3   150  CYS150     -0.0800
    173  N        -31.5390  -21.6960   -2.9860 N.am  151  ASP151     -0.1973
    174  CA       -30.2990  -20.9110   -3.0130 C.3   151  ASP151      0.1709
    175  C        -29.8160  -20.6990   -1.6190 C.2   151  ASP151      0.2293
    176  O        -29.2590  -19.6620   -1.2990 O.2   151  ASP151     -0.2864
    177  CB       -30.4340  -19.5450   -3.7000 C.3   151  ASP151      0.1436
    178  CG       -30.7700  -19.6380   -5.1690 C.2   151  ASP151      0.3671
    179  OD1      -30.9580  -20.7480   -5.7170 O.co2 151  ASP151     -0.2456
    180  OD2      -30.8470  -18.5570   -5.7850 O.co2 151  ASP151     -0.2456
@<TRIPOS>BOND
     1     1     2    1
     2    41    40    2
     3     2     3    1
     4     2     5    1
     5    40    39    1
     6     9     3   am
     7     9    10    1
     8     8     6    1
     9    17    14    1
    10     6     5    1
    11     6     7    1
    12     3     4    2
    13    12    11    2
    14    10    11    1
    15    38    39    1
    16    11    13   am
    17    39    42    1
    18    13    14    1
    19    37    36    2
    20    91    92   ar
    21    91    89   ar
    22    92    90   ar
    23    14    15    1
    24    36    35    1
    25    89    88   ar
    26    90    88   ar
    27    35    34    1
    28    42    43    1
    29    42    44    1
    30    88    87    1
    31    15    16    2
    32    15    18   am
    33    46    47    1
    34    46    45    1
    35    46    49    1
    36    47    48    2
    37   127   125   am
    38    50    51    1
    39    18    19    1
    40    87    84    1
    41    52    51    1
    42    52    53    2
    43    34    32   am
    44    51    54    1
    45    21    20    2
    46   125   124    1
    47   125   126    2
    48    19    20    1
    49    25    24    2
    50   124   123    1
    51    20    22   am
    52    32    33    2
    53    32    31    1
    54    84    85    1
    55    84    83    1
    56   123   120    1
    57    54    55    1
    58    24    23    1
    59    24    30   am
    60    96    95    2
    61   101   102    1
    62    22    23    1
    63    95    94    1
    64    86    85    2
    65    85    93   am
    66    69    68    2
    67   122   121    2
    68    23    26    1
    69    83    76   am
    70   102   103    1
    71    31    30    1
    72    55    56    1
    73   120   121    1
    74   120   119    1
    75    93    94    1
    76    66    67    1
    77    28    27    2
    78    94    97    1
    79    76    77    2
    80    76    75    1
    81    56    57    1
    82    68    67    1
    83    68    74   am
    84    26    27    1
    85   103   105   am
    86   103   104    2
    87   119   113   am
    88    27    29   am
    89    67    70    1
    90    75    74    1
    91    75    78    1
    92   105   106    1
    93    71    72    1
    94    71    70    1
    95    57    58    1
    96    97    98    1
    97   118   116   ar
    98   114   113    2
    99   113   112    1
   100    72    73    1
   101   108   107    2
   102    79    78    1
   103    79    80    1
   104    98    99    1
   105   110   109    1
   106   116   115    1
   107   116   117   ar
   108   106   107    1
   109   106   109    1
   110   115   112    1
   111   112   111    1
   112   166   164    1
   113    99   100    1
   114   165   164    1
   115    82    80   ar
   116    80    81   ar
   117   149   150    1
   118   149   146    1
   119   148   147    2
   120   164   163    1
   121    64    63    1
   122   163   160    1
   123   180   178   ar
   124   179   178   ar
   125   146   147    1
   126   146   145    1
   127   160   161    1
   128   160   159    1
   129   147   151   am
   130   161   162    2
   131   178   177    1
   132   172   171    1
   133   157   156    2
   134    63    65    1
   135    63    60    1
   136   144   143    1
   137   171   168    1
   138   151   152    1
   139   177   174    1
   140    60    61    1
   141    60    59    1
   142    61    62    2
   143   143   142    1
   144   152   153    1
   145   152   155    1
   146   156   158   am
   147   156   155    1
   148   142   141    1
   149   174   173    1
   150   174   175    1
   151   173   169   am
   152   153   154    2
   153   168   169    1
   154   168   167    1
   155   169   170    2
   156   141   140    1
   157   135   133   ar
   158   139   138    2
   159   175   176    2
   160   138   137    1
   161   140   137    1
   162   133   134   ar
   163   133   132    1
   164   137   136    1
   165   132   129    1
   166   131   130    2
   167   130   129    1
   168   129   128    1
