@<TRIPOS>MOLECULE
tmp/4aneA00.pdb
 105 97 0 0 0
SMALL
GASTEIGER

@<TRIPOS>ATOM
      1  N         11.1820  -13.1660   23.7960 N.3     9  LYS9       -0.1245
      2  CA        12.6040  -12.8550   23.9080 C.3     9  LYS9        0.1561
      3  C         12.8600  -12.0550   25.1710 C.2     9  LYS9        0.2260
      4  O         11.9100  -11.6350   25.8310 O.2     9  LYS9       -0.2867
      5  CB        13.0650  -12.0830   22.6780 C.3     9  LYS9        0.0271
      6  CG        12.9950  -12.8900   21.3690 C.3     9  LYS9        0.0035
      7  CD        13.4940  -12.0230   20.2230 C.3     9  LYS9        0.0206
      8  CE        13.3040  -12.6820   18.8890 C.3     9  LYS9        0.1093
      9  NZ        13.9160  -11.8460   17.8300 N.3     9  LYS9       -0.1314
     10  N         19.3680  -20.0930   15.7450 N.3    49  TYR49      -0.1241
     11  CA        19.5630  -19.1050   14.7000 C.3    49  TYR49       0.1605
     12  C         20.5030  -19.5670   13.5870 C.2    49  TYR49       0.2264
     13  O         21.0720  -18.7410   12.8750 O.2    49  TYR49      -0.2867
     14  CB        20.1350  -17.8280   15.3060 C.3    49  TYR49       0.0534
     15  CG        19.1550  -17.0080   16.1010 C.ar   49  TYR49      -0.0201
     16  CD1       17.9850  -16.5260   15.5220 C.ar   49  TYR49      -0.0009
     17  CD2       19.4170  -16.6800   17.4290 C.ar   49  TYR49      -0.0009
     18  CE1       17.1010  -15.7480   16.2520 C.ar   49  TYR49       0.0417
     19  CE2       18.5390  -15.9040   18.1640 C.ar   49  TYR49       0.0417
     20  CZ        17.3850  -15.4490   17.5730 C.ar   49  TYR49       0.1957
     21  OH        16.5300  -14.6770   18.3100 O.3    49  TYR49      -0.2866
     22  N         20.8480  -18.0390   10.0190 N.3    52  HIS52      -0.1241
     23  CA        21.3430  -16.6680    9.8680 C.3    52  HIS52       0.1621
     24  C         22.8660  -16.5700    9.9380 C.2    52  HIS52       0.2264
     25  O         23.4240  -15.4820    9.8250 O.2    52  HIS52      -0.2867
     26  CB        20.7550  -15.7670   10.9560 C.3    52  HIS52       0.0745
     27  CG        19.2660  -15.8510   11.0700 C.ar   52  HIS52       0.0817
     28  ND1       18.4150  -15.3210   10.1260 N.ar   52  HIS52      -0.2268
     29  CD2       18.4750  -16.4130   12.0170 C.ar   52  HIS52       0.1154
     30  CE1       17.1630  -15.5470   10.4870 C.ar   52  HIS52       0.1986
     31  NE2       17.1740  -16.2120   11.6300 N.ar   52  HIS52      -0.2212
     32  N         22.2350  -11.3890   17.2920 N.3    61  LEU61      -0.1245
     33  CA        21.0770  -12.2210   17.6330 C.3    61  LEU61       0.1561
     34  C         21.4480  -13.2020   18.7320 C.2    61  LEU61       0.2260
     35  O         20.6930  -13.4000   19.6820 O.2    61  LEU61      -0.2867
     36  CB        20.5570  -13.0000   16.4210 C.3    61  LEU61       0.0270
     37  CG        19.8240  -12.2320   15.3220 C.3    61  LEU61       0.0019
     38  CD1       19.6900  -13.0960   14.0680 C.3    61  LEU61       0.0001
     39  CD2       18.4550  -11.7600   15.8170 C.3    61  LEU61       0.0001
     40  N          2.5120  -16.1680   13.1360 N.3    85  ARG85      -0.1245
     41  CA         3.2250  -15.1730   12.3420 C.3    85  ARG85       0.1563
     42  C          2.3860  -13.9200   12.0830 C.2    85  ARG85       0.2260
     43  O          2.8980  -12.7970   12.1470 O.2    85  ARG85      -0.2867
     44  CB         3.7290  -15.7980   11.0350 C.3    85  ARG85       0.0307
     45  CG         4.7180  -16.9270   11.2840 C.3    85  ARG85       0.0489
     46  CD         6.0850  -16.3640   11.7110 C.3    85  ARG85       0.2205
     47  NE         6.7880  -15.7800   10.5670 N.pl3  85  ARG85      -0.0865
     48  CZ         8.0930  -15.5260   10.5320 C.cat  85  ARG85       0.5346
     49  NH1        8.8530  -15.7980   11.5850 N.pl3  85  ARG85       0.1354
     50  NH2        8.6370  -15.0070    9.4370 N.pl3  85  ARG85       0.1354
     51  N          9.2300   -8.5020   10.7240 N.3    91  THR91      -0.1218
     52  CA        10.4490   -8.4270   11.5210 C.3    91  THR91       0.1862
     53  C         10.7570   -7.0110   12.0340 C.2    91  THR91       0.2287
     54  O         11.0330   -6.8280   13.2190 O.2    91  THR91      -0.2866
     55  CB        11.6610   -8.9860   10.7390 C.3    91  THR91       0.1770
     56  OG1       11.3550  -10.3040   10.2660 O.3    91  THR91      -0.2211
     57  CG2       12.8950   -9.0570   11.6310 C.3    91  THR91       0.0375
     58  N          4.5160   -6.8670   17.4180 N.3   103  ARG103     -0.1245
     59  CA         5.6110   -5.9610   17.0910 C.3   103  ARG103      0.1563
     60  C          5.1250   -4.5590   16.7250 C.2   103  ARG103      0.2260
     61  O          5.7170   -3.5780   17.1460 O.2   103  ARG103     -0.2867
     62  CB         6.4870   -6.5610   15.9920 C.3   103  ARG103      0.0307
     63  CG         7.2670   -7.7810   16.4780 C.3   103  ARG103      0.0489
     64  CD         7.8650   -8.5650   15.3180 C.3   103  ARG103      0.2205
     65  NE         8.7610   -9.6390   15.7610 N.pl3 103  ARG103     -0.0865
     66  CZ         9.2300  -10.5880   14.9570 C.cat 103  ARG103      0.5346
     67  NH1        8.8610  -10.6050   13.6810 N.pl3 103  ARG103      0.1354
     68  NH2       10.0640  -11.5210   15.4220 N.pl3 103  ARG103      0.1354
     69  N         14.2150   -3.6620   15.1530 N.3   110  THR110     -0.1218
     70  CA        14.3240   -5.0780   14.8600 C.3   110  THR110      0.1862
     71  C         15.0550   -5.8540   15.9590 C.2   110  THR110      0.2287
     72  O         14.6530   -6.9530   16.3150 O.2   110  THR110     -0.2866
     73  CB        15.0390   -5.3210   13.5120 C.3   110  THR110      0.1770
     74  OG1       14.2240   -4.8130   12.4520 O.3   110  THR110     -0.2211
     75  CG2       15.2500   -6.7970   13.2960 C.3   110  THR110      0.0375
     76  N         12.5790   -6.8990   19.1130 N.3   113  ASN113     -0.1240
     77  CA        11.2550   -7.0970   18.5390 C.3   113  ASN113      0.1653
     78  C         10.4520   -8.1970   19.2560 C.2   113  ASN113      0.2266
     79  O          9.5530   -8.8140   18.6820 O.2   113  ASN113     -0.2867
     80  CB        11.3290   -7.2870   17.0050 C.3   113  ASN113      0.1155
     81  CG        11.9740   -8.5870   16.5940 C.2   113  ASN113      0.2627
     82  OD1       12.3840   -9.3940   17.4260 O.2   113  ASN113     -0.2716
     83  ND2       12.0710   -8.8020   15.2780 N.am  113  ASN113     -0.0877
     84  N          9.1330  -14.3610   18.7610 N.3   116  HIS116     -0.1226
     85  CA         9.4150  -15.1230   17.5330 C.3   116  HIS116      0.1752
     86  C          8.3940  -16.2450   17.3600 C.2   116  HIS116      0.2596
     87  O          8.0380  -16.9130   18.3150 O.2   116  HIS116     -0.2718
     88  CB        10.8250  -15.7270   17.5790 C.3   116  HIS116      0.0759
     89  CG        11.0010  -16.9220   16.6880 C.ar  116  HIS116      0.0818
     90  ND1       11.4540  -16.8200   15.3900 N.ar  116  HIS116     -0.2268
     91  CD2       10.7910  -18.2440   16.9100 C.ar  116  HIS116      0.1154
     92  CE1       11.5160  -18.0250   14.8510 C.ar  116  HIS116      0.1986
     93  NE2       11.1050  -18.9060   15.7470 N.ar  116  HIS116     -0.2212
     94  N          7.9370  -16.4650   16.1360 N.am  117  GLY117     -0.1957
     95  CA         7.1400  -17.6390   15.8270 C.3   117  GLY117      0.1869
     96  C          7.7890  -18.3660   14.6610 C.2   117  GLY117      0.2309
     97  O          8.3400  -17.7250   13.7700 O.2   117  GLY117     -0.2863
     98  N          8.6290  -19.9870   11.2050 N.3   119  ASP119     -0.1239
     99  CA         8.1910  -19.3920    9.9400 C.3   119  ASP119      0.1674
    100  C          7.5820  -20.3760    8.9270 C.2   119  ASP119      0.2266
    101  O          7.0980  -19.9540    7.8820 O.2   119  ASP119     -0.2867
    102  CB         9.2860  -18.5130    9.2990 C.3   119  ASP119      0.1410
    103  CG        10.4720  -19.3140    8.7900 C.2   119  ASP119      0.3668
    104  OD1       10.4190  -20.5540    8.8360 O.co2 119  ASP119     -0.2456
    105  OD2       11.4550  -18.6960    8.3260 O.co2 119  ASP119     -0.2456
@<TRIPOS>BOND
     1   101   100    2
     2   105   103   ar
     3   103   104   ar
     4   103   102    1
     5   100    99    1
     6   102    99    1
     7    50    48    1
     8    25    24    2
     9    23    24    1
    10    23    22    1
    11    23    26    1
    12    99    98    1
    13    28    30   ar
    14    28    27   ar
    15    56    55    1
    16    30    31   ar
    17    48    47    2
    18    48    49    1
    19    47    46    1
    20    51    52    1
    21    55    52    1
    22    55    57    1
    23    26    27    1
    24    44    45    1
    25    44    41    1
    26    27    29   ar
    27    45    46    1
    28    52    53    1
    29    31    29   ar
    30    53    54    2
    31    42    43    2
    32    42    41    1
    33    41    40    1
    34    74    73    1
    35    13    12    2
    36    75    73    1
    37    73    70    1
    38    12    11    1
    39    67    66    1
    40    97    96    2
    41    38    37    1
    42    96    95    1
    43    11    14    1
    44    11    10    1
    45    92    90   ar
    46    92    93   ar
    47    70    69    1
    48    70    71    1
    49    66    68    1
    50    66    65    2
    51    83    81   am
    52    14    15    1
    53    64    65    1
    54    64    63    1
    55    37    39    1
    56    37    36    1
    57    90    89   ar
    58    16    15   ar
    59    16    18   ar
    60    93    91   ar
    61    95    94    1
    62    71    72    2
    63    62    63    1
    64    62    59    1
    65    15    17   ar
    66    94    86   am
    67    18    20   ar
    68    36    33    1
    69    81    80    1
    70    81    82    2
    71    89    91   ar
    72    89    88    1
    73    60    59    1
    74    60    61    2
    75    80    77    1
    76    59    58    1
    77    32    33    1
    78    86    85    1
    79    86    87    2
    80    17    19   ar
    81    85    88    1
    82    85    84    1
    83    20    19   ar
    84    20    21    1
    85    33    34    1
    86     9     8    1
    87    77    76    1
    88    77    78    1
    89    79    78    2
    90    34    35    2
    91     8     7    1
    92     7     6    1
    93     6     5    1
    94     5     2    1
    95     1     2    1
    96     2     3    1
    97     3     4    2
