@<TRIPOS>MOLECULE
tmp/4anjA00.pdb
 220 218 0 0 0
SMALL
GASTEIGER

@<TRIPOS>ATOM
      1  N         16.5600  -12.3500   32.2550 N.3    79  ILE79      -0.1231
      2  CA        15.3910  -11.4810   32.4060 C.3    79  ILE79       0.1692
      3  C         15.7240   -9.9840   32.4290 C.2    79  ILE79       0.2592
      4  O         14.8420   -9.1500   32.2260 O.2    79  ILE79      -0.2718
      5  CB        14.5780  -11.8490   33.6750 C.3    79  ILE79       0.0266
      6  CG1       15.4510  -11.7440   34.9310 C.3    79  ILE79       0.0019
      7  CG2       13.9830  -13.2500   33.5370 C.3    79  ILE79       0.0020
      8  CD1       14.6710  -11.5790   36.2230 C.3    79  ILE79       0.0001
      9  N         16.9870   -9.6520   32.6850 N.am   80  TYR80      -0.1976
     10  CA        17.4170   -8.2640   32.7550 C.3    80  TYR80       0.1639
     11  C         18.1710   -7.8480   31.4910 C.2    80  TYR80       0.2290
     12  O         18.9970   -8.6020   30.9840 O.2    80  TYR80      -0.2864
     13  CB        18.2810   -8.0180   34.0060 C.3    80  TYR80       0.0560
     14  CG        17.5940   -8.2980   35.3340 C.ar   80  TYR80      -0.0198
     15  CD1       16.3610   -7.7220   35.6400 C.ar   80  TYR80      -0.0009
     16  CD2       18.1810   -9.1380   36.2880 C.ar   80  TYR80      -0.0009
     17  CE1       15.7280   -7.9740   36.8480 C.ar   80  TYR80       0.0417
     18  CE2       17.5500   -9.3930   37.5110 C.ar   80  TYR80       0.0417
     19  CZ        16.3250   -8.8050   37.7790 C.ar   80  TYR80       0.1957
     20  OH        15.6790   -9.0430   38.9710 O.3    80  TYR80      -0.2866
     21  N          9.3090  -10.3500   34.0130 N.3    91  ASN91      -0.1226
     22  CA         8.9200  -11.2490   35.0990 C.3    91  ASN91       0.1770
     23  C          9.1030  -12.7230   34.6940 C.2    91  ASN91       0.2439
     24  O          8.4550  -13.1930   33.7620 O.2    91  ASN91      -0.2733
     25  CB         7.4760  -10.9470   35.5200 C.3    91  ASN91       0.1168
     26  CG         7.0330  -11.7200   36.7510 C.2    91  ASN91       0.2627
     27  OD1        7.7320  -12.6050   37.2410 O.2    91  ASN91      -0.2716
     28  ND2        5.8520  -11.3910   37.2510 N.am   91  ASN91      -0.0877
     29  N         10.0190  -13.4450   35.3700 N.am   92  PRO92      -0.2718
     30  CA        10.2280  -14.8500   35.0020 C.3    92  PRO92       0.1535
     31  C          9.0580  -15.7590   35.3620 C.2    92  PRO92       0.2599
     32  O          8.8290  -16.7580   34.6800 O.2    92  PRO92      -0.2715
     33  CB        11.4800  -15.2460   35.7890 C.3    92  PRO92       0.0310
     34  CG        11.5690  -14.2830   36.9050 C.3    92  PRO92       0.0237
     35  CD        10.9120  -13.0140   36.4610 C.3    92  PRO92       0.0939
     36  N          8.3140  -15.3860   36.4030 N.am   93  TYR93      -0.1960
     37  CA         7.2780  -16.2330   37.0210 C.3    93  TYR93       0.1771
     38  C          7.8020  -17.5720   37.5480 C.2    93  TYR93       0.2620
     39  O          7.0480  -18.5410   37.6440 O.2    93  TYR93      -0.2715
     40  CB         6.0490  -16.4320   36.1130 C.3    93  TYR93       0.0574
     41  CG         5.0630  -15.2900   36.1560 C.ar   93  TYR93      -0.0198
     42  CD1        4.4350  -14.9280   37.3530 C.ar   93  TYR93      -0.0009
     43  CD2        4.7550  -14.5710   35.0050 C.ar   93  TYR93      -0.0009
     44  CE1        3.5350  -13.8740   37.4050 C.ar   93  TYR93       0.0417
     45  CE2        3.8530  -13.5120   35.0430 C.ar   93  TYR93       0.0417
     46  CZ         3.2440  -13.1690   36.2470 C.ar   93  TYR93       0.1957
     47  OH         2.3470  -12.1260   36.2900 O.3    93  TYR93      -0.2866
     48  N          9.0930  -17.6110   37.8800 N.am   94  PHE94      -0.1960
     49  CA         9.7000  -18.7130   38.6370 C.3    94  PHE94       0.1771
     50  C         11.0130  -18.2250   39.2450 C.2    94  PHE94       0.2620
     51  O         11.5440  -17.2050   38.8100 O.2    94  PHE94      -0.2715
     52  CB         9.8990  -19.9740   37.7680 C.3    94  PHE94       0.0574
     53  CG        11.1300  -19.9440   36.9050 C.ar   94  PHE94      -0.0200
     54  CD1       11.1400  -19.2360   35.7040 C.ar   94  PHE94      -0.0042
     55  CD2       12.2800  -20.6340   37.2910 C.ar   94  PHE94      -0.0042
     56  CE1       12.2840  -19.2080   34.8950 C.ar   94  PHE94      -0.0003
     57  CE2       13.4270  -20.6100   36.4980 C.ar   94  PHE94      -0.0003
     58  CZ        13.4300  -19.8950   35.2920 C.ar   94  PHE94      -0.0000
     59  N         11.5210  -18.9410   40.2480 N.am   95  ASP95      -0.1957
     60  CA        12.7860  -18.5850   40.8980 C.3    95  ASP95       0.1840
     61  C         13.9850  -19.0490   40.0950 C.2    95  ASP95       0.2621
     62  O         14.2100  -20.2480   39.9420 O.2    95  ASP95      -0.2715
     63  CB        12.8700  -19.1790   42.3070 C.3    95  ASP95       0.1450
     64  CG        11.9460  -18.4900   43.2890 C.2    95  ASP95       0.3671
     65  OD1       11.7200  -17.2640   43.1410 O.co2  95  ASP95      -0.2456
     66  OD2       11.4500  -19.1740   44.2130 O.co2  95  ASP95      -0.2456
     67  N         14.7500  -18.0930   39.5830 N.am   96  ILE96      -0.1977
     68  CA        15.9870  -18.3950   38.8760 C.3    96  ILE96       0.1596
     69  C         17.0620  -18.6310   39.9350 C.2    96  ILE96       0.2287
     70  O         17.2890  -17.7640   40.7870 O.2    96  ILE96      -0.2864
     71  CB        16.3920  -17.2550   37.9080 C.3    96  ILE96       0.0276
     72  CG1       15.2200  -16.8840   36.9870 C.3    96  ILE96       0.0022
     73  CG2       17.6060  -17.6500   37.0850 C.3    96  ILE96       0.0022
     74  CD1       15.3640  -15.5360   36.2840 C.3    96  ILE96       0.0001
     75  N         20.1030  -14.2100   42.9340 N.3   100  TYR100     -0.1241
     76  CA        19.8950  -13.2180   43.9860 C.3   100  TYR100      0.1605
     77  C         20.6200  -13.5850   45.2820 C.2   100  TYR100      0.2264
     78  O         20.2990  -13.0580   46.3530 O.2   100  TYR100     -0.2867
     79  CB        18.3970  -13.0550   44.2460 C.3   100  TYR100      0.0534
     80  CG        17.6090  -12.6790   43.0120 C.ar  100  TYR100     -0.0201
     81  CD1       17.7820  -11.4330   42.4080 C.ar  100  TYR100     -0.0009
     82  CD2       16.7040  -13.5710   42.4370 C.ar  100  TYR100     -0.0009
     83  CE1       17.0760  -11.0790   41.2710 C.ar  100  TYR100      0.0417
     84  CE2       15.9840  -13.2220   41.2950 C.ar  100  TYR100      0.0417
     85  CZ        16.1810  -11.9700   40.7210 C.ar  100  TYR100      0.1957
     86  OH        15.4820  -11.5990   39.6020 O.3   100  TYR100     -0.2866
     87  N          0.3660   -4.0610   36.6410 N.3   146  SER146     -0.1202
     88  CA         0.1450   -4.9950   37.7360 C.3   146  SER146      0.2020
     89  C          0.7580   -6.3730   37.4720 C.2   146  SER146      0.2619
     90  O          0.5660   -6.9560   36.4090 O.2   146  SER146     -0.2717
     91  CB        -1.3430   -5.1070   38.0600 C.3   146  SER146      0.2103
     92  OG        -1.5300   -5.7390   39.3090 O.3   146  SER146     -0.2182
     93  N          1.5150   -6.8690   38.4450 N.am  147  GLY147     -0.1942
     94  CA         2.1230   -8.1960   38.3680 C.3   147  GLY147      0.2014
     95  C          3.3970   -8.2710   37.5420 C.2   147  GLY147      0.2639
     96  O          3.8630   -9.3680   37.2170 O.2   147  GLY147     -0.2714
     97  N          3.9700   -7.1160   37.2090 N.am  148  ALA148     -0.1963
     98  CA         5.1600   -7.0750   36.3560 C.3   148  ALA148      0.1728
     99  C          6.4550   -7.3810   37.1080 C.2   148  ALA148      0.2617
    100  O          7.4630   -7.7220   36.4910 O.2   148  ALA148     -0.2715
    101  CB         5.2600   -5.7380   35.6170 C.3   148  ALA148      0.0334
    102  N          6.4320   -7.2480   38.4310 N.am  149  GLY149     -0.1940
    103  CA         7.6020   -7.5720   39.2500 C.3   149  GLY149      0.2014
    104  C          8.2690   -6.4060   39.9590 C.2   149  GLY149      0.2639
    105  O          9.4600   -6.4720   40.2660 O.2   149  GLY149     -0.2714
    106  N          7.5050   -5.3510   40.2380 N.am  150  LYS150     -0.1963
    107  CA         8.0340   -4.1600   40.9010 C.3   150  LYS150      0.1728
    108  C          8.3990   -4.4130   42.3610 C.2   150  LYS150      0.2617
    109  O          9.4890   -4.0500   42.8030 O.2   150  LYS150     -0.2715
    110  CB         7.0460   -2.9950   40.8250 C.3   150  LYS150      0.0311
    111  CG         6.7190   -2.5300   39.4160 C.3   150  LYS150      0.0038
    112  CD         5.7010   -1.3880   39.4130 C.3   150  LYS150      0.0206
    113  CE         4.3730   -1.7710   40.0510 C.3   150  LYS150      0.1093
    114  NZ         3.7040   -2.9530   39.4460 N.3   150  LYS150     -0.1314
    115  N          7.4780   -5.0230   43.1040 N.am  151  THR151     -0.1937
    116  CA         7.6890   -5.3030   44.5220 C.3   151  THR151      0.2028
    117  C          8.8550   -6.2710   44.7040 C.2   151  THR151      0.2642
    118  O          9.6850   -6.0860   45.5940 O.2   151  THR151     -0.2714
    119  CB         6.3920   -5.8330   45.1900 C.3   151  THR151      0.1808
    120  OG1        5.4240   -4.7740   45.2700 O.3   151  THR151     -0.2208
    121  CG2        6.6460   -6.3910   46.5850 C.3   151  THR151      0.0379
    122  N          8.9310   -7.2760   43.8360 N.am  152  GLU152     -0.1963
    123  CA        10.0220   -8.2410   43.8850 C.3   152  GLU152      0.1733
    124  C         11.3780   -7.6010   43.6130 C.2   152  GLU152      0.2616
    125  O         12.3500   -7.8860   44.3090 O.2   152  GLU152     -0.2715
    126  CB         9.7650   -9.4170   42.9410 C.3   152  GLU152      0.0429
    127  CG         8.6310  -10.3140   43.4030 C.3   152  GLU152      0.1163
    128  CD         8.8840  -10.9050   44.7770 C.2   152  GLU152      0.3649
    129  OE1        9.9320  -11.5560   44.9520 O.co2 152  GLU152     -0.2457
    130  OE2        8.0440  -10.7190   45.6810 O.co2 152  GLU152     -0.2457
    131  N         11.4400   -6.7240   42.6180 N.am  153  ASN153     -0.1972
    132  CA        12.6840   -6.0270   42.3150 C.3   153  ASN153      0.1688
    133  C         13.0540   -4.9820   43.3730 C.2   153  ASN153      0.2292
    134  O         14.2270   -4.8390   43.7260 O.2   153  ASN153     -0.2864
    135  CB        12.6590   -5.4580   40.8980 C.3   153  ASN153      0.1181
    136  CG        12.8960   -6.5320   39.8400 C.2   153  ASN153      0.2629
    137  OD1       13.9780   -7.1180   39.7630 O.2   153  ASN153     -0.2716
    138  ND2       11.8880   -6.7880   39.0210 N.am  153  ASN153     -0.0877
    139  N         14.7900   -6.9320   45.9720 N.3   156  PHE156     -0.1241
    140  CA        16.1610   -7.2390   45.5490 C.3   156  PHE156      0.1605
    141  C         17.1030   -6.0590   45.7670 C.2   156  PHE156      0.2264
    142  O         18.2390   -6.2430   46.1980 O.2   156  PHE156     -0.2867
    143  CB        16.2080   -7.6350   44.0790 C.3   156  PHE156      0.0534
    144  CG        15.4000   -8.8500   43.7370 C.ar  156  PHE156     -0.0203
    145  CD1       15.3730   -9.9560   44.5780 C.ar  156  PHE156     -0.0042
    146  CD2       14.6810   -8.8960   42.5480 C.ar  156  PHE156     -0.0042
    147  CE1       14.6330  -11.0870   44.2400 C.ar  156  PHE156     -0.0003
    148  CE2       13.9400  -10.0160   42.2070 C.ar  156  PHE156     -0.0003
    149  CZ        13.9190  -11.1150   43.0540 C.ar  156  PHE156     -0.0000
    150  N         -2.4670  -10.3570   40.0680 N.3   190  ASN190     -0.1225
    151  CA        -1.3210  -10.6280   40.9220 C.3   190  ASN190      0.1785
    152  C         -1.7600  -11.2480   42.2420 C.2   190  ASN190      0.2597
    153  O         -2.4900  -10.6190   43.0180 O.2   190  ASN190     -0.2718
    154  CB        -0.5340   -9.3310   41.1670 C.3   190  ASN190      0.1169
    155  CG         0.7610   -9.5500   41.9510 C.2   190  ASN190      0.2627
    156  OD1        1.1010  -10.6730   42.3300 O.2   190  ASN190     -0.2716
    157  ND2        1.4910   -8.4630   42.1910 N.am  190  ASN190     -0.0877
    158  N         -1.3110  -12.4780   42.4920 N.am  191  ASN191     -0.1960
    159  CA        -1.5790  -13.1600   43.7520 C.3   191  ASN191      0.1819
    160  C         -1.0340  -12.4000   44.9610 C.2   191  ASN191      0.2621
    161  O         -1.6100  -12.4640   46.0570 O.2   191  ASN191     -0.2715
    162  CB        -1.0000  -14.5730   43.7370 C.3   191  ASN191      0.1195
    163  CG        -1.8140  -15.5390   42.8920 C.2   191  ASN191      0.2630
    164  OD1       -3.0130  -15.3530   42.6870 O.2   191  ASN191     -0.2716
    165  ND2       -1.1630  -16.5860   42.4090 N.am  191  ASN191     -0.0877
    166  N          0.0710  -11.6850   44.7650 N.am  192  ASN192     -0.1958
    167  CA         0.6750  -10.9070   45.8400 C.3   192  ASN192      0.1819
    168  C          0.6250   -9.4120   45.5670 C.2   192  ASN192      0.2622
    169  O          1.6020   -8.6910   45.7890 O.2   192  ASN192     -0.2715
    170  CB         2.1130  -11.3590   46.1020 C.3   192  ASN192      0.1195
    171  CG         2.6760  -10.7680   47.3730 C.2   192  ASN192      0.2630
    172  OD1        1.9560  -10.5810   48.3490 O.2   192  ASN192     -0.2716
    173  ND2        3.9580  -10.4530   47.3650 N.am  192  ASN192     -0.0877
    174  N         -0.5240   -8.9530   45.0870 N.am  193  SER193     -0.1936
    175  CA        -0.6930   -7.5660   44.6820 C.3   193  SER193      0.2055
    176  C         -0.5480   -6.6000   45.8520 C.2   193  SER193      0.2643
    177  O         -1.1360   -6.8120   46.9160 O.2   193  SER193     -0.2714
    178  CB        -2.0570   -7.3800   44.0130 C.3   193  SER193      0.2130
    179  OG        -2.1950   -6.0660   43.5130 O.3   193  SER193     -0.2179
    180  N          0.2440   -5.5480   45.6520 N.am  194  SER194     -0.1949
    181  CA         0.3230   -4.4370   46.6080 C.3   194  SER194      0.1924
    182  C         -0.8790   -3.5260   46.4070 C.2   194  SER194      0.2314
    183  O         -1.1510   -3.0900   45.2880 O.2   194  SER194     -0.2863
    184  CB         1.6030   -3.6260   46.4100 C.3   194  SER194      0.2116
    185  OG         2.6820   -4.4500   46.0030 O.3   194  SER194     -0.2180
    186  N          0.8670  -21.1690   44.0480 N.3   298  ASP298     -0.1225
    187  CA         1.8140  -20.0880   43.8220 C.3   298  ASP298      0.1790
    188  C          3.2180  -20.5440   44.2040 C.2   298  ASP298      0.2440
    189  O          3.3800  -21.2560   45.1950 O.2   298  ASP298     -0.2733
    190  CB         1.4260  -18.8590   44.6400 C.3   298  ASP298      0.1423
    191  CG         2.0850  -17.5920   44.1350 C.2   298  ASP298      0.3668
    192  OD1        1.7470  -17.1490   43.0110 O.co2 298  ASP298     -0.2456
    193  OD2        2.9470  -17.0460   44.8590 O.co2 298  ASP298     -0.2456
    194  N          4.2390  -20.1580   43.4110 N.am  299  PRO299     -0.2718
    195  CA         5.6100  -20.5000   43.8030 C.3   299  PRO299      0.1535
    196  C          6.1300  -19.7070   45.0120 C.2   299  PRO299      0.2598
    197  O          7.0180  -20.1900   45.7120 O.2   299  PRO299     -0.2715
    198  CB         6.4280  -20.1790   42.5480 C.3   299  PRO299      0.0310
    199  CG         5.6370  -19.1650   41.8280 C.3   299  PRO299      0.0237
    200  CD         4.1960  -19.4370   42.1230 C.3   299  PRO299      0.0939
    201  N          5.5780  -18.5180   45.2550 N.am  300  LEU300     -0.1978
    202  CA         6.0500  -17.6360   46.3340 C.3   300  LEU300      0.1596
    203  C          5.1520  -17.6540   47.5740 C.2   300  LEU300      0.2287
    204  O          5.6410  -17.7610   48.7010 O.2   300  LEU300     -0.2864
    205  CB         6.2190  -16.1910   45.8310 C.3   300  LEU300      0.0297
    206  CG         6.6190  -15.1160   46.8590 C.3   300  LEU300      0.0022
    207  CD1        8.0960  -15.2300   47.2790 C.3   300  LEU300      0.0001
    208  CD2        6.3090  -13.7070   46.3510 C.3   300  LEU300      0.0001
    209  N          7.9640    2.0050   44.8880 N.3   426  ASP426     -0.1239
    210  CA         7.1530    0.8520   44.5160 C.3   426  ASP426      0.1674
    211  C          5.6590    1.1810   44.6070 C.2   426  ASP426      0.2266
    212  O          5.0090    0.9160   45.6170 O.2   426  ASP426     -0.2867
    213  CB         7.5040   -0.3400   45.4130 C.3   426  ASP426      0.1410
    214  CG         6.8010   -1.6220   45.0010 C.2   426  ASP426      0.3668
    215  OD1        6.2540   -1.7010   43.8820 O.co2 426  ASP426     -0.2456
    216  OD2        6.7930   -2.5610   45.8140 O.co2 426  ASP426     -0.2456
    217  N          0.6790   -1.1530   40.6430 N.3   429  GLY429     -0.1225
    218  CA         0.7910   -1.2160   39.1920 C.3   429  GLY429      0.1811
    219  C         -0.5000   -0.9400   38.4490 C.2   429  GLY429      0.2280
    220  O         -1.5820   -1.3320   38.8970 O.2   429  GLY429     -0.2866
@<TRIPOS>BOND
     1    12    11    2
     2    11    10    1
     3     4     3    2
     4     1     2    1
     5     2     3    1
     6     2     5    1
     7     3     9   am
     8     9    10    1
     9    10    13    1
    10     7     5    1
    11     5     6    1
    12    24    23    2
    13    13    14    1
    14    21    22    1
    15    32    31    2
    16    23    22    1
    17    23    29   am
    18    56    58   ar
    19    56    54   ar
    20     6     8    1
    21    30    31    1
    22    30    29    1
    23    30    33    1
    24    43    45   ar
    25    43    41   ar
    26    45    46   ar
    27    22    25    1
    28    58    57   ar
    29    14    15   ar
    30    14    16   ar
    31    31    36   am
    32    29    35    1
    33    25    26    1
    34   101    98    1
    35    15    17   ar
    36    54    53   ar
    37    33    34    1
    38    40    41    1
    39    40    37    1
    40    41    42   ar
    41    46    47    1
    42    46    44   ar
    43    74    72    1
    44    16    18   ar
    45    98    99    1
    46    98    97    1
    47    36    37    1
    48    90    89    2
    49    35    34    1
    50   100    99    2
    51    57    55   ar
    52    87    88    1
    53    26    27    2
    54    26    28   am
    55    17    19   ar
    56    53    55   ar
    57    53    52    1
    58    72    71    1
    59    37    38    1
    60    73    71    1
    61    99   102   am
    62    97    95   am
    63    96    95    2
    64    42    44   ar
    65    89    88    1
    66    89    93   am
    67    18    19   ar
    68    95    94    1
    69    38    39    2
    70    38    48   am
    71    88    91    1
    72    52    49    1
    73    19    20    1
    74    48    49    1
    75    71    68    1
    76    91    92    1
    77    94    93    1
    78   102   103    1
    79   219   220    2
    80   219   218    1
    81    49    50    1
    82    51    50    2
    83    68    67    1
    84    68    69    1
    85   138   136   am
    86   218   217    1
    87    50    59   am
    88   103   104    1
    89   112   111    1
    90   112   113    1
    91   111   110    1
    92   114   113    1
    93    67    61   am
    94    86    85    1
    95   137   136    2
    96   136   135    1
    97    69    70    2
    98    62    61    2
    99   104   106   am
   100   104   105    2
   101   150   151    1
   102    61    60    1
   103   106   107    1
   104    59    60    1
   105    85    83   ar
   106    85    84   ar
   107   110   107    1
   108    60    63    1
   109   135   132    1
   110   107   108    1
   111   151   154    1
   112   151   152    1
   113   154   155    1
   114    83    81   ar
   115    84    82   ar
   116   199   200    1
   117   199   198    1
   118   155   157   am
   119   155   156    2
   120   200   194    1
   121   148   146   ar
   122   148   149   ar
   123   152   158   am
   124   152   153    2
   125    63    64    1
   126   132   131    1
   127   132   133    1
   128   108   109    2
   129   108   115   am
   130    81    80   ar
   131   165   163   am
   132    82    80   ar
   133   158   159    1
   134   146   144   ar
   135   198   195    1
   136   131   124   am
   137   164   163    2
   138   163   162    1
   139    75    76    1
   140   126   127    1
   141   126   123    1
   142   192   191   ar
   143    80    79    1
   144   149   147   ar
   145   115   116    1
   146    65    64   ar
   147    64    66   ar
   148   133   134    2
   149   127   128    1
   150   194   195    1
   151   194   188   am
   152   179   178    1
   153   124   123    1
   154   124   125    2
   155   162   159    1
   156   144   143    1
   157   144   145   ar
   158   159   160    1
   159   195   196    1
   160   187   186    1
   161   187   188    1
   162   187   190    1
   163   122   123    1
   164   122   117   am
   165   215   214   ar
   166    76    79    1
   167    76    77    1
   168   178   175    1
   169   143   140    1
   170   191   190    1
   171   191   193   ar
   172   188   189    2
   173   147   145   ar
   174   210   211    1
   175   210   209    1
   176   210   213    1
   177   116   117    1
   178   116   119    1
   179   211   212    2
   180   175   174    1
   181   175   176    1
   182   117   118    2
   183   166   160   am
   184   166   167    1
   185   128   129   ar
   186   128   130   ar
   187   160   161    2
   188   214   213    1
   189   214   216   ar
   190   196   201   am
   191   196   197    2
   192   174   168   am
   193   119   120    1
   194   119   121    1
   195   201   202    1
   196    77    78    2
   197   183   182    2
   198   140   141    1
   199   140   139    1
   200   168   169    2
   201   168   167    1
   202   180   176   am
   203   180   181    1
   204   141   142    2
   205   205   202    1
   206   205   206    1
   207   167   170    1
   208   176   177    2
   209   185   184    1
   210   170   171    1
   211   202   203    1
   212   208   206    1
   213   182   181    1
   214   184   181    1
   215   206   207    1
   216   173   171   am
   217   171   172    2
   218   203   204    2
