@<TRIPOS>MOLECULE
tmp/4anmA00.pdb
 166 153 0 0 0
SMALL
GASTEIGER

@<TRIPOS>ATOM
      1  N         26.5870    9.1230   26.0300 N.3    40  VAL40      -0.1231
      2  CA        25.2440    8.5330   25.9360 C.3    40  VAL40       0.1692
      3  C         25.2160    7.2640   25.1050 C.2    40  VAL40       0.2593
      4  O         24.1410    6.5830   25.0450 O.2    40  VAL40      -0.2718
      5  CB        24.1840    9.5530   25.3900 C.3    40  VAL40       0.0266
      6  CG1       24.0870   10.7480   26.4170 C.3    40  VAL40       0.0020
      7  CG2       24.5280   10.0710   23.9380 C.3    40  VAL40       0.0020
      8  N         26.3410    6.9440   24.4590 N.am   41  GLY41      -0.1942
      9  CA        26.2810    5.7430   23.5540 C.3    41  GLY41       0.2014
     10  C         27.6190    5.3320   23.0860 C.2    41  GLY41       0.2639
     11  O         28.5610    6.0840   23.1920 O.2    41  GLY41      -0.2714
     12  N         27.6700    4.1760   22.4160 N.am   42  ARG42      -0.1963
     13  CA        28.9240    3.7390   21.8550 C.3    42  ARG42       0.1729
     14  C         28.6200    2.5980   20.9040 C.2    42  ARG42       0.2616
     15  O         27.5880    1.9040   21.0030 O.2    42  ARG42      -0.2715
     16  CB        29.9190    3.2560   22.9450 C.3    42  ARG42       0.0348
     17  CG        29.8970    1.7430   23.2460 C.3    42  ARG42       0.0492
     18  CD        28.8330    1.4110   24.0820 C.3    42  ARG42       0.2205
     19  NE        28.6800   -0.1070   24.2880 N.pl3  42  ARG42      -0.0865
     20  CZ        27.6940   -0.7860   23.7500 C.cat  42  ARG42       0.5346
     21  NH1       26.8790   -0.1810   22.8650 N.pl3  42  ARG42       0.1354
     22  NH2       27.4790   -2.0260   24.1100 N.pl3  42  ARG42       0.1354
     23  N         29.5910    2.3660   20.0540 N.am   43  GLY43      -0.1955
     24  CA        29.5510    1.1130   19.2130 C.3    43  GLY43       0.1869
     25  C         30.9420    0.7750   18.7350 C.2    43  GLY43       0.2309
     26  O         31.9170    1.4070   19.1160 O.2    43  GLY43      -0.2863
     27  N         32.2960    4.1670   17.0490 N.3    46  SER46      -0.1273
     28  CA        32.1770    5.5910   17.5890 C.3    46  SER46       0.1575
     29  C         31.9570    5.6180   19.1000 C.3    46  SER46       0.2036
     30  O         31.5900    4.5610   19.7370 O.3    46  SER46      -0.2187
     31  CB        31.0200    6.2750   16.9030 C.3    46  SER46       0.2036
     32  OG        29.7280    5.6900   17.2400 O.3    46  SER46      -0.2187
     33  N         29.5420    8.2300   21.6080 N.3    48  VAL48      -0.1245
     34  CA        28.5090    9.2100   21.3200 C.3    48  VAL48       0.1561
     35  C         28.2390    9.9430   22.5930 C.2    48  VAL48       0.2260
     36  O         28.0810    9.3230   23.6370 O.2    48  VAL48      -0.2867
     37  CB        27.2220    8.5880   20.7730 C.3    48  VAL48       0.0252
     38  CG1       26.2700    9.6050   20.3930 C.3    48  VAL48       0.0019
     39  CG2       27.6820    7.6990   19.5230 C.3    48  VAL48       0.0019
     40  N         24.1050   16.1300   19.7260 N.3    61  ILE61      -0.1245
     41  CA        24.7830   14.8820   19.9510 C.3    61  ILE61       0.1561
     42  C         26.0440   14.9130   19.1190 C.2    61  ILE61       0.2260
     43  O         26.0840   15.2990   17.9330 O.2    61  ILE61      -0.2867
     44  CB        23.8460   13.6860   19.5860 C.3    61  ILE61       0.0252
     45  CG1       22.8820   13.4730   20.7820 C.3    61  ILE61       0.0019
     46  CG2       24.6330   12.3790   19.4120 C.3    61  ILE61       0.0019
     47  CD1       21.7050   14.0480   20.5790 C.3    61  ILE61       0.0001
     48  N         29.0370   12.6180   17.7160 N.3    63  LYS63      -0.1245
     49  CA        29.5230   11.2370   17.4280 C.3    63  LYS63       0.1561
     50  C         30.9810   11.3190   17.0660 C.2    63  LYS63       0.2260
     51  O         31.3380   11.7620   15.9810 O.2    63  LYS63      -0.2867
     52  CB        28.6430   10.6680   16.2620 C.3    63  LYS63       0.0271
     53  CG        28.9780    9.2160   15.9110 C.3    63  LYS63       0.0035
     54  CD        28.0820    8.7660   14.6670 C.3    63  LYS63       0.0206
     55  CE        28.5250    7.3060   14.4000 C.3    63  LYS63       0.1093
     56  NZ        27.5190    6.9030   13.2740 N.3    63  LYS63      -0.1314
     57  N         29.1450    7.8520    4.7540 N.3    76  GLU76      -0.1245
     58  CA        28.1510    8.1640    5.8230 C.3    76  GLU76       0.1567
     59  C         27.8030    9.6060    5.7010 C.2    76  GLU76       0.2260
     60  O         26.6610    9.9960    5.8240 O.2    76  GLU76      -0.2867
     61  CB        28.8100    7.7560    7.1520 C.3    76  GLU76       0.0388
     62  CG        27.8140    8.0420    8.3610 C.3    76  GLU76       0.1160
     63  CD        28.3860    7.5370    9.7170 C.2    76  GLU76       0.3649
     64  OE1       29.3480    6.8110    9.7610 O.co2  76  GLU76      -0.2457
     65  OE2       27.6920    7.9130   10.6450 O.co2  76  GLU76      -0.2457
     66  N         17.5120   11.3270   11.2530 N.3    90  VAL90      -0.1301
     67  CA        18.3160   12.1550   12.1460 C.3    90  VAL90       0.1246
     68  C         18.9500   13.2470   11.2740 C.3    90  VAL90       0.2009
     69  O         19.5480   12.9580   10.1690 O.3    90  VAL90      -0.2188
     70  CB        19.3520   11.3160   12.8450 C.3    90  VAL90       0.0202
     71  CG1       20.4350   10.7490   11.9110 C.3    90  VAL90       0.0016
     72  CG2       20.0210   12.1530   14.0700 C.3    90  VAL90       0.0016
     73  N         24.9520   15.9940   15.5090 N.3   108  PHE108     -0.1227
     74  CA        23.5400   15.7410   15.2130 C.3   108  PHE108      0.1736
     75  C         22.5920   16.4910   16.0940 C.2   108  PHE108      0.2595
     76  O         22.9100   16.8280   17.2590 O.2   108  PHE108     -0.2718
     77  CB        23.2500   14.2090   15.4460 C.3   108  PHE108      0.0547
     78  CG        23.9630   13.3110   14.5200 C.ar  108  PHE108     -0.0202
     79  CD1       23.5310   13.2230   13.1550 C.ar  108  PHE108     -0.0042
     80  CD2       25.0870   12.6360   14.9090 C.ar  108  PHE108     -0.0042
     81  CE1       24.2780   12.4060   12.2400 C.ar  108  PHE108     -0.0003
     82  CE2       25.8300   11.7420   14.0050 C.ar  108  PHE108     -0.0003
     83  CZ        25.3880   11.6700   12.6770 C.ar  108  PHE108     -0.0000
     84  N         21.3400   16.5840   15.6130 N.am  109  GLU109     -0.1979
     85  CA        20.2690   16.9160   16.5310 C.3   109  GLU109      0.1602
     86  C         20.1950   16.0010   17.7410 C.2   109  GLU109      0.2287
     87  O         20.6320   14.8480   17.7040 O.2   109  GLU109     -0.2864
     88  CB        18.8920   16.9170   15.8320 C.3   109  GLU109      0.0415
     89  CG        18.4130   15.5710   15.5130 C.3   109  GLU109      0.1163
     90  CD        17.0030   15.5390   14.8600 C.2   109  GLU109      0.3649
     91  OE1       15.9760   15.8730   15.5070 O.co2 109  GLU109     -0.2457
     92  OE2       16.9360   15.0510   13.7540 O.co2 109  GLU109     -0.2457
     93  N         18.2610   13.8530   20.6600 N.3   111  VAL111     -0.1245
     94  CA        16.9800   13.2050   21.0760 C.3   111  VAL111      0.1561
     95  C         17.1360   12.6810   22.4670 C.2   111  VAL111      0.2260
     96  O         18.1530   12.0640   22.7960 O.2   111  VAL111     -0.2867
     97  CB        16.6980   12.0230   20.1120 C.3   111  VAL111      0.0252
     98  CG1       15.3590   11.4280   20.3890 C.3   111  VAL111      0.0019
     99  CG2       16.6850   12.5680   18.7320 C.3   111  VAL111      0.0019
    100  N         16.4840    9.8120   24.1430 N.3   113  ASN113     -0.1240
    101  CA        16.0740    8.4410   23.8600 C.3   113  ASN113      0.1653
    102  C         15.9080    7.6260   25.1350 C.2   113  ASN113      0.2266
    103  O         16.6590    7.8400   26.0950 O.2   113  ASN113     -0.2867
    104  CB        17.1990    7.8190   22.9730 C.3   113  ASN113      0.1155
    105  CG        16.9580    6.3630   22.6760 C.2   113  ASN113      0.2627
    106  OD1       15.9590    5.9890   22.0900 O.2   113  ASN113     -0.2716
    107  ND2       17.8560    5.5260   23.1130 N.am  113  ASN113     -0.0877
    108  N         21.0850   -1.4660    8.4060 N.3   151  ASP151     -0.1239
    109  CA        21.2790   -1.8350    9.8350 C.3   151  ASP151      0.1674
    110  C         20.0590   -1.4280   10.6960 C.2   151  ASP151      0.2266
    111  O         20.1930   -0.8150   11.7840 O.2   151  ASP151     -0.2867
    112  CB        22.6310   -1.2210   10.3380 C.3   151  ASP151      0.1410
    113  CG        23.1050   -1.8260   11.6510 C.2   151  ASP151      0.3668
    114  OD1       22.7420   -2.9840   11.9460 O.co2 151  ASP151     -0.2456
    115  OD2       23.8620   -1.0520   12.3560 O.co2 151  ASP151     -0.2456
    116  N         17.4110   -1.7530   13.3070 N.3   153  LYS153     -0.1245
    117  CA        17.2580   -2.5370   14.5950 C.3   153  LYS153      0.1561
    118  C         16.9040   -1.5150   15.6810 C.2   153  LYS153      0.2260
    119  O         17.1030   -0.3240   15.4650 O.2   153  LYS153     -0.2867
    120  CB        18.5660   -3.2640   14.9950 C.3   153  LYS153      0.0271
    121  CG        19.7480   -2.3380   15.1380 C.3   153  LYS153      0.0035
    122  CD        21.0440   -3.0420   15.5630 C.3   153  LYS153      0.0206
    123  CE        22.2310   -2.1060   15.5010 C.3   153  LYS153      0.1093
    124  NZ        23.4640   -2.9360   16.1020 N.3   153  LYS153     -0.1314
    125  N         18.3030   -0.4950   18.3510 N.3   155  HIS155     -0.1226
    126  CA        19.4240    0.3710   18.8110 C.3   155  HIS155      0.1752
    127  C         19.6680    1.5160   17.8740 C.2   155  HIS155      0.2596
    128  O         20.2820    2.5120   18.2510 O.2   155  HIS155     -0.2718
    129  CB        20.7130   -0.4490   18.9210 C.3   155  HIS155      0.0759
    130  CG        20.7890   -1.2560   20.2180 C.ar  155  HIS155      0.0818
    131  ND1       21.3460   -2.4940   20.2900 N.ar  155  HIS155     -0.2268
    132  CD2       20.3840   -0.9610   21.5020 C.ar  155  HIS155      0.1154
    133  CE1       21.2010   -3.0000   21.5090 C.ar  155  HIS155      0.1986
    134  NE2       20.6820   -2.0730   22.2990 N.ar  155  HIS155     -0.2212
    135  N         19.1660    1.4030   16.6300 N.am  156  ASN156     -0.1974
    136  CA        19.3100    2.5490   15.6870 C.3   156  ASN156      0.1688
    137  C         18.0720    3.3670   15.4490 C.2   156  ASN156      0.2292
    138  O         17.9350    4.1250   14.4570 O.2   156  ASN156     -0.2864
    139  CB        19.8340    1.9860   14.2940 C.3   156  ASN156      0.1181
    140  CG        21.2860    1.6150   14.3830 C.2   156  ASN156      0.2629
    141  OD1       22.0370    2.1530   15.2510 O.2   156  ASN156     -0.2716
    142  ND2       21.7540    0.7590   13.4900 N.am  156  ASN156     -0.0877
    143  N         16.0020    6.0010   17.5910 N.3   158  MET158     -0.1245
    144  CA        15.9170    6.8670   18.8370 C.3   158  MET158      0.1570
    145  C         14.5170    7.2690   19.0100 C.2   158  MET158      0.2261
    146  O         13.8690    7.7210   18.0850 O.2   158  MET158     -0.2867
    147  CB        16.8060    8.1340   18.6510 C.3   158  MET158      0.0387
    148  CG        18.3470    7.7830   18.5250 C.3   158  MET158      0.0595
    149  SD        19.0290    6.9070   19.9960 S.3   158  MET158     -0.1393
    150  CE        18.8620    5.1700   19.5750 C.3   158  MET158      0.0692
    151  N         18.7750    6.4740   13.1030 N.3   169  ILE169     -0.1231
    152  CA        20.1930    6.8970   13.1980 C.3   169  ILE169      0.1692
    153  C         21.1710    5.8530   12.6530 C.2   169  ILE169      0.2592
    154  O         20.7620    4.7510   12.2530 O.2   169  ILE169     -0.2718
    155  CB        20.5460    7.2400   14.7190 C.3   169  ILE169      0.0266
    156  CG1       20.3260    6.0160   15.5770 C.3   169  ILE169      0.0019
    157  CG2       19.7340    8.4560   15.2050 C.3   169  ILE169      0.0020
    158  CD1       21.2410    5.9850   16.8720 C.3   169  ILE169      0.0001
    159  N         22.4610    6.2590   12.7000 N.am  170  ASP170     -0.1974
    160  CA        23.6520    5.4170   12.4810 C.3   170  ASP170      0.1709
    161  C         23.6180    4.8140   11.0560 C.2   170  ASP170      0.2293
    162  O         23.2330    3.6260   10.8210 O.2   170  ASP170     -0.2864
    163  CB        23.8240    4.3100   13.4900 C.3   170  ASP170      0.1436
    164  CG        25.2390    3.8530   13.5540 C.2   170  ASP170      0.3671
    165  OD1       25.9820    4.0410   12.5470 O.co2 170  ASP170     -0.2456
    166  OD2       25.6910    3.3320   14.6150 O.co2 170  ASP170     -0.2456
@<TRIPOS>BOND
     1    57    58    1
     2    59    58    1
     3    59    60    2
     4    58    61    1
     5    61    62    1
     6    62    63    1
     7   108   109    1
     8    63    64   ar
     9    63    65   ar
    10   109   112    1
    11   109   110    1
    12    69    68    1
    13   112   113    1
    14   110   111    2
    15   162   161    2
    16   161   160    1
    17    66    67    1
    18    68    67    1
    19   113   114   ar
    20   113   115   ar
    21    71    70    1
    22    67    70    1
    23    81    83   ar
    24    81    79   ar
    25   154   153    2
    26   160   159    1
    27   160   163    1
    28   165   164   ar
    29   153   159   am
    30   153   152    1
    31    83    82   ar
    32    70    72    1
    33   151   152    1
    34    79    78   ar
    35   152   155    1
    36    56    55    1
    37   116   117    1
    38   163   164    1
    39   142   140   am
    40   164   166   ar
    41    92    90   ar
    42    82    80   ar
    43   139   140    1
    44   139   136    1
    45   140   141    2
    46    55    54    1
    47   138   137    2
    48    78    80   ar
    49    78    77    1
    50   117   120    1
    51   117   118    1
    52    54    53    1
    53   155   157    1
    54   155   156    1
    55    90    91   ar
    56    90    89    1
    57   120   121    1
    58   121   122    1
    59    74    77    1
    60    74    73    1
    61    74    75    1
    62   137   136    1
    63   119   118    2
    64   123   122    1
    65   123   124    1
    66    89    88    1
    67   156   158    1
    68    84    75   am
    69    84    85    1
    70   136   135    1
    71    88    85    1
    72    53    52    1
    73    51    50    2
    74    75    76    2
    75    52    49    1
    76    85    86    1
    77   135   127   am
    78    31    32    1
    79    31    28    1
    80    27    28    1
    81    50    49    1
    82    49    48    1
    83    28    29    1
    84   143   144    1
    85    87    86    2
    86   127   128    2
    87   127   126    1
    88    43    42    2
    89   146   145    2
    90   125   126    1
    91   148   147    1
    92   148   149    1
    93   147   144    1
    94    99    97    1
    95    25    26    2
    96    25    24    1
    97   126   129    1
    98   144   145    1
    99   129   130    1
   100    29    30    1
   101    42    41    1
   102    24    23    1
   103    46    44    1
   104    39    37    1
   105   150   149    1
   106    44    41    1
   107    44    45    1
   108    40    41    1
   109    23    14   am
   110    97    98    1
   111    97    94    1
   112   130   131   ar
   113   130   132   ar
   114   131   133   ar
   115    38    37    1
   116    47    45    1
   117    93    94    1
   118    37    34    1
   119    14    15    2
   120    14    13    1
   121    94    95    1
   122    34    33    1
   123    34    35    1
   124   132   134   ar
   125   133   134   ar
   126    13    12    1
   127    13    16    1
   128   106   105    2
   129    12    10   am
   130    95    96    2
   131    35    36    2
   132   105   104    1
   133   105   107   am
   134    21    20    1
   135    16    17    1
   136   104   101    1
   137    10    11    2
   138    10     9    1
   139    17    18    1
   140     9     8    1
   141    20    22    1
   142    20    19    2
   143   101   100    1
   144   101   102    1
   145     7     5    1
   146    18    19    1
   147     8     3   am
   148     4     3    2
   149     3     2    1
   150   102   103    2
   151     5     2    1
   152     5     6    1
   153     2     1    1
